1:0:0
     RDKit          3D

 78 84  0  0  1  0  0  0  0  0999 V2000
   -1.0604   -9.3526    2.4880 C   0  0  0  0  0  0  0  0  0  0  0  0
   -0.3726   -8.7630    3.7279 C   0  0  1  0  0  0  0  0  0  0  0  0
   -1.4011   -8.6516    4.7068 O   0  0  0  0  0  0  0  0  0  0  0  0
    0.7329   -9.6365    4.3320 C   0  0  0  0  0  0  0  0  0  0  0  0
    1.6056   -8.6910    5.1759 C   0  0  0  0  0  0  0  0  0  0  0  0
    1.1258   -7.2458    4.8775 C   0  0  2  0  0  0  0  0  0  0  0  0
    0.2886   -7.3757    3.5768 C   0  0  1  0  0  0  0  0  0  0  0  0
    1.1575   -7.2618    2.2974 C   0  0  1  0  0  0  0  0  0  0  0  0
    0.6164   -6.2775    1.4388 O   0  0  0  0  0  0  0  0  0  0  0  0
    2.6559   -7.0284    2.5763 C   0  0  0  0  0  0  0  0  0  0  0  0
    2.9546   -5.8748    3.5394 C   0  0  1  0  0  0  0  0  0  0  0  0
    4.3509   -5.9692    3.8908 O   0  0  0  0  0  0  0  0  0  0  0  0
    4.4029   -4.5354    3.9330 C   0  0  0  0  0  0  0  0  0  0  0  0
    3.2472   -4.4630    2.8918 C   0  0  2  0  0  0  0  0  0  0  0  0
    1.9405   -3.6543    2.9829 C   0  0  0  0  0  0  0  0  0  0  0  0
    1.9438   -2.6072    4.0596 C   0  0  2  0  0  0  0  0  0  0  0  0
    0.7498   -1.7005    3.9956 C   0  0  0  0  0  0  0  0  0  0  0  0
    1.1366   -0.4320    4.0071 C   0  0  0  0  0  0  0  0  0  0  0  0
    2.4890   -0.2871    3.9973 O   0  0  0  0  0  0  0  0  0  0  0  0
    3.0760   -1.5723    3.7284 C   0  0  2  0  0  0  0  0  0  0  0  0
    3.5031   -1.4816    2.2102 C   0  0  0  0  0  0  0  0  0  0  0  0
    4.4548   -2.5831    1.6025 C   0  0  2  0  0  0  0  0  0  0  0  0
    5.3064   -2.0856    0.3698 C   0  0  0  0  0  0  0  0  0  0  0  0
    4.4459   -1.4120   -0.7306 C   0  0  0  0  0  0  0  0  0  0  0  0
    6.3586   -1.0558    0.8504 C   0  0  0  0  0  0  0  0  0  0  0  0
    6.1439   -3.2262   -0.2593 C   0  0  0  0  0  0  0  0  0  0  0  0
    6.8398   -2.9784   -1.2453 O   0  0  0  0  0  0  0  0  0  0  0  0
    6.1269   -4.5687    0.3523 C   0  0  0  0  0  0  0  0  0  0  0  0
    5.1072   -4.9556    1.1431 C   0  0  0  0  0  0  0  0  0  0  0  0
    3.8994   -4.0790    1.4907 C   0  0  1  0  0  0  0  0  0  0  0  0
    2.9613   -4.2766    0.2606 C   0  0  0  0  0  0  0  0  0  0  0  0
    1.9545   -3.2924    5.4652 C   0  0  0  0  0  0  0  0  0  0  0  0
    1.3906   -4.7570    5.5576 C   0  0  1  0  0  0  0  0  0  0  0  0
    0.0138   -4.6842    5.2347 O   0  0  0  0  0  0  0  0  0  0  0  0
    2.1571   -6.0428    4.9517 C   0  0  1  0  0  0  0  0  0  0  0  0
    3.1329   -6.4231    6.1227 C   0  0  0  0  0  0  0  0  0  0  0  0
   -0.3476   -9.6897    1.7368 H   0  0  0  0  0  0  0  0  0  0  0  0
   -1.7354   -8.6385    2.0102 H   0  0  0  0  0  0  0  0  0  0  0  0
   -1.6430  -10.2330    2.7446 H   0  0  0  0  0  0  0  0  0  0  0  0
   -1.7242   -9.5520    4.8833 H   0  0  0  0  0  0  0  0  0  0  0  0
    0.3454  -10.4835    4.9025 H   0  0  0  0  0  0  0  0  0  0  0  0
    1.3500  -10.0439    3.5312 H   0  0  0  0  0  0  0  0  0  0  0  0
    1.4732   -8.9117    6.2368 H   0  0  0  0  0  0  0  0  0  0  0  0
    2.6561   -8.8633    4.9489 H   0  0  0  0  0  0  0  0  0  0  0  0
    0.4141   -7.0946    5.6839 H   0  0  0  0  0  0  0  0  0  0  0  0
   -0.4832   -6.6046    3.5455 H   0  0  0  0  0  0  0  0  0  0  0  0
    1.1272   -8.1768    1.7081 H   0  0  0  0  0  0  0  0  0  0  0  0
    1.1838   -6.2568    0.6816 H   0  0  0  0  0  0  0  0  0  0  0  0
    3.0899   -7.9411    2.9842 H   0  0  0  0  0  0  0  0  0  0  0  0
    3.1835   -6.9058    1.6360 H   0  0  0  0  0  0  0  0  0  0  0  0
    4.2664   -4.1533    4.9286 H   0  0  0  0  0  0  0  0  0  0  0  0
    5.3919   -4.2044    3.6251 H   0  0  0  0  0  0  0  0  0  0  0  0
    1.6449   -3.1640    2.0706 H   0  0  0  0  0  0  0  0  0  0  0  0
    1.0980   -4.3262    3.0841 H   0  0  0  0  0  0  0  0  0  0  0  0
   -0.2679   -2.0532    3.9770 H   0  0  0  0  0  0  0  0  0  0  0  0
    0.5474    0.4736    3.9878 H   0  0  0  0  0  0  0  0  0  0  0  0
    3.9462   -1.7249    4.3661 H   0  0  0  0  0  0  0  0  0  0  0  0
    2.6352   -1.3327    1.5646 H   0  0  0  0  0  0  0  0  0  0  0  0
    4.0231   -0.5312    2.1460 H   0  0  0  0  0  0  0  0  0  0  0  0
    5.2262   -2.6139    2.3654 H   0  0  0  0  0  0  0  0  0  0  0  0
    4.0254   -0.4717   -0.3781 H   0  0  0  0  0  0  0  0  0  0  0  0
    3.6108   -2.0316   -1.0480 H   0  0  0  0  0  0  0  0  0  0  0  0
    5.0207   -1.1805   -1.6293 H   0  0  0  0  0  0  0  0  0  0  0  0
    5.9070   -0.1331    1.2198 H   0  0  0  0  0  0  0  0  0  0  0  0
    7.0449   -0.7559    0.0598 H   0  0  0  0  0  0  0  0  0  0  0  0
    6.9874   -1.4639    1.6422 H   0  0  0  0  0  0  0  0  0  0  0  0
    6.9427   -5.2446    0.1289 H   0  0  0  0  0  0  0  0  0  0  0  0
    5.1240   -5.9471    1.5645 H   0  0  0  0  0  0  0  0  0  0  0  0
    2.1696   -3.5380    0.1499 H   0  0  0  0  0  0  0  0  0  0  0  0
    2.5313   -5.2701    0.2400 H   0  0  0  0  0  0  0  0  0  0  0  0
    3.5134   -4.2193   -0.6758 H   0  0  0  0  0  0  0  0  0  0  0  0
    2.9060   -3.1953    5.9759 H   0  0  0  0  0  0  0  0  0  0  0  0
    1.3316   -2.6895    6.1272 H   0  0  0  0  0  0  0  0  0  0  0  0
    1.3253   -4.9375    6.6318 H   0  0  0  0  0  0  0  0  0  0  0  0
   -0.3848   -5.5124    5.4635 H   0  0  0  0  0  0  0  0  0  0  0  0
    3.7429   -5.5843    6.4541 H   0  0  0  0  0  0  0  0  0  0  0  0
    3.8254   -7.2251    5.8692 H   0  0  0  0  0  0  0  0  0  0  0  0
    2.5922   -6.7577    7.0088 H   0  0  0  0  0  0  0  0  0  0  0  0
  1  2  1  0
  1 37  1  0
  1 38  1  0
  1 39  1  0
  2  7  1  0
  2  3  1  1
  2  4  1  0
  3 40  1  0
  4  5  1  0
  4 41  1  0
  4 42  1  0
  5  6  1  0
  5 43  1  0
  5 44  1  0
  6 35  1  0
  6  7  1  0
  6 45  1  1
  7  8  1  0
  7 46  1  6
  8  9  1  0
  8 10  1  0
  8 47  1  6
  9 48  1  0
 10 11  1  0
 10 49  1  0
 10 50  1  0
 11 14  1  0
 11 35  1  0
 11 12  1  1
 12 13  1  0
 14 13  1  1
 13 51  1  0
 13 52  1  0
 14 30  1  0
 14 15  1  0
 15 16  1  0
 15 53  1  0
 15 54  1  0
 16 20  1  0
 16 17  1  0
 16 32  1  1
 17 18  2  0
 17 55  1  0
 18 19  1  0
 18 56  1  0
 19 20  1  0
 20 21  1  0
 20 57  1  1
 21 22  1  0
 21 58  1  0
 21 59  1  0
 22 30  1  0
 22 23  1  0
 22 60  1  1
 23 24  1  0
 23 25  1  0
 23 26  1  0
 24 61  1  0
 24 62  1  0
 24 63  1  0
 25 64  1  0
 25 65  1  0
 25 66  1  0
 26 27  2  0
 26 28  1  0
 28 29  2  0
 28 67  1  0
 29 30  1  0
 29 68  1  0
 30 31  1  6
 31 69  1  0
 31 70  1  0
 31 71  1  0
 32 33  1  0
 32 72  1  0
 32 73  1  0
 33 34  1  0
 33 35  1  0
 33 74  1  1
 34 75  1  0
 35 36  1  1
 36 76  1  0
 36 77  1  0
 36 78  1  0
M  END
>  <i_m_ct_stereo_status>  (1) 
1

>  <s_m_source_file>  (1) 
/var/tmp/pbs.5076255.sched01/tmpnm8fzmj1/0q4giu30i.sdf

>  <i_m_source_file_index>  (1) 
2

>  <i_lp_mmshare_version>  (1) 
48012

>  <i_f3d_flags>  (1) 
0

>  <s_epik_input>  (1) 
W0NIMl0xW0NIMl1bQ0BAXShbQ0gzXSkoW09IXSlbQ0BIXShbQ0BASF0oW09IXSlbQ0gyXTIpW0NAQEhdMVtDQF0zKFtDSDNdKVtDQEhdKFtPSF0pW0NIMl1bQ0BAXShbQ0gyXTQpKFtDSF09W0NIXU81KVtDQEhdNVtDSDJdW0NAQEhdKFtDQF02KFtDSDNdKVtDQEBdNChbQ0BdMjM3KVtDSDJdTzcpQyhbQ0gzXSkoW0NIM10pQyg9TylbQ0hdPVtDSF02

>  <s_epik_cmdline>  (1) 
J2VwaWtfcHl0aG9uJywgJy1waHQnLCAnMi4wJywgJy1waCcsICc3LjAnLCAnLXRuJywgJzgnLCAnLW1hJywgJzIwMCcsICctaW1hZScsICc8aW5maWxlLm1hZT4nLCAnLW9tYWUnLCAnPG91dGZpbGUubWFlPic=

>  <r_lp_tautomer_probability>  (1) 
1

>  <r_epik_Ionization_Penalty>  (1) 
2.54298e-06

>  <r_epik_Ionization_Penalty_Charging>  (1) 
0

>  <r_epik_Ionization_Penalty_Neutral>  (1) 
2.54298e-06

>  <r_epik_State_Penalty>  (1) 
-0

>  <r_epik_Charging_Adjusted_Penalty>  (1) 
0

>  <i_epik_Tot_Q>  (1) 
0

>  <i_epik_Tot_abs_Q>  (1) 
0

>  <s_lp_Force_Field>  (1) 
OPLS3e

>  <r_lp_Energy>  (1) 
128.235

>  <b_lp_Chiralities_Consistent>  (1) 
1

>  <s_lp_Variant>  (1) 
1:0-1

>  <s_i_glide_gridfile>  (1) 
pfpi4k_grid

>  <i_i_glide_lignum>  (1) 
2

>  <i_i_glide_rotatable_bonds>  (1) 
3

>  <r_i_docking_score>  (1) 
-3.85379

>  <r_i_glide_ligand_efficiency>  (1) 
-0.10705

>  <r_i_glide_ligand_efficiency_sa>  (1) 
-0.353471

>  <r_i_glide_ligand_efficiency_ln>  (1) 
-0.840793

>  <r_i_glide_gscore>  (1) 
-3.85379

>  <r_i_glide_lipo>  (1) 
-0.521797

>  <r_i_glide_hbond>  (1) 
-0.32

>  <r_i_glide_metal>  (1) 
-0

>  <r_i_glide_rewards>  (1) 
-0.10581

>  <r_i_glide_evdw>  (1) 
-31.2158

>  <r_i_glide_ecoul>  (1) 
-8.96931

>  <r_i_glide_erotb>  (1) 
0

>  <r_i_glide_esite>  (1) 
0

>  <r_i_glide_emodel>  (1) 
-50.6216

>  <r_i_glide_energy>  (1) 
-40.1851

>  <r_i_glide_einternal>  (1) 
0.695721

>  <r_i_glide_intrahb_reward>  (1) 
-0

>  <i_i_glide_confnum>  (1) 
1

>  <i_i_glide_posenum>  (1) 
31

>  <r_i_glide_eff_state_penalty>  (1) 
0

>  <ligand_id>  (1) 
1

>  <original_smiles>  (1) 
CC1(O)CCC2C1C(O)CC13OCC14CC1(C=COC1CC1C(C)(C)C(=O)C=CC14C)CC(O)C23C

>  <smiles>  (1) 
[H]OC1([H])C([H])([H])C23OC([H])([H])C24C([H])([H])C2(C([H])=C([H])OC2([H])C([H])([H])C2([H])C(C([H])([H])[H])(C([H])([H])[H])C(=O)C([H])=C([H])C24C([H])([H])[H])C([H])([H])C([H])(O[H])C3(C([H])([H])[H])C2([H])C([H])([H])C([H])([H])C(O[H])(C([H])([H])[H])C12[H]

$$$$
1:0:1
     RDKit          3D

 78 84  0  0  1  0  0  0  0  0999 V2000
   -1.1920   -8.9962    2.8486 C   0  0  0  0  0  0  0  0  0  0  0  0
    0.1404   -9.1236    3.6163 C   0  0  1  0  0  0  0  0  0  0  0  0
   -0.1832   -9.4145    4.9593 O   0  0  0  0  0  0  0  0  0  0  0  0
    1.0697  -10.2353    3.1101 C   0  0  0  0  0  0  0  0  0  0  0  0
    2.4776   -9.8669    3.6025 C   0  0  0  0  0  0  0  0  0  0  0  0
    2.3792   -8.4384    4.2119 C   0  0  2  0  0  0  0  0  0  0  0  0
    1.0391   -7.8765    3.6730 C   0  0  1  0  0  0  0  0  0  0  0  0
    1.1999   -7.1841    2.2951 C   0  0  1  0  0  0  0  0  0  0  0  0
    0.6694   -5.8685    2.3716 O   0  0  0  0  0  0  0  0  0  0  0  0
    2.6411   -7.1824    1.7606 C   0  0  0  0  0  0  0  0  0  0  0  0
    3.6794   -6.6534    2.7462 C   0  0  1  0  0  0  0  0  0  0  0  0
    4.9709   -6.9877    2.1836 O   0  0  0  0  0  0  0  0  0  0  0  0
    5.4751   -5.7471    2.7473 C   0  0  0  0  0  0  0  0  0  0  0  0
    4.0592   -5.1171    2.6552 C   0  0  2  0  0  0  0  0  0  0  0  0
    3.2509   -4.4127    3.7585 C   0  0  0  0  0  0  0  0  0  0  0  0
    4.0690   -4.0342    4.9571 C   0  0  2  0  0  0  0  0  0  0  0  0
    3.3349   -3.1644    5.9306 C   0  0  0  0  0  0  0  0  0  0  0  0
    4.0439   -2.0779    6.2212 C   0  0  0  0  0  0  0  0  0  0  0  0
    5.2029   -2.0035    5.5078 O   0  0  0  0  0  0  0  0  0  0  0  0
    5.1633   -3.0202    4.4936 C   0  0  2  0  0  0  0  0  0  0  0  0
    4.8492   -2.2135    3.1717 C   0  0  0  0  0  0  0  0  0  0  0  0
    5.0232   -2.9100    1.7675 C   0  0  2  0  0  0  0  0  0  0  0  0
    5.2903   -1.9159    0.5766 C   0  0  0  0  0  0  0  0  0  0  0  0
    4.2718   -0.7442    0.5216 C   0  0  0  0  0  0  0  0  0  0  0  0
    6.6958   -1.2955    0.7465 C   0  0  0  0  0  0  0  0  0  0  0  0
    5.3448   -2.6338   -0.7935 C   0  0  0  0  0  0  0  0  0  0  0  0
    5.5555   -1.9527   -1.7997 O   0  0  0  0  0  0  0  0  0  0  0  0
    5.1868   -4.0933   -0.8604 C   0  0  0  0  0  0  0  0  0  0  0  0
    4.6103   -4.7762    0.1507 C   0  0  0  0  0  0  0  0  0  0  0  0
    4.0553   -4.1280    1.4194 C   0  0  1  0  0  0  0  0  0  0  0  0
    2.6425   -3.6651    0.9671 C   0  0  0  0  0  0  0  0  0  0  0  0
    4.5381   -5.3230    5.7140 C   0  0  0  0  0  0  0  0  0  0  0  0
    3.6662   -6.6155    5.5246 C   0  0  1  0  0  0  0  0  0  0  0  0
    2.3863   -6.3231    6.0581 O   0  0  0  0  0  0  0  0  0  0  0  0
    3.6320   -7.4673    4.1610 C   0  0  1  0  0  0  0  0  0  0  0  0
    4.8736   -8.4145    4.3263 C   0  0  0  0  0  0  0  0  0  0  0  0
   -1.0673   -8.9488    1.7647 H   0  0  0  0  0  0  0  0  0  0  0  0
   -1.7592   -8.1257    3.1690 H   0  0  0  0  0  0  0  0  0  0  0  0
   -1.8263   -9.8594    3.0220 H   0  0  0  0  0  0  0  0  0  0  0  0
   -0.9176  -10.0496    4.9637 H   0  0  0  0  0  0  0  0  0  0  0  0
    0.7567  -11.2406    3.4206 H   0  0  0  0  0  0  0  0  0  0  0  0
    1.0824  -10.2265    2.0205 H   0  0  0  0  0  0  0  0  0  0  0  0
    2.8026  -10.5691    4.3691 H   0  0  0  0  0  0  0  0  0  0  0  0
    3.1898   -9.9463    2.7794 H   0  0  0  0  0  0  0  0  0  0  0  0
    2.2242   -8.6769    5.2572 H   0  0  0  0  0  0  0  0  0  0  0  0
    0.6139   -7.1655    4.3868 H   0  0  0  0  0  0  0  0  0  0  0  0
    0.6092   -7.6814    1.5324 H   0  0  0  0  0  0  0  0  0  0  0  0
    1.2013   -5.3922    2.9947 H   0  0  0  0  0  0  0  0  0  0  0  0
    2.9114   -8.1943    1.4563 H   0  0  0  0  0  0  0  0  0  0  0  0
    2.6608   -6.6299    0.8339 H   0  0  0  0  0  0  0  0  0  0  0  0
    5.9402   -5.9011    3.6985 H   0  0  0  0  0  0  0  0  0  0  0  0
    6.2420   -5.3591    2.1031 H   0  0  0  0  0  0  0  0  0  0  0  0
    2.7141   -3.5221    3.4468 H   0  0  0  0  0  0  0  0  0  0  0  0
    2.4043   -5.0111    4.0569 H   0  0  0  0  0  0  0  0  0  0  0  0
    2.3803   -3.4214    6.3611 H   0  0  0  0  0  0  0  0  0  0  0  0
    3.8222   -1.2643    6.8914 H   0  0  0  0  0  0  0  0  0  0  0  0
    6.1297   -3.5237    4.4444 H   0  0  0  0  0  0  0  0  0  0  0  0
    3.8705   -1.7307    3.2351 H   0  0  0  0  0  0  0  0  0  0  0  0
    5.5372   -1.3795    3.2041 H   0  0  0  0  0  0  0  0  0  0  0  0
    6.0094   -3.3425    1.8873 H   0  0  0  0  0  0  0  0  0  0  0  0
    4.3727   -0.0744    1.3779 H   0  0  0  0  0  0  0  0  0  0  0  0
    3.2410   -1.0893    0.5020 H   0  0  0  0  0  0  0  0  0  0  0  0
    4.4031   -0.1327   -0.3696 H   0  0  0  0  0  0  0  0  0  0  0  0
    6.7858   -0.6654    1.6336 H   0  0  0  0  0  0  0  0  0  0  0  0
    6.9536   -0.6578   -0.0888 H   0  0  0  0  0  0  0  0  0  0  0  0
    7.4748   -2.0624    0.8028 H   0  0  0  0  0  0  0  0  0  0  0  0
    5.5405   -4.5912   -1.7491 H   0  0  0  0  0  0  0  0  0  0  0  0
    4.5243   -5.8453    0.0580 H   0  0  0  0  0  0  0  0  0  0  0  0
    2.1434   -2.9382    1.6126 H   0  0  0  0  0  0  0  0  0  0  0  0
    1.9784   -4.5088    0.8097 H   0  0  0  0  0  0  0  0  0  0  0  0
    2.6726   -3.1757   -0.0041 H   0  0  0  0  0  0  0  0  0  0  0  0
    5.5987   -5.5263    5.6012 H   0  0  0  0  0  0  0  0  0  0  0  0
    4.5158   -5.0974    6.7835 H   0  0  0  0  0  0  0  0  0  0  0  0
    4.0573   -7.2911    6.2860 H   0  0  0  0  0  0  0  0  0  0  0  0
    1.9325   -7.1393    6.2013 H   0  0  0  0  0  0  0  0  0  0  0  0
    5.7859   -7.8726    4.5570 H   0  0  0  0  0  0  0  0  0  0  0  0
    5.0846   -9.0159    3.4458 H   0  0  0  0  0  0  0  0  0  0  0  0
    4.7358   -9.1184    5.1520 H   0  0  0  0  0  0  0  0  0  0  0  0
  1  2  1  0
  1 37  1  0
  1 38  1  0
  1 39  1  0
  2  7  1  0
  2  3  1  1
  2  4  1  0
  3 40  1  0
  4  5  1  0
  4 41  1  0
  4 42  1  0
  5  6  1  0
  5 43  1  0
  5 44  1  0
  6 35  1  0
  6  7  1  0
  6 45  1  1
  7  8  1  0
  7 46  1  1
  8  9  1  0
  8 10  1  0
  8 47  1  6
  9 48  1  0
 10 11  1  0
 10 49  1  0
 10 50  1  0
 11 14  1  0
 11 35  1  0
 11 12  1  6
 12 13  1  0
 14 13  1  1
 13 51  1  0
 13 52  1  0
 14 30  1  0
 14 15  1  0
 15 16  1  0
 15 53  1  0
 15 54  1  0
 16 20  1  0
 16 17  1  0
 16 32  1  1
 17 18  2  0
 17 55  1  0
 18 19  1  0
 18 56  1  0
 19 20  1  0
 20 21  1  0
 20 57  1  6
 21 22  1  0
 21 58  1  0
 21 59  1  0
 22 30  1  0
 22 23  1  0
 22 60  1  1
 23 24  1  0
 23 25  1  0
 23 26  1  0
 24 61  1  0
 24 62  1  0
 24 63  1  0
 25 64  1  0
 25 65  1  0
 25 66  1  0
 26 27  2  0
 26 28  1  0
 28 29  2  0
 28 67  1  0
 29 30  1  0
 29 68  1  0
 30 31  1  6
 31 69  1  0
 31 70  1  0
 31 71  1  0
 32 33  1  0
 32 72  1  0
 32 73  1  0
 33 34  1  0
 33 35  1  0
 33 74  1  1
 34 75  1  0
 35 36  1  1
 36 76  1  0
 36 77  1  0
 36 78  1  0
M  END
>  <i_m_ct_stereo_status>  (2) 
1

>  <s_m_source_file>  (2) 
/var/tmp/pbs.5076255.sched01/tmpnm8fzmj1/0q4giu30i.sdf

>  <i_m_source_file_index>  (2) 
2

>  <i_lp_mmshare_version>  (2) 
48012

>  <i_f3d_flags>  (2) 
0

>  <s_epik_input>  (2) 
W0NIMl0xW0NIMl1bQ0BAXShbQ0gzXSkoW09IXSlbQ0BIXShbQ0BASF0oW09IXSlbQ0gyXTIpW0NAQEhdMVtDQF0zKFtDSDNdKVtDQEhdKFtPSF0pW0NIMl1bQ0BAXShbQ0gyXTQpKFtDSF09W0NIXU81KVtDQEhdNVtDSDJdW0NAQEhdKFtDQF02KFtDSDNdKVtDQEBdNChbQ0BdMjM3KVtDSDJdTzcpQyhbQ0gzXSkoW0NIM10pQyg9TylbQ0hdPVtDSF02

>  <s_epik_cmdline>  (2) 
J2VwaWtfcHl0aG9uJywgJy1waHQnLCAnMi4wJywgJy1waCcsICc3LjAnLCAnLXRuJywgJzgnLCAnLW1hJywgJzIwMCcsICctaW1hZScsICc8aW5maWxlLm1hZT4nLCAnLW9tYWUnLCAnPG91dGZpbGUubWFlPic=

>  <r_lp_tautomer_probability>  (2) 
1

>  <r_epik_Ionization_Penalty>  (2) 
2.54298e-06

>  <r_epik_Ionization_Penalty_Charging>  (2) 
0

>  <r_epik_Ionization_Penalty_Neutral>  (2) 
2.54298e-06

>  <r_epik_State_Penalty>  (2) 
-0

>  <r_epik_Charging_Adjusted_Penalty>  (2) 
0

>  <i_epik_Tot_Q>  (2) 
0

>  <i_epik_Tot_abs_Q>  (2) 
0

>  <s_lp_Force_Field>  (2) 
OPLS3e

>  <r_lp_Energy>  (2) 
128.235

>  <b_lp_Chiralities_Consistent>  (2) 
1

>  <s_lp_Variant>  (2) 
1:0-1

>  <s_i_glide_gridfile>  (2) 
pfpi4k_grid

>  <i_i_glide_lignum>  (2) 
2

>  <i_i_glide_rotatable_bonds>  (2) 
3

>  <r_i_docking_score>  (2) 
-3.5331

>  <r_i_glide_ligand_efficiency>  (2) 
-0.0981416

>  <r_i_glide_ligand_efficiency_sa>  (2) 
-0.324056

>  <r_i_glide_ligand_efficiency_ln>  (2) 
-0.770827

>  <r_i_glide_gscore>  (2) 
-3.5331

>  <r_i_glide_lipo>  (2) 
-0.462809

>  <r_i_glide_hbond>  (2) 
-0.271923

>  <r_i_glide_metal>  (2) 
-0

>  <r_i_glide_rewards>  (2) 
-0.00919855

>  <r_i_glide_evdw>  (2) 
-29.6306

>  <r_i_glide_ecoul>  (2) 
-8.6756

>  <r_i_glide_erotb>  (2) 
0

>  <r_i_glide_esite>  (2) 
-0.00629998

>  <r_i_glide_emodel>  (2) 
-47.7036

>  <r_i_glide_energy>  (2) 
-38.3062

>  <r_i_glide_einternal>  (2) 
0.646777

>  <r_i_glide_intrahb_reward>  (2) 
-0

>  <i_i_glide_confnum>  (2) 
2

>  <i_i_glide_posenum>  (2) 
19

>  <r_i_glide_eff_state_penalty>  (2) 
0

>  <ligand_id>  (2) 
1

>  <original_smiles>  (2) 
CC1(O)CCC2C1C(O)CC13OCC14CC1(C=COC1CC1C(C)(C)C(=O)C=CC14C)CC(O)C23C

>  <smiles>  (2) 
[H]OC1([H])C([H])([H])C23OC([H])([H])C24C([H])([H])C2(C([H])=C([H])OC2([H])C([H])([H])C2([H])C(C([H])([H])[H])(C([H])([H])[H])C(=O)C([H])=C([H])C24C([H])([H])[H])C([H])([H])C([H])(O[H])C3(C([H])([H])[H])C2([H])C([H])([H])C([H])([H])C(O[H])(C([H])([H])[H])C12[H]

$$$$
1:0:2
     RDKit          3D

 78 84  0  0  1  0  0  0  0  0999 V2000
   -1.0533   -9.0736    2.8476 C   0  0  0  0  0  0  0  0  0  0  0  0
    0.2628   -9.1537    3.6496 C   0  0  1  0  0  0  0  0  0  0  0  0
   -0.0924   -9.4520    4.9819 O   0  0  0  0  0  0  0  0  0  0  0  0
    1.2342  -10.2422    3.1810 C   0  0  0  0  0  0  0  0  0  0  0  0
    2.6222   -9.8214    3.7039 C   0  0  0  0  0  0  0  0  0  0  0  0
    2.4746   -8.3863    4.2796 C   0  0  2  0  0  0  0  0  0  0  0  0
    1.1314   -7.8719    3.6950 C   0  0  1  0  0  0  0  0  0  0  0  0
    1.3031   -7.2060    2.3037 C   0  0  1  0  0  0  0  0  0  0  0  0
    0.7430   -5.8989    2.3397 O   0  0  0  0  0  0  0  0  0  0  0  0
    2.7559   -7.1827    1.7993 C   0  0  0  0  0  0  0  0  0  0  0  0
    3.7800   -6.6051    2.7946 C   0  0  1  0  0  0  0  0  0  0  0  0
    5.0742   -6.8904    2.2815 O   0  0  0  0  0  0  0  0  0  0  0  0
    5.5262   -5.6665    2.8108 C   0  0  0  0  0  0  0  0  0  0  0  0
    4.0975   -5.0688    2.6810 C   0  0  2  0  0  0  0  0  0  0  0  0
    3.2474   -4.3490    3.7462 C   0  0  0  0  0  0  0  0  0  0  0  0
    4.0260   -3.9224    4.9567 C   0  0  2  0  0  0  0  0  0  0  0  0
    3.2493   -3.0482    5.8879 C   0  0  0  0  0  0  0  0  0  0  0  0
    3.9177   -1.9406    6.1693 C   0  0  0  0  0  0  0  0  0  0  0  0
    5.1007   -1.8500    5.4827 O   0  0  0  0  0  0  0  0  0  0  0  0
    5.1104   -2.8885    4.4895 C   0  0  2  0  0  0  0  0  0  0  0  0
    4.7986   -2.1248    3.1424 C   0  0  0  0  0  0  0  0  0  0  0  0
    5.0213   -2.8530    1.7591 C   0  0  2  0  0  0  0  0  0  0  0  0
    5.2904   -1.8792    0.5428 C   0  0  0  0  0  0  0  0  0  0  0  0
    4.2469   -0.7365    0.4455 C   0  0  0  0  0  0  0  0  0  0  0  0
    6.6786   -1.2317    0.7351 C   0  0  0  0  0  0  0  0  0  0  0  0
    5.3978   -2.6239   -0.8041 C   0  0  0  0  0  0  0  0  0  0  0  0
    5.6158   -1.9693   -1.8316 O   0  0  0  0  0  0  0  0  0  0  0  0
    5.2875   -4.0893   -0.8304 C   0  0  0  0  0  0  0  0  0  0  0  0
    4.7031   -4.7615    0.1805 C   0  0  0  0  0  0  0  0  0  0  0  0
    4.0998   -4.1012    1.4174 C   0  0  1  0  0  0  0  0  0  0  0  0
    2.6798   -3.6848    0.9195 C   0  0  0  0  0  0  0  0  0  0  0  0
    4.5185   -5.1781    5.7549 C   0  0  0  0  0  0  0  0  0  0  0  0
    3.6842   -6.4978    5.5789 C   0  0  1  0  0  0  0  0  0  0  0  0
    2.3865   -6.2114    6.0820 O   0  0  0  0  0  0  0  0  0  0  0  0
    3.6975   -7.3874    4.2264 C   0  0  1  0  0  0  0  0  0  0  0  0
    4.9637   -8.2946    4.4488 C   0  0  0  0  0  0  0  0  0  0  0  0
   -0.9062   -9.0368    1.7690 H   0  0  0  0  0  0  0  0  0  0  0  0
   -1.6496   -8.2092    3.1357 H   0  0  0  0  0  0  0  0  0  0  0  0
   -1.6672   -9.9561    3.0205 H   0  0  0  0  0  0  0  0  0  0  0  0
   -0.8002  -10.1128    4.9713 H   0  0  0  0  0  0  0  0  0  0  0  0
    0.9459  -11.2411    3.5026 H   0  0  0  0  0  0  0  0  0  0  0  0
    1.2717  -10.2569    2.0892 H   0  0  0  0  0  0  0  0  0  0  0  0
    2.9424  -10.5006    4.4964 H   0  0  0  0  0  0  0  0  0  0  0  0
    3.3533   -9.9052    2.9029 H   0  0  0  0  0  0  0  0  0  0  0  0
    2.2862   -8.5868    5.3354 H   0  0  0  0  0  0  0  0  0  0  0  0
    0.6742   -7.1594    4.3807 H   0  0  0  0  0  0  0  0  0  0  0  0
    0.7401   -7.7322    1.5368 H   0  0  0  0  0  0  0  0  0  0  0  0
    1.2468   -5.3962    2.9530 H   0  0  0  0  0  0  0  0  0  0  0  0
    3.0524   -8.1950    1.5310 H   0  0  0  0  0  0  0  0  0  0  0  0
    2.7863   -6.6480    0.8497 H   0  0  0  0  0  0  0  0  0  0  0  0
    5.9815   -5.7737    3.7800 H   0  0  0  0  0  0  0  0  0  0  0  0
    6.3096   -5.2517    2.1715 H   0  0  0  0  0  0  0  0  0  0  0  0
    2.6995   -3.4896    3.4057 H   0  0  0  0  0  0  0  0  0  0  0  0
    2.4075   -4.9648    4.0397 H   0  0  0  0  0  0  0  0  0  0  0  0
    2.2813   -3.3202    6.2974 H   0  0  0  0  0  0  0  0  0  0  0  0
    3.6760   -1.1135    6.8118 H   0  0  0  0  0  0  0  0  0  0  0  0
    6.0877   -3.3547    4.4680 H   0  0  0  0  0  0  0  0  0  0  0  0
    3.8132   -1.6651    3.1703 H   0  0  0  0  0  0  0  0  0  0  0  0
    5.4681   -1.2682    3.1736 H   0  0  0  0  0  0  0  0  0  0  0  0
    6.0155   -3.2581    1.9122 H   0  0  0  0  0  0  0  0  0  0  0  0
    4.3121   -0.0426    1.2824 H   0  0  0  0  0  0  0  0  0  0  0  0
    3.2216   -1.1073    0.4138 H   0  0  0  0  0  0  0  0  0  0  0  0
    4.3838   -0.1441   -0.4601 H   0  0  0  0  0  0  0  0  0  0  0  0
    6.7162   -0.6204    1.6270 H   0  0  0  0  0  0  0  0  0  0  0  0
    6.9356   -0.5876   -0.0993 H   0  0  0  0  0  0  0  0  0  0  0  0
    7.4791   -1.9752    0.8188 H   0  0  0  0  0  0  0  0  0  0  0  0
    5.6731   -4.5962   -1.6942 H   0  0  0  0  0  0  0  0  0  0  0  0
    4.6496   -5.8341    0.1019 H   0  0  0  0  0  0  0  0  0  0  0  0
    2.1556   -2.9589    1.5373 H   0  0  0  0  0  0  0  0  0  0  0  0
    2.0449   -4.5469    0.7641 H   0  0  0  0  0  0  0  0  0  0  0  0
    2.7244   -3.2128   -0.0678 H   0  0  0  0  0  0  0  0  0  0  0  0
    5.5849   -5.3581    5.6628 H   0  0  0  0  0  0  0  0  0  0  0  0
    4.4755   -4.9255    6.8190 H   0  0  0  0  0  0  0  0  0  0  0  0
    4.0666   -7.1522    6.3639 H   0  0  0  0  0  0  0  0  0  0  0  0
    2.4677   -5.9391    6.9738 H   0  0  0  0  0  0  0  0  0  0  0  0
    5.8616   -7.7229    4.6839 H   0  0  0  0  0  0  0  0  0  0  0  0
    5.2074   -8.9119    3.5810 H   0  0  0  0  0  0  0  0  0  0  0  0
    4.8259   -8.9835    5.2840 H   0  0  0  0  0  0  0  0  0  0  0  0
  1  2  1  0
  1 37  1  0
  1 38  1  0
  1 39  1  0
  2  7  1  0
  2  3  1  1
  2  4  1  0
  3 40  1  0
  4  5  1  0
  4 41  1  0
  4 42  1  0
  5  6  1  0
  5 43  1  0
  5 44  1  0
  6 35  1  0
  6  7  1  0
  6 45  1  1
  7  8  1  0
  7 46  1  1
  8  9  1  0
  8 10  1  0
  8 47  1  6
  9 48  1  0
 10 11  1  0
 10 49  1  0
 10 50  1  0
 11 14  1  0
 11 35  1  0
 11 12  1  6
 12 13  1  0
 14 13  1  1
 13 51  1  0
 13 52  1  0
 14 30  1  0
 14 15  1  0
 15 16  1  0
 15 53  1  0
 15 54  1  0
 16 20  1  0
 16 17  1  0
 16 32  1  1
 17 18  2  0
 17 55  1  0
 18 19  1  0
 18 56  1  0
 19 20  1  0
 20 21  1  0
 20 57  1  6
 21 22  1  0
 21 58  1  0
 21 59  1  0
 22 30  1  0
 22 23  1  0
 22 60  1  1
 23 24  1  0
 23 25  1  0
 23 26  1  0
 24 61  1  0
 24 62  1  0
 24 63  1  0
 25 64  1  0
 25 65  1  0
 25 66  1  0
 26 27  2  0
 26 28  1  0
 28 29  2  0
 28 67  1  0
 29 30  1  0
 29 68  1  0
 30 31  1  6
 31 69  1  0
 31 70  1  0
 31 71  1  0
 32 33  1  0
 32 72  1  0
 32 73  1  0
 33 34  1  0
 33 35  1  0
 33 74  1  1
 34 75  1  0
 35 36  1  1
 36 76  1  0
 36 77  1  0
 36 78  1  0
M  END
>  <i_m_ct_stereo_status>  (3) 
1

>  <s_m_source_file>  (3) 
/var/tmp/pbs.5076255.sched01/tmpnm8fzmj1/0q4giu30i.sdf

>  <i_m_source_file_index>  (3) 
2

>  <i_lp_mmshare_version>  (3) 
48012

>  <i_f3d_flags>  (3) 
0

>  <s_epik_input>  (3) 
W0NIMl0xW0NIMl1bQ0BAXShbQ0gzXSkoW09IXSlbQ0BIXShbQ0BASF0oW09IXSlbQ0gyXTIpW0NAQEhdMVtDQF0zKFtDSDNdKVtDQEhdKFtPSF0pW0NIMl1bQ0BAXShbQ0gyXTQpKFtDSF09W0NIXU81KVtDQEhdNVtDSDJdW0NAQEhdKFtDQF02KFtDSDNdKVtDQEBdNChbQ0BdMjM3KVtDSDJdTzcpQyhbQ0gzXSkoW0NIM10pQyg9TylbQ0hdPVtDSF02

>  <s_epik_cmdline>  (3) 
J2VwaWtfcHl0aG9uJywgJy1waHQnLCAnMi4wJywgJy1waCcsICc3LjAnLCAnLXRuJywgJzgnLCAnLW1hJywgJzIwMCcsICctaW1hZScsICc8aW5maWxlLm1hZT4nLCAnLW9tYWUnLCAnPG91dGZpbGUubWFlPic=

>  <r_lp_tautomer_probability>  (3) 
1

>  <r_epik_Ionization_Penalty>  (3) 
2.54298e-06

>  <r_epik_Ionization_Penalty_Charging>  (3) 
0

>  <r_epik_Ionization_Penalty_Neutral>  (3) 
2.54298e-06

>  <r_epik_State_Penalty>  (3) 
-0

>  <r_epik_Charging_Adjusted_Penalty>  (3) 
0

>  <i_epik_Tot_Q>  (3) 
0

>  <i_epik_Tot_abs_Q>  (3) 
0

>  <s_lp_Force_Field>  (3) 
OPLS3e

>  <r_lp_Energy>  (3) 
128.235

>  <b_lp_Chiralities_Consistent>  (3) 
1

>  <s_lp_Variant>  (3) 
1:0-1

>  <s_i_glide_gridfile>  (3) 
pfpi4k_grid

>  <i_i_glide_lignum>  (3) 
2

>  <i_i_glide_rotatable_bonds>  (3) 
3

>  <r_i_docking_score>  (3) 
-3.37944

>  <r_i_glide_ligand_efficiency>  (3) 
-0.0938733

>  <r_i_glide_ligand_efficiency_sa>  (3) 
-0.309963

>  <r_i_glide_ligand_efficiency_ln>  (3) 
-0.737302

>  <r_i_glide_gscore>  (3) 
-3.37944

>  <r_i_glide_lipo>  (3) 
-0.477733

>  <r_i_glide_hbond>  (3) 
-0.250654

>  <r_i_glide_metal>  (3) 
-0

>  <r_i_glide_rewards>  (3) 
-0.00919855

>  <r_i_glide_evdw>  (3) 
-28.8906

>  <r_i_glide_ecoul>  (3) 
-7.93474

>  <r_i_glide_erotb>  (3) 
0

>  <r_i_glide_esite>  (3) 
-0.00711253

>  <r_i_glide_emodel>  (3) 
-45.8057

>  <r_i_glide_energy>  (3) 
-36.8253

>  <r_i_glide_einternal>  (3) 
0.54924

>  <r_i_glide_intrahb_reward>  (3) 
-0

>  <i_i_glide_confnum>  (3) 
1

>  <i_i_glide_posenum>  (3) 
27

>  <r_i_glide_eff_state_penalty>  (3) 
0

>  <ligand_id>  (3) 
1

>  <original_smiles>  (3) 
CC1(O)CCC2C1C(O)CC13OCC14CC1(C=COC1CC1C(C)(C)C(=O)C=CC14C)CC(O)C23C

>  <smiles>  (3) 
[H]OC1([H])C([H])([H])C23OC([H])([H])C24C([H])([H])C2(C([H])=C([H])OC2([H])C([H])([H])C2([H])C(C([H])([H])[H])(C([H])([H])[H])C(=O)C([H])=C([H])C24C([H])([H])[H])C([H])([H])C([H])(O[H])C3(C([H])([H])[H])C2([H])C([H])([H])C([H])([H])C(O[H])(C([H])([H])[H])C12[H]

$$$$
2:0:0
     RDKit          3D

 82 87  0  0  1  0  0  0  0  0999 V2000
    3.6969    2.7951    8.9522 C   0  0  0  0  0  0  0  0  0  0  0  0
    3.3824    2.1715    7.7035 O   0  0  0  0  0  0  0  0  0  0  0  0
    3.0051    3.0436    6.6241 C   0  0  2  0  0  0  0  0  0  0  0  0
    1.8288    3.8844    6.8837 C   0  0  0  0  0  0  0  0  0  0  0  0
    0.4928    3.6176    6.8704 C   0  0  0  0  0  0  0  0  0  0  0  0
   -0.4072    4.5548    7.2546 O   0  0  0  0  0  0  0  0  0  0  0  0
   -0.2266    5.4799    8.2771 C   0  0  0  0  0  0  0  0  0  0  0  0
    0.9224    5.2531    9.2790 C   0  0  0  0  0  0  0  0  0  0  0  0
   -0.9922    6.4236    8.4372 O   0  0  0  0  0  0  0  0  0  0  0  0
   -0.1808    2.3357    6.2662 C   0  0  1  0  0  0  0  0  0  0  0  0
   -1.6851    2.1274    6.7186 C   0  0  0  0  0  0  0  0  0  0  0  0
   -2.1146    0.6507    6.4512 C   0  0  0  0  0  0  0  0  0  0  0  0
   -1.8645    2.2860    8.2623 C   0  0  0  0  0  0  0  0  0  0  0  0
   -2.6039    3.1741    6.0089 C   0  0  0  0  0  0  0  0  0  0  0  0
   -2.2214    3.5919    4.5535 C   0  0  0  0  0  0  0  0  0  0  0  0
   -0.7283    3.5689    4.1454 C   0  0  1  0  0  0  0  0  0  0  0  0
   -0.1302    4.8274    4.3994 O   0  0  0  0  0  0  0  0  0  0  0  0
    0.0115    2.2975    4.6791 C   0  0  2  0  0  0  0  0  0  0  0  0
   -0.7042    1.0250    3.7614 C   0  0  1  0  0  0  0  0  0  0  0  0
   -0.5896    1.1422    2.2451 C   0  0  0  0  0  0  0  0  0  0  0  0
    0.8432    1.0582    1.7281 C   0  0  0  0  0  0  0  0  0  0  0  0
    2.0076    0.7162    2.7361 C   0  0  1  0  0  0  0  0  0  0  0  0
    3.2496    1.2961    1.9929 C   0  0  0  0  0  0  0  0  0  0  0  0
    1.7759    0.9384    4.2954 C   0  0  2  0  0  0  0  0  0  0  0  0
    1.6196    2.3580    4.4247 C   0  0  2  0  0  0  0  0  0  0  0  0
    3.0527    2.4540    5.1636 C   0  0  1  0  0  0  0  0  0  0  0  0
    3.6416    3.5637    4.4784 O   0  0  0  0  0  0  0  0  0  0  0  0
    4.1307    1.2000    4.7864 C   0  0  1  0  0  0  0  0  0  0  0  0
    5.0750    1.0413    5.8548 O   0  0  0  0  0  0  0  0  0  0  0  0
    3.4625   -0.2909    4.3877 C   0  0  1  0  0  0  0  0  0  0  0  0
    4.3894   -1.3315    4.5325 O   0  0  0  0  0  0  0  0  0  0  0  0
    2.3615   -0.1866    5.2816 C   0  0  1  0  0  0  0  0  0  0  0  0
    2.5303    0.0266    6.6804 O   0  0  0  0  0  0  0  0  0  0  0  0
    2.7604   -0.9844    7.5800 C   0  0  0  0  0  0  0  0  0  0  0  0
    2.8973   -2.4230    6.9974 C   0  0  0  0  0  0  0  0  0  0  0  0
    2.8820   -0.7369    8.8005 O   0  0  0  0  0  0  0  0  0  0  0  0
    2.3318   -0.6408    3.1523 C   0  0  2  0  0  0  0  0  0  0  0  0
    2.9518   -1.4001    2.1211 O   0  0  0  0  0  0  0  0  0  0  0  0
    0.7736   -1.2235    3.3132 C   0  0  0  0  0  0  0  0  0  0  0  0
   -0.3885   -0.4472    3.9310 O   0  0  0  0  0  0  0  0  0  0  0  0
    4.0600    2.0452    9.6598 H   0  0  0  0  0  0  0  0  0  0  0  0
    2.8208    3.2398    9.4184 H   0  0  0  0  0  0  0  0  0  0  0  0
    4.4665    3.5688    8.8691 H   0  0  0  0  0  0  0  0  0  0  0  0
    3.8330    3.7396    6.6713 H   0  0  0  0  0  0  0  0  0  0  0  0
    2.1045    4.9036    7.0946 H   0  0  0  0  0  0  0  0  0  0  0  0
    0.9649    4.1766    9.4384 H   0  0  0  0  0  0  0  0  0  0  0  0
    0.7554    5.7075   10.2408 H   0  0  0  0  0  0  0  0  0  0  0  0
    1.8712    5.5812    8.8307 H   0  0  0  0  0  0  0  0  0  0  0  0
    0.3465    1.5101    6.7319 H   0  0  0  0  0  0  0  0  0  0  0  0
   -2.7414    0.3023    7.2571 H   0  0  0  0  0  0  0  0  0  0  0  0
   -1.2648   -0.0259    6.2956 H   0  0  0  0  0  0  0  0  0  0  0  0
   -2.7360    0.5053    5.5857 H   0  0  0  0  0  0  0  0  0  0  0  0
   -2.8001    1.8715    8.6346 H   0  0  0  0  0  0  0  0  0  0  0  0
   -1.9017    3.3200    8.5838 H   0  0  0  0  0  0  0  0  0  0  0  0
   -1.0539    1.8100    8.8073 H   0  0  0  0  0  0  0  0  0  0  0  0
   -3.6430    2.8374    6.0240 H   0  0  0  0  0  0  0  0  0  0  0  0
   -2.6557    4.0802    6.6138 H   0  0  0  0  0  0  0  0  0  0  0  0
   -2.8031    3.0027    3.8420 H   0  0  0  0  0  0  0  0  0  0  0  0
   -2.5581    4.6090    4.4026 H   0  0  0  0  0  0  0  0  0  0  0  0
   -0.6973    3.5964    3.0662 H   0  0  0  0  0  0  0  0  0  0  0  0
    0.5995    4.9304    3.8134 H   0  0  0  0  0  0  0  0  0  0  0  0
   -1.7754    1.0814    3.9221 H   0  0  0  0  0  0  0  0  0  0  0  0
   -1.1559    0.3409    1.7922 H   0  0  0  0  0  0  0  0  0  0  0  0
   -1.0805    2.0246    1.8492 H   0  0  0  0  0  0  0  0  0  0  0  0
    0.8896    0.4131    0.8462 H   0  0  0  0  0  0  0  0  0  0  0  0
    1.0382    2.0598    1.3328 H   0  0  0  0  0  0  0  0  0  0  0  0
    4.1974    0.7839    2.1818 H   0  0  0  0  0  0  0  0  0  0  0  0
    3.3656    2.3549    2.1873 H   0  0  0  0  0  0  0  0  0  0  0  0
    3.1366    1.1870    0.9135 H   0  0  0  0  0  0  0  0  0  0  0  0
    1.0716    0.5370    5.0030 H   0  0  0  0  0  0  0  0  0  0  0  0
    1.6986    2.8974    3.4843 H   0  0  0  0  0  0  0  0  0  0  0  0
    3.8162    3.3165    3.5936 H   0  0  0  0  0  0  0  0  0  0  0  0
    4.8059    1.5368    3.9989 H   0  0  0  0  0  0  0  0  0  0  0  0
    4.5967    0.8021    6.6249 H   0  0  0  0  0  0  0  0  0  0  0  0
    4.9675   -1.2470    3.7726 H   0  0  0  0  0  0  0  0  0  0  0  0
    1.7947   -1.1118    5.3016 H   0  0  0  0  0  0  0  0  0  0  0  0
    1.8984   -2.8933    6.9406 H   0  0  0  0  0  0  0  0  0  0  0  0
    3.5731   -3.0088    7.6246 H   0  0  0  0  0  0  0  0  0  0  0  0
    3.3231   -2.4243    5.9929 H   0  0  0  0  0  0  0  0  0  0  0  0
    2.3854   -1.4095    1.3710 H   0  0  0  0  0  0  0  0  0  0  0  0
    0.4358   -1.4914    2.3121 H   0  0  0  0  0  0  0  0  0  0  0  0
    0.7894   -2.1934    3.8192 H   0  0  0  0  0  0  0  0  0  0  0  0
  1  2  1  0
  1 41  1  0
  1 42  1  0
  1 43  1  0
  2  3  1  0
  3 26  1  0
  3  4  1  0
  3 44  1  6
  4  5  2  0
  4 45  1  0
  5  6  1  0
  5 10  1  0
  6  7  1  0
  7  8  1  0
  7  9  2  0
  8 46  1  0
  8 47  1  0
  8 48  1  0
 10 18  1  0
 10 11  1  0
 10 49  1  1
 11 12  1  0
 11 13  1  0
 11 14  1  0
 12 50  1  0
 12 51  1  0
 12 52  1  0
 13 53  1  0
 13 54  1  0
 13 55  1  0
 14 15  1  0
 14 56  1  0
 14 57  1  0
 15 16  1  0
 15 58  1  0
 15 59  1  0
 16 17  1  0
 18 16  1  6
 16 60  1  6
 17 61  1  0
 18 25  1  0
 18 19  1  0
 19 40  1  0
 19 20  1  0
 19 62  1  6
 20 21  1  0
 20 63  1  0
 20 64  1  0
 21 22  1  0
 21 65  1  0
 21 66  1  0
 22 37  1  0
 22 23  1  6
 22 24  1  0
 23 67  1  0
 23 68  1  0
 23 69  1  0
 24 32  1  0
 24 25  1  0
 24 70  1  6
 25 26  1  0
 25 71  1  6
 26 27  1  6
 26 28  1  0
 27 72  1  0
 28 29  1  0
 28 30  1  0
 28 73  1  6
 29 74  1  0
 30 31  1  1
 30 32  1  0
 30 37  1  0
 31 75  1  0
 32 33  1  0
 32 76  1  1
 33 34  1  0
 34 35  1  0
 34 36  2  0
 35 77  1  0
 35 78  1  0
 35 79  1  0
 37 38  1  6
 37 39  1  0
 38 80  1  0
 39 40  1  0
 39 81  1  0
 39 82  1  0
M  END
>  <i_m_ct_stereo_status>  (4) 
1

>  <s_m_source_file>  (4) 
/var/tmp/pbs.5076255.sched01/tmpnm8fzmj1/0q4giu30i.sdf

>  <i_m_source_file_index>  (4) 
3

>  <i_lp_mmshare_version>  (4) 
48012

>  <i_f3d_flags>  (4) 
0

>  <s_epik_input>  (4) 
W09IXVtDQEBIXTFbQ0gyXVtDSDJdQyhbQ0gzXSkoW0NIM10pW0NAQEhdKFtDQF0xMjMpQyhPQyg9TylbQ0gzXSk9W0NIXVtDQEBIXShPW0NIM10pW0NAXTQoW09IXSlbQ0BIXTNbQ0BIXTVbQ0BAXTYoW0NIM10pW0NAQF0oW09IXSkoW0NAQF0oW09IXSkoW0NAQEhdNFtPSF0pW0NASF01T0MoPU8pW0NIM10pW0NIMl1PW0NAQEhdMltDSDJdW0NIMl02

>  <s_epik_cmdline>  (4) 
J2VwaWtfcHl0aG9uJywgJy1waHQnLCAnMi4wJywgJy1waCcsICc3LjAnLCAnLXRuJywgJzgnLCAnLW1hJywgJzIwMCcsICctaW1hZScsICc8aW5maWxlLm1hZT4nLCAnLW9tYWUnLCAnPG91dGZpbGUubWFlPic=

>  <r_lp_tautomer_probability>  (4) 
1

>  <r_epik_Ionization_Penalty>  (4) 
1.77201e-06

>  <r_epik_Ionization_Penalty_Charging>  (4) 
0

>  <r_epik_Ionization_Penalty_Neutral>  (4) 
1.77201e-06

>  <r_epik_State_Penalty>  (4) 
-0

>  <r_epik_Charging_Adjusted_Penalty>  (4) 
0

>  <i_epik_Tot_Q>  (4) 
0

>  <i_epik_Tot_abs_Q>  (4) 
0

>  <s_epik_Chemistry_Notes>  (4) 
This compound has an ester and may undergo hydrolysis at high or low pH.

>  <s_lp_Force_Field>  (4) 
OPLS3e

>  <r_lp_Energy>  (4) 
395.435

>  <b_lp_Chiralities_Consistent>  (4) 
1

>  <s_lp_Variant>  (4) 
2:0-1

>  <s_i_glide_gridfile>  (4) 
pfpi4k_grid

>  <i_i_glide_lignum>  (4) 
3

>  <i_i_glide_rotatable_bonds>  (4) 
10

>  <r_i_docking_score>  (4) 
-2.62499

>  <r_i_glide_ligand_efficiency>  (4) 
-0.0656247

>  <r_i_glide_ligand_efficiency_sa>  (4) 
-0.224433

>  <r_i_glide_ligand_efficiency_ln>  (4) 
-0.559833

>  <r_i_glide_gscore>  (4) 
-2.62499

>  <r_i_glide_lipo>  (4) 
-0.0843729

>  <r_i_glide_hbond>  (4) 
0

>  <r_i_glide_metal>  (4) 
-0

>  <r_i_glide_rewards>  (4) 
-1

>  <r_i_glide_evdw>  (4) 
-14.7585

>  <r_i_glide_ecoul>  (4) 
-5.63701

>  <r_i_glide_erotb>  (4) 
0.0432777

>  <r_i_glide_esite>  (4) 
-0.000416932

>  <r_i_glide_emodel>  (4) 
-28.3647

>  <r_i_glide_energy>  (4) 
-20.3955

>  <r_i_glide_einternal>  (4) 
10.2979

>  <r_i_glide_intrahb_reward>  (4) 
-1

>  <i_i_glide_confnum>  (4) 
2

>  <i_i_glide_posenum>  (4) 
24

>  <r_i_glide_eff_state_penalty>  (4) 
0

>  <ligand_id>  (4) 
2

>  <original_smiles>  (4) 
COC1C=C(OC(C)=O)C2C(C)(C)CCC(O)C23C2CCC4(C)C5C3C1(O)C(O)C(O)(C5OC(C)=O)C4(O)CO2

>  <smiles>  (4) 
[H]OC1([H])C2(O[H])C([H])(OC([H])([H])[H])C([H])=C(OC(=O)C([H])([H])[H])C3([H])C(C([H])([H])[H])(C([H])([H])[H])C([H])([H])C([H])([H])C([H])(O[H])C34C3([H])OC([H])([H])C5(O[H])C1(O[H])C([H])(OC(=O)C([H])([H])[H])C([H])(C24[H])C5(C([H])([H])[H])C([H])([H])C3([H])[H]

$$$$
2:0:1
     RDKit          3D

 82 87  0  0  1  0  0  0  0  0999 V2000
    3.0185    6.3978    5.1509 C   0  0  0  0  0  0  0  0  0  0  0  0
    2.5441    5.0740    4.9130 O   0  0  0  0  0  0  0  0  0  0  0  0
    1.1310    4.9166    4.8013 C   0  0  2  0  0  0  0  0  0  0  0  0
    0.4396    5.2906    6.1061 C   0  0  0  0  0  0  0  0  0  0  0  0
    0.1896    4.5872    7.2303 C   0  0  0  0  0  0  0  0  0  0  0  0
   -0.4930    5.1597    8.2984 O   0  0  0  0  0  0  0  0  0  0  0  0
   -0.4272    6.4833    8.6364 C   0  0  0  0  0  0  0  0  0  0  0  0
   -1.4035    6.8377    9.7567 C   0  0  0  0  0  0  0  0  0  0  0  0
    0.3212    7.3367    8.1725 O   0  0  0  0  0  0  0  0  0  0  0  0
    0.4621    3.0694    7.4800 C   0  0  1  0  0  0  0  0  0  0  0  0
    0.4886    2.6539    9.0038 C   0  0  0  0  0  0  0  0  0  0  0  0
    1.2019    1.2801    9.2129 C   0  0  0  0  0  0  0  0  0  0  0  0
    1.3531    3.6328    9.8508 C   0  0  0  0  0  0  0  0  0  0  0  0
   -0.9671    2.6632    9.5697 C   0  0  0  0  0  0  0  0  0  0  0  0
   -2.1138    2.2314    8.6182 C   0  0  0  0  0  0  0  0  0  0  0  0
   -1.9489    2.4772    7.0937 C   0  0  1  0  0  0  0  0  0  0  0  0
   -2.4687    3.7348    6.7412 O   0  0  0  0  0  0  0  0  0  0  0  0
   -0.5017    2.1597    6.5886 C   0  0  2  0  0  0  0  0  0  0  0  0
   -0.4180    0.4388    6.7341 C   0  0  1  0  0  0  0  0  0  0  0  0
   -1.4522   -0.3828    5.9639 C   0  0  0  0  0  0  0  0  0  0  0  0
   -1.3186   -0.2471    4.4494 C   0  0  0  0  0  0  0  0  0  0  0  0
   -0.1103    0.5266    3.8271 C   0  0  1  0  0  0  0  0  0  0  0  0
   -0.6606    0.9473    2.4174 C   0  0  0  0  0  0  0  0  0  0  0  0
    0.6554    1.5563    4.7529 C   0  0  2  0  0  0  0  0  0  0  0  0
   -0.2749    2.6223    5.0315 C   0  0  2  0  0  0  0  0  0  0  0  0
    0.5815    3.6220    4.0791 C   0  0  1  0  0  0  0  0  0  0  0  0
   -0.4761    4.1669    3.2743 O   0  0  0  0  0  0  0  0  0  0  0  0
    1.5270    2.8474    2.9169 C   0  0  1  0  0  0  0  0  0  0  0  0
    2.6059    3.6525    2.5124 O   0  0  0  0  0  0  0  0  0  0  0  0
    2.0795    1.3019    3.2945 C   0  0  1  0  0  0  0  0  0  0  0  0
    3.2786    0.9645    2.6417 O   0  0  0  0  0  0  0  0  0  0  0  0
    2.2554    1.5400    4.6749 C   0  0  1  0  0  0  0  0  0  0  0  0
    3.0792    2.5830    5.1662 O   0  0  0  0  0  0  0  0  0  0  0  0
    4.3349    2.3796    5.6614 C   0  0  0  0  0  0  0  0  0  0  0  0
    4.9156    0.9479    5.6094 C   0  0  0  0  0  0  0  0  0  0  0  0
    5.0064    3.2824    6.1350 O   0  0  0  0  0  0  0  0  0  0  0  0
    1.1914   -0.0986    3.6612 C   0  0  2  0  0  0  0  0  0  0  0  0
    1.2316   -1.0502    2.6075 O   0  0  0  0  0  0  0  0  0  0  0  0
    1.2544   -0.9603    5.0775 C   0  0  0  0  0  0  0  0  0  0  0  0
    0.8083   -0.4076    6.4261 O   0  0  0  0  0  0  0  0  0  0  0  0
    4.1086    6.3959    5.1033 H   0  0  0  0  0  0  0  0  0  0  0  0
    2.7306    6.7635    6.1385 H   0  0  0  0  0  0  0  0  0  0  0  0
    2.6586    7.1015    4.3974 H   0  0  0  0  0  0  0  0  0  0  0  0
    0.8723    5.7464    4.1344 H   0  0  0  0  0  0  0  0  0  0  0  0
    0.1112    6.3193    6.0297 H   0  0  0  0  0  0  0  0  0  0  0  0
   -2.4138    6.4853    9.5423 H   0  0  0  0  0  0  0  0  0  0  0  0
   -1.4337    7.9205    9.8876 H   0  0  0  0  0  0  0  0  0  0  0  0
   -1.0575    6.3938   10.6887 H   0  0  0  0  0  0  0  0  0  0  0  0
    1.4913    2.9554    7.1447 H   0  0  0  0  0  0  0  0  0  0  0  0
    1.9275    1.2863   10.0251 H   0  0  0  0  0  0  0  0  0  0  0  0
    1.7746    0.9757    8.3383 H   0  0  0  0  0  0  0  0  0  0  0  0
    0.5182    0.4750    9.4758 H   0  0  0  0  0  0  0  0  0  0  0  0
    1.6113    3.2207   10.8249 H   0  0  0  0  0  0  0  0  0  0  0  0
    0.8427    4.5548   10.0918 H   0  0  0  0  0  0  0  0  0  0  0  0
    2.2774    3.8933    9.3367 H   0  0  0  0  0  0  0  0  0  0  0  0
   -1.0074    2.0246   10.4495 H   0  0  0  0  0  0  0  0  0  0  0  0
   -1.2158    3.6516    9.9705 H   0  0  0  0  0  0  0  0  0  0  0  0
   -2.2666    1.1727    8.7521 H   0  0  0  0  0  0  0  0  0  0  0  0
   -3.0416    2.6944    8.9596 H   0  0  0  0  0  0  0  0  0  0  0  0
   -2.6542    1.8327    6.5785 H   0  0  0  0  0  0  0  0  0  0  0  0
   -1.9357    4.3843    7.2001 H   0  0  0  0  0  0  0  0  0  0  0  0
   -0.6248    0.1902    7.7686 H   0  0  0  0  0  0  0  0  0  0  0  0
   -1.3276   -1.4357    6.2208 H   0  0  0  0  0  0  0  0  0  0  0  0
   -2.4743   -0.1647    6.2496 H   0  0  0  0  0  0  0  0  0  0  0  0
   -1.4124   -1.2412    4.0095 H   0  0  0  0  0  0  0  0  0  0  0  0
   -2.2085    0.3008    4.1521 H   0  0  0  0  0  0  0  0  0  0  0  0
    0.0835    1.0121    1.6253 H   0  0  0  0  0  0  0  0  0  0  0  0
   -1.2359    1.8698    2.4427 H   0  0  0  0  0  0  0  0  0  0  0  0
   -1.3388    0.1897    2.0359 H   0  0  0  0  0  0  0  0  0  0  0  0
    1.2098    1.4635    5.6608 H   0  0  0  0  0  0  0  0  0  0  0  0
   -1.2427    2.4511    4.5665 H   0  0  0  0  0  0  0  0  0  0  0  0
   -0.1806    4.2336    2.3500 H   0  0  0  0  0  0  0  0  0  0  0  0
    0.9804    2.7930    1.9851 H   0  0  0  0  0  0  0  0  0  0  0  0
    2.2521    4.3626    1.9894 H   0  0  0  0  0  0  0  0  0  0  0  0
    3.7248    1.7897    2.4795 H   0  0  0  0  0  0  0  0  0  0  0  0
    2.7766    0.6834    5.0873 H   0  0  0  0  0  0  0  0  0  0  0  0
    4.5233    0.3691    6.4469 H   0  0  0  0  0  0  0  0  0  0  0  0
    6.0045    0.9357    5.6795 H   0  0  0  0  0  0  0  0  0  0  0  0
    4.6209    0.4252    4.6952 H   0  0  0  0  0  0  0  0  0  0  0  0
    1.2263   -0.5993    1.7775 H   0  0  0  0  0  0  0  0  0  0  0  0
    0.6942   -1.8847    4.9302 H   0  0  0  0  0  0  0  0  0  0  0  0
    2.2685   -1.3263    5.2300 H   0  0  0  0  0  0  0  0  0  0  0  0
  1  2  1  0
  1 41  1  0
  1 42  1  0
  1 43  1  0
  2  3  1  0
  3 26  1  0
  3  4  1  0
  3 44  1  6
  4  5  2  0
  4 45  1  0
  5  6  1  0
  5 10  1  0
  6  7  1  0
  7  8  1  0
  7  9  2  0
  8 46  1  0
  8 47  1  0
  8 48  1  0
 10 18  1  0
 10 11  1  0
 10 49  1  6
 11 12  1  0
 11 13  1  0
 11 14  1  0
 12 50  1  0
 12 51  1  0
 12 52  1  0
 13 53  1  0
 13 54  1  0
 13 55  1  0
 14 15  1  0
 14 56  1  0
 14 57  1  0
 15 16  1  0
 15 58  1  0
 15 59  1  0
 16 17  1  0
 18 16  1  1
 16 60  1  6
 17 61  1  0
 18 25  1  0
 18 19  1  0
 19 40  1  0
 19 20  1  0
 19 62  1  1
 20 21  1  0
 20 63  1  0
 20 64  1  0
 21 22  1  0
 21 65  1  0
 21 66  1  0
 22 37  1  0
 22 23  1  6
 22 24  1  0
 23 67  1  0
 23 68  1  0
 23 69  1  0
 24 32  1  0
 24 25  1  0
 24 70  1  1
 25 26  1  0
 25 71  1  6
 26 27  1  6
 26 28  1  0
 27 72  1  0
 28 29  1  0
 28 30  1  0
 28 73  1  6
 29 74  1  0
 30 31  1  6
 30 32  1  0
 30 37  1  0
 31 75  1  0
 32 33  1  0
 32 76  1  1
 33 34  1  0
 34 35  1  0
 34 36  2  0
 35 77  1  0
 35 78  1  0
 35 79  1  0
 37 38  1  6
 37 39  1  0
 38 80  1  0
 39 40  1  0
 39 81  1  0
 39 82  1  0
M  END
>  <i_m_ct_stereo_status>  (5) 
1

>  <s_m_source_file>  (5) 
/var/tmp/pbs.5076255.sched01/tmpnm8fzmj1/0q4giu30i.sdf

>  <i_m_source_file_index>  (5) 
3

>  <i_lp_mmshare_version>  (5) 
48012

>  <i_f3d_flags>  (5) 
0

>  <s_epik_input>  (5) 
W09IXVtDQEBIXTFbQ0gyXVtDSDJdQyhbQ0gzXSkoW0NIM10pW0NAQEhdKFtDQF0xMjMpQyhPQyg9TylbQ0gzXSk9W0NIXVtDQEBIXShPW0NIM10pW0NAXTQoW09IXSlbQ0BIXTNbQ0BIXTVbQ0BAXTYoW0NIM10pW0NAQF0oW09IXSkoW0NAQF0oW09IXSkoW0NAQEhdNFtPSF0pW0NASF01T0MoPU8pW0NIM10pW0NIMl1PW0NAQEhdMltDSDJdW0NIMl02

>  <s_epik_cmdline>  (5) 
J2VwaWtfcHl0aG9uJywgJy1waHQnLCAnMi4wJywgJy1waCcsICc3LjAnLCAnLXRuJywgJzgnLCAnLW1hJywgJzIwMCcsICctaW1hZScsICc8aW5maWxlLm1hZT4nLCAnLW9tYWUnLCAnPG91dGZpbGUubWFlPic=

>  <r_lp_tautomer_probability>  (5) 
1

>  <r_epik_Ionization_Penalty>  (5) 
1.77201e-06

>  <r_epik_Ionization_Penalty_Charging>  (5) 
0

>  <r_epik_Ionization_Penalty_Neutral>  (5) 
1.77201e-06

>  <r_epik_State_Penalty>  (5) 
-0

>  <r_epik_Charging_Adjusted_Penalty>  (5) 
0

>  <i_epik_Tot_Q>  (5) 
0

>  <i_epik_Tot_abs_Q>  (5) 
0

>  <s_epik_Chemistry_Notes>  (5) 
This compound has an ester and may undergo hydrolysis at high or low pH.

>  <s_lp_Force_Field>  (5) 
OPLS3e

>  <r_lp_Energy>  (5) 
395.435

>  <b_lp_Chiralities_Consistent>  (5) 
1

>  <s_lp_Variant>  (5) 
2:0-1

>  <s_i_glide_gridfile>  (5) 
pfpi4k_grid

>  <i_i_glide_lignum>  (5) 
3

>  <i_i_glide_rotatable_bonds>  (5) 
10

>  <r_i_docking_score>  (5) 
-2.30636

>  <r_i_glide_ligand_efficiency>  (5) 
-0.0576591

>  <r_i_glide_ligand_efficiency_sa>  (5) 
-0.197191

>  <r_i_glide_ligand_efficiency_ln>  (5) 
-0.49188

>  <r_i_glide_gscore>  (5) 
-2.30636

>  <r_i_glide_lipo>  (5) 
-0.0636905

>  <r_i_glide_hbond>  (5) 
0

>  <r_i_glide_metal>  (5) 
-0

>  <r_i_glide_rewards>  (5) 
-0.000857933

>  <r_i_glide_evdw>  (5) 
-21.1028

>  <r_i_glide_ecoul>  (5) 
-8.19333

>  <r_i_glide_erotb>  (5) 
0.0432777

>  <r_i_glide_esite>  (5) 
-0.00095578

>  <r_i_glide_emodel>  (5) 
-28.7816

>  <r_i_glide_energy>  (5) 
-29.2961

>  <r_i_glide_einternal>  (5) 
8.51206

>  <r_i_glide_intrahb_reward>  (5) 
-0

>  <i_i_glide_confnum>  (5) 
2

>  <i_i_glide_posenum>  (5) 
7

>  <r_i_glide_eff_state_penalty>  (5) 
0

>  <ligand_id>  (5) 
2

>  <original_smiles>  (5) 
COC1C=C(OC(C)=O)C2C(C)(C)CCC(O)C23C2CCC4(C)C5C3C1(O)C(O)C(O)(C5OC(C)=O)C4(O)CO2

>  <smiles>  (5) 
[H]OC1([H])C2(O[H])C([H])(OC([H])([H])[H])C([H])=C(OC(=O)C([H])([H])[H])C3([H])C(C([H])([H])[H])(C([H])([H])[H])C([H])([H])C([H])([H])C([H])(O[H])C34C3([H])OC([H])([H])C5(O[H])C1(O[H])C([H])(OC(=O)C([H])([H])[H])C([H])(C24[H])C5(C([H])([H])[H])C([H])([H])C3([H])[H]

$$$$
2:0:2
     RDKit          3D

 82 87  0  0  1  0  0  0  0  0999 V2000
    2.9707    6.4904    5.1385 C   0  0  0  0  0  0  0  0  0  0  0  0
    2.5187    5.1612    4.8974 O   0  0  0  0  0  0  0  0  0  0  0  0
    1.1134    4.9696    4.7976 C   0  0  2  0  0  0  0  0  0  0  0  0
    0.4261    5.3425    6.0981 C   0  0  0  0  0  0  0  0  0  0  0  0
    0.1788    4.6344    7.2277 C   0  0  0  0  0  0  0  0  0  0  0  0
   -0.5212    5.1994    8.2847 O   0  0  0  0  0  0  0  0  0  0  0  0
   -0.4720    6.5303    8.6157 C   0  0  0  0  0  0  0  0  0  0  0  0
   -1.4514    6.8750    9.7321 C   0  0  0  0  0  0  0  0  0  0  0  0
    0.2793    7.3908    8.1515 O   0  0  0  0  0  0  0  0  0  0  0  0
    0.4905    3.1240    7.4865 C   0  0  1  0  0  0  0  0  0  0  0  0
    0.5143    2.7139    9.0088 C   0  0  0  0  0  0  0  0  0  0  0  0
    1.2519    1.3543    9.2265 C   0  0  0  0  0  0  0  0  0  0  0  0
    1.3656    3.7150    9.8506 C   0  0  0  0  0  0  0  0  0  0  0  0
   -0.9389    2.7005    9.5779 C   0  0  0  0  0  0  0  0  0  0  0  0
   -2.0791    2.2472    8.6254 C   0  0  0  0  0  0  0  0  0  0  0  0
   -1.9127    2.4898    7.0976 C   0  0  1  0  0  0  0  0  0  0  0  0
   -2.4456    3.7399    6.7520 O   0  0  0  0  0  0  0  0  0  0  0  0
   -0.4513    2.1953    6.6006 C   0  0  2  0  0  0  0  0  0  0  0  0
   -0.3468    0.4686    6.7575 C   0  0  1  0  0  0  0  0  0  0  0  0
   -1.3764   -0.3666    5.9900 C   0  0  0  0  0  0  0  0  0  0  0  0
   -1.2514   -0.2367    4.4755 C   0  0  0  0  0  0  0  0  0  0  0  0
   -0.0363    0.5452    3.8548 C   0  0  1  0  0  0  0  0  0  0  0  0
   -0.6049    0.9502    2.4415 C   0  0  0  0  0  0  0  0  0  0  0  0
    0.7393    1.5871    4.7803 C   0  0  2  0  0  0  0  0  0  0  0  0
   -0.2149    2.6315    5.0455 C   0  0  2  0  0  0  0  0  0  0  0  0
    0.5920    3.6567    4.0918 C   0  0  1  0  0  0  0  0  0  0  0  0
   -0.4731    4.1769    3.2988 O   0  0  0  0  0  0  0  0  0  0  0  0
    1.5504    2.8919    2.9280 C   0  0  1  0  0  0  0  0  0  0  0  0
    2.6132    3.7205    2.4947 O   0  0  0  0  0  0  0  0  0  0  0  0
    2.1419    1.3630    3.3082 C   0  0  1  0  0  0  0  0  0  0  0  0
    3.3409    1.0248    2.6414 O   0  0  0  0  0  0  0  0  0  0  0  0
    2.3357    1.6194    4.6798 C   0  0  1  0  0  0  0  0  0  0  0  0
    3.1083    2.7143    5.1686 O   0  0  0  0  0  0  0  0  0  0  0  0
    4.3475    2.5128    5.6843 C   0  0  0  0  0  0  0  0  0  0  0  0
    5.0054    3.7948    6.1839 C   0  0  0  0  0  0  0  0  0  0  0  0
    4.9435    1.4367    5.7587 O   0  0  0  0  0  0  0  0  0  0  0  0
    1.2781   -0.0554    3.6882 C   0  0  2  0  0  0  0  0  0  0  0  0
    1.3159   -1.0166    2.6436 O   0  0  0  0  0  0  0  0  0  0  0  0
    1.3567   -0.9072    5.1146 C   0  0  0  0  0  0  0  0  0  0  0  0
    0.8842   -0.3723    6.4630 O   0  0  0  0  0  0  0  0  0  0  0  0
    4.0611    6.5073    5.0873 H   0  0  0  0  0  0  0  0  0  0  0  0
    2.6826    6.8428    6.1293 H   0  0  0  0  0  0  0  0  0  0  0  0
    2.5966    7.1870    4.3882 H   0  0  0  0  0  0  0  0  0  0  0  0
    0.8438    5.7856    4.1263 H   0  0  0  0  0  0  0  0  0  0  0  0
    0.0688    6.3578    6.0282 H   0  0  0  0  0  0  0  0  0  0  0  0
   -2.4548    6.5046    9.5165 H   0  0  0  0  0  0  0  0  0  0  0  0
   -1.5046    7.9556    9.8564 H   0  0  0  0  0  0  0  0  0  0  0  0
   -1.1097    6.4436   10.6736 H   0  0  0  0  0  0  0  0  0  0  0  0
    1.5200    3.0199    7.1455 H   0  0  0  0  0  0  0  0  0  0  0  0
    1.9773    1.3768   10.0372 H   0  0  0  0  0  0  0  0  0  0  0  0
    1.8285    1.0562    8.3526 H   0  0  0  0  0  0  0  0  0  0  0  0
    0.5798    0.5407    9.4945 H   0  0  0  0  0  0  0  0  0  0  0  0
    1.6313    3.3124   10.8288 H   0  0  0  0  0  0  0  0  0  0  0  0
    0.8382    4.6351   10.0912 H   0  0  0  0  0  0  0  0  0  0  0  0
    2.2886    3.9880    9.3332 H   0  0  0  0  0  0  0  0  0  0  0  0
   -0.9667    2.0719   10.4699 H   0  0  0  0  0  0  0  0  0  0  0  0
   -1.2041    3.6808    9.9684 H   0  0  0  0  0  0  0  0  0  0  0  0
   -2.2115    1.1874    8.7785 H   0  0  0  0  0  0  0  0  0  0  0  0
   -3.0136    2.6940    8.9699 H   0  0  0  0  0  0  0  0  0  0  0  0
   -2.6155    1.8348    6.5917 H   0  0  0  0  0  0  0  0  0  0  0  0
   -1.9387    4.3989    7.1940 H   0  0  0  0  0  0  0  0  0  0  0  0
   -0.5642    0.2277    7.7918 H   0  0  0  0  0  0  0  0  0  0  0  0
   -1.2366   -1.4178    6.2527 H   0  0  0  0  0  0  0  0  0  0  0  0
   -2.4038   -0.1675    6.2799 H   0  0  0  0  0  0  0  0  0  0  0  0
   -1.3257   -1.2346    4.0387 H   0  0  0  0  0  0  0  0  0  0  0  0
   -2.1666    0.2772    4.1736 H   0  0  0  0  0  0  0  0  0  0  0  0
    0.1318    1.0245    1.6411 H   0  0  0  0  0  0  0  0  0  0  0  0
   -1.1997    1.8636    2.4602 H   0  0  0  0  0  0  0  0  0  0  0  0
   -1.2733    0.1797    2.0621 H   0  0  0  0  0  0  0  0  0  0  0  0
    1.2916    1.4915    5.6978 H   0  0  0  0  0  0  0  0  0  0  0  0
   -1.1866    2.4439    4.5856 H   0  0  0  0  0  0  0  0  0  0  0  0
   -0.1816    4.2596    2.3780 H   0  0  0  0  0  0  0  0  0  0  0  0
    1.0016    2.8259    2.0070 H   0  0  0  0  0  0  0  0  0  0  0  0
    2.2431    4.4103    1.9623 H   0  0  0  0  0  0  0  0  0  0  0  0
    3.8168    1.8381    2.4978 H   0  0  0  0  0  0  0  0  0  0  0  0
    2.8736    0.7558    5.0707 H   0  0  0  0  0  0  0  0  0  0  0  0
    5.5264    4.3016    5.3699 H   0  0  0  0  0  0  0  0  0  0  0  0
    5.7305    3.5652    6.9649 H   0  0  0  0  0  0  0  0  0  0  0  0
    4.2614    4.4745    6.6013 H   0  0  0  0  0  0  0  0  0  0  0  0
    1.2838   -0.5693    1.8087 H   0  0  0  0  0  0  0  0  0  0  0  0
    0.8034   -1.8362    4.9657 H   0  0  0  0  0  0  0  0  0  0  0  0
    2.3818   -1.2532    5.2653 H   0  0  0  0  0  0  0  0  0  0  0  0
  1  2  1  0
  1 41  1  0
  1 42  1  0
  1 43  1  0
  2  3  1  0
  3 26  1  0
  3  4  1  0
  3 44  1  6
  4  5  2  0
  4 45  1  0
  5  6  1  0
  5 10  1  0
  6  7  1  0
  7  8  1  0
  7  9  2  0
  8 46  1  0
  8 47  1  0
  8 48  1  0
 10 18  1  0
 10 11  1  0
 10 49  1  6
 11 12  1  0
 11 13  1  0
 11 14  1  0
 12 50  1  0
 12 51  1  0
 12 52  1  0
 13 53  1  0
 13 54  1  0
 13 55  1  0
 14 15  1  0
 14 56  1  0
 14 57  1  0
 15 16  1  0
 15 58  1  0
 15 59  1  0
 16 17  1  0
 18 16  1  1
 16 60  1  6
 17 61  1  0
 18 25  1  0
 18 19  1  0
 19 40  1  0
 19 20  1  0
 19 62  1  1
 20 21  1  0
 20 63  1  0
 20 64  1  0
 21 22  1  0
 21 65  1  0
 21 66  1  0
 22 37  1  0
 22 23  1  6
 22 24  1  0
 23 67  1  0
 23 68  1  0
 23 69  1  0
 24 32  1  0
 24 25  1  0
 24 70  1  1
 25 26  1  0
 25 71  1  6
 26 27  1  6
 26 28  1  0
 27 72  1  0
 28 29  1  0
 28 30  1  0
 28 73  1  6
 29 74  1  0
 30 31  1  6
 30 32  1  0
 30 37  1  0
 31 75  1  0
 32 33  1  0
 32 76  1  1
 33 34  1  0
 34 35  1  0
 34 36  2  0
 35 77  1  0
 35 78  1  0
 35 79  1  0
 37 38  1  6
 37 39  1  0
 38 80  1  0
 39 40  1  0
 39 81  1  0
 39 82  1  0
M  END
>  <i_m_ct_stereo_status>  (6) 
1

>  <s_m_source_file>  (6) 
/var/tmp/pbs.5076255.sched01/tmpnm8fzmj1/0q4giu30i.sdf

>  <i_m_source_file_index>  (6) 
3

>  <i_lp_mmshare_version>  (6) 
48012

>  <i_f3d_flags>  (6) 
0

>  <s_epik_input>  (6) 
W09IXVtDQEBIXTFbQ0gyXVtDSDJdQyhbQ0gzXSkoW0NIM10pW0NAQEhdKFtDQF0xMjMpQyhPQyg9TylbQ0gzXSk9W0NIXVtDQEBIXShPW0NIM10pW0NAXTQoW09IXSlbQ0BIXTNbQ0BIXTVbQ0BAXTYoW0NIM10pW0NAQF0oW09IXSkoW0NAQF0oW09IXSkoW0NAQEhdNFtPSF0pW0NASF01T0MoPU8pW0NIM10pW0NIMl1PW0NAQEhdMltDSDJdW0NIMl02

>  <s_epik_cmdline>  (6) 
J2VwaWtfcHl0aG9uJywgJy1waHQnLCAnMi4wJywgJy1waCcsICc3LjAnLCAnLXRuJywgJzgnLCAnLW1hJywgJzIwMCcsICctaW1hZScsICc8aW5maWxlLm1hZT4nLCAnLW9tYWUnLCAnPG91dGZpbGUubWFlPic=

>  <r_lp_tautomer_probability>  (6) 
1

>  <r_epik_Ionization_Penalty>  (6) 
1.77201e-06

>  <r_epik_Ionization_Penalty_Charging>  (6) 
0

>  <r_epik_Ionization_Penalty_Neutral>  (6) 
1.77201e-06

>  <r_epik_State_Penalty>  (6) 
-0

>  <r_epik_Charging_Adjusted_Penalty>  (6) 
0

>  <i_epik_Tot_Q>  (6) 
0

>  <i_epik_Tot_abs_Q>  (6) 
0

>  <s_epik_Chemistry_Notes>  (6) 
This compound has an ester and may undergo hydrolysis at high or low pH.

>  <s_lp_Force_Field>  (6) 
OPLS3e

>  <r_lp_Energy>  (6) 
395.435

>  <b_lp_Chiralities_Consistent>  (6) 
1

>  <s_lp_Variant>  (6) 
2:0-1

>  <s_i_glide_gridfile>  (6) 
pfpi4k_grid

>  <i_i_glide_lignum>  (6) 
3

>  <i_i_glide_rotatable_bonds>  (6) 
10

>  <r_i_docking_score>  (6) 
-2.26104

>  <r_i_glide_ligand_efficiency>  (6) 
-0.0565261

>  <r_i_glide_ligand_efficiency_sa>  (6) 
-0.193316

>  <r_i_glide_ligand_efficiency_ln>  (6) 
-0.482214

>  <r_i_glide_gscore>  (6) 
-2.26104

>  <r_i_glide_lipo>  (6) 
-0.0451759

>  <r_i_glide_hbond>  (6) 
0

>  <r_i_glide_metal>  (6) 
-0

>  <r_i_glide_rewards>  (6) 
-0.00105346

>  <r_i_glide_evdw>  (6) 
-21.262

>  <r_i_glide_ecoul>  (6) 
-7.95913

>  <r_i_glide_erotb>  (6) 
0.0432777

>  <r_i_glide_esite>  (6) 
-0.00112334

>  <r_i_glide_emodel>  (6) 
-31.6595

>  <r_i_glide_energy>  (6) 
-29.2211

>  <r_i_glide_einternal>  (6) 
3.62482

>  <r_i_glide_intrahb_reward>  (6) 
-0

>  <i_i_glide_confnum>  (6) 
2

>  <i_i_glide_posenum>  (6) 
6

>  <r_i_glide_eff_state_penalty>  (6) 
0

>  <ligand_id>  (6) 
2

>  <original_smiles>  (6) 
COC1C=C(OC(C)=O)C2C(C)(C)CCC(O)C23C2CCC4(C)C5C3C1(O)C(O)C(O)(C5OC(C)=O)C4(O)CO2

>  <smiles>  (6) 
[H]OC1([H])C2(O[H])C([H])(OC([H])([H])[H])C([H])=C(OC(=O)C([H])([H])[H])C3([H])C(C([H])([H])[H])(C([H])([H])[H])C([H])([H])C([H])([H])C([H])(O[H])C34C3([H])OC([H])([H])C5(O[H])C1(O[H])C([H])(OC(=O)C([H])([H])[H])C([H])(C24[H])C5(C([H])([H])[H])C([H])([H])C3([H])[H]

$$$$
3:0:0
     RDKit          3D

 61 68  0  0  1  0  0  0  0  0999 V2000
    4.5190   -3.0651   -2.7520 C   0  0  0  0  0  0  0  0  0  0  0  0
    4.9243   -3.4810   -1.3429 C   0  0  0  0  0  0  0  0  0  0  0  0
    4.2492   -4.3445   -0.5480 C   0  0  0  0  0  0  0  0  0  0  0  0
    2.9673   -3.6879   -0.2270 C   0  0  0  0  0  0  0  0  0  0  0  0
    1.9068   -3.9179   -0.7978 O   0  0  0  0  0  0  0  0  0  0  0  0
    3.1544   -2.7045    0.7452 O   0  0  0  0  0  0  0  0  0  0  0  0
    4.2330   -2.8852    1.6790 C   0  0  1  0  0  0  0  0  0  0  0  0
    4.2159   -1.9988    2.7626 O   0  0  0  0  0  0  0  0  0  0  0  0
    3.1417   -1.7779    3.6847 C   0  0  2  0  0  0  0  0  0  0  0  0
    1.7197   -2.2405    3.2493 C   0  0  0  0  0  0  0  0  0  0  0  0
    1.1735   -1.1099    2.3599 C   0  0  0  0  0  0  0  0  0  0  0  0
    2.0805   -0.0031    2.5578 N   0  0  0  0  0  0  0  0  0  0  0  0
    1.7166    1.2975    2.0282 C   0  0  0  0  0  0  0  0  0  0  0  0
    2.8686   -0.2838    3.6505 C   0  0  0  0  0  0  0  0  0  0  0  0
    2.9958    0.5489    4.6951 C   0  0  0  0  0  0  0  0  0  0  0  0
    3.4800    0.1185    6.0620 C   0  0  0  0  0  0  0  0  0  0  0  0
    3.3333   -1.3992    6.2483 C   0  0  0  0  0  0  0  0  0  0  0  0
    3.0756   -1.8568    7.3621 O   0  0  0  0  0  0  0  0  0  0  0  0
    3.7159   -2.3055    5.0507 C   0  0  2  0  0  0  0  0  0  0  0  0
    5.2776   -2.1968    5.0947 C   0  0  0  0  0  0  0  0  0  0  0  0
    3.3152   -3.7868    5.2382 C   0  0  0  0  0  0  0  0  0  0  0  0
    2.2506   -4.3496    5.8283 C   0  0  0  0  0  0  0  0  0  0  0  0
    0.9811   -3.7707    6.4310 C   0  0  0  0  0  0  0  0  0  0  0  0
    2.4715   -5.7964    5.9110 C   0  0  0  0  0  0  0  0  0  0  0  0
    1.7152   -6.6285    6.3989 O   0  0  0  0  0  0  0  0  0  0  0  0
    3.6751   -6.0459    5.3849 O   0  0  0  0  0  0  0  0  0  0  0  0
    4.2478   -4.8902    4.7888 C   0  0  1  0  0  0  0  0  0  0  0  0
    4.3150   -5.2246    3.2963 C   0  0  1  0  0  0  0  0  0  0  0  0
    3.0985   -5.0147    2.5455 O   0  0  0  0  0  0  0  0  0  0  0  0
    4.2700   -4.3820    2.0244 C   0  0  1  0  0  0  0  0  0  0  0  0
    4.9248   -4.8777    0.7639 C   0  0  2  0  0  0  0  0  0  0  0  0
    6.2520   -4.1459    0.9924 C   0  0  0  0  0  0  0  0  0  0  0  0
    5.6810   -2.7169    0.9609 C   0  0  2  0  0  0  0  0  0  0  0  0
    6.5434   -1.8106    1.6124 O   0  0  0  0  0  0  0  0  0  0  0  0
    5.6524   -2.4495   -0.5605 C   0  0  0  0  0  0  0  0  0  0  0  0
    6.2032   -1.4669   -1.0515 O   0  0  0  0  0  0  0  0  0  0  0  0
    5.3284   -3.3326   -3.4308 H   0  0  0  0  0  0  0  0  0  0  0  0
    4.3501   -1.9923   -2.8455 H   0  0  0  0  0  0  0  0  0  0  0  0
    3.6231   -3.5874   -3.0891 H   0  0  0  0  0  0  0  0  0  0  0  0
    1.6366   -3.2220    2.7944 H   0  0  0  0  0  0  0  0  0  0  0  0
    1.0795   -2.2676    4.1258 H   0  0  0  0  0  0  0  0  0  0  0  0
    1.1233   -1.3916    1.3126 H   0  0  0  0  0  0  0  0  0  0  0  0
    0.1808   -0.8085    2.6914 H   0  0  0  0  0  0  0  0  0  0  0  0
    2.5835    1.9566    2.0461 H   0  0  0  0  0  0  0  0  0  0  0  0
    0.9147    1.7610    2.6036 H   0  0  0  0  0  0  0  0  0  0  0  0
    1.3845    1.2002    0.9951 H   0  0  0  0  0  0  0  0  0  0  0  0
    2.6283    1.5604    4.6264 H   0  0  0  0  0  0  0  0  0  0  0  0
    4.5092    0.4425    6.2064 H   0  0  0  0  0  0  0  0  0  0  0  0
    2.8688    0.6201    6.8151 H   0  0  0  0  0  0  0  0  0  0  0  0
    5.6708   -2.5323    6.0556 H   0  0  0  0  0  0  0  0  0  0  0  0
    5.6206   -1.1710    4.9426 H   0  0  0  0  0  0  0  0  0  0  0  0
    5.7890   -2.7937    4.3362 H   0  0  0  0  0  0  0  0  0  0  0  0
    0.9297   -4.0079    7.4940 H   0  0  0  0  0  0  0  0  0  0  0  0
    0.1176   -4.2243    5.9452 H   0  0  0  0  0  0  0  0  0  0  0  0
    0.8900   -2.6917    6.3186 H   0  0  0  0  0  0  0  0  0  0  0  0
    5.2581   -4.7588    5.1819 H   0  0  0  0  0  0  0  0  0  0  0  0
    4.7178   -6.2197    3.1433 H   0  0  0  0  0  0  0  0  0  0  0  0
    5.0282   -5.9594    0.7592 H   0  0  0  0  0  0  0  0  0  0  0  0
    6.7089   -4.3964    1.9503 H   0  0  0  0  0  0  0  0  0  0  0  0
    6.9948   -4.3569    0.2189 H   0  0  0  0  0  0  0  0  0  0  0  0
    6.1373   -0.9603    1.5750 H   0  0  0  0  0  0  0  0  0  0  0  0
  1  2  1  0
  1 37  1  0
  1 38  1  0
  1 39  1  0
  2 35  1  0
  2  3  2  0
  3 31  1  0
  3  4  1  0
  4  5  2  0
  4  6  1  0
  7  6  1  6
  7 30  1  0
  7 33  1  0
  7  8  1  0
  9  8  1  6
  9 14  1  0
  9 19  1  0
  9 10  1  0
 10 11  1  0
 10 40  1  0
 10 41  1  0
 11 12  1  0
 11 42  1  0
 11 43  1  0
 12 13  1  0
 12 14  1  0
 13 44  1  0
 13 45  1  0
 13 46  1  0
 14 15  2  0
 15 16  1  0
 15 47  1  0
 16 17  1  0
 16 48  1  0
 16 49  1  0
 17 18  2  0
 17 19  1  0
 19 20  1  6
 19 21  1  0
 20 50  1  0
 20 51  1  0
 20 52  1  0
 21 27  1  0
 21 22  2  0
 22 23  1  0
 22 24  1  0
 23 53  1  0
 23 54  1  0
 23 55  1  0
 24 25  2  0
 24 26  1  0
 26 27  1  0
 27 28  1  0
 27 56  1  1
 28 30  1  0
 28 29  1  0
 28 57  1  1
 30 29  1  6
 30 31  1  0
 31 32  1  0
 31 58  1  6
 32 33  1  0
 32 59  1  0
 32 60  1  0
 33 34  1  1
 33 35  1  0
 34 61  1  0
 35 36  2  0
M  END
>  <i_m_ct_stereo_status>  (7) 
1

>  <s_m_source_file>  (7) 
/var/tmp/pbs.5076255.sched01/tmpnm8fzmj1/0q4giu30i.sdf

>  <i_m_source_file_index>  (7) 
4

>  <i_lp_mmshare_version>  (7) 
48012

>  <i_f3d_flags>  (7) 
0

>  <s_epik_input>  (7) 
W0NIMl0xW0NAQF0yKFtPSF0pQyg9TylDKFtDSDNdKT1DKEMoPU8pTzMpW0NAQEhdMVtDQF00KFtDQEBdMjM1KVtDQEhdKE80KVtDQEhdNkMoPUMoW0NIM10pQyg9TylPNilbQ0BAXTcoW0NIM10pW0NAXTgoTzUpQyhOKFtDSDNdKVtDSDJdW0NIMl04KT1bQ0hdW0NIMl1DNz1P

>  <s_epik_cmdline>  (7) 
J2VwaWtfcHl0aG9uJywgJy1waHQnLCAnMi4wJywgJy1waCcsICc3LjAnLCAnLXRuJywgJzgnLCAnLW1hJywgJzIwMCcsICctaW1hZScsICc8aW5maWxlLm1hZT4nLCAnLW9tYWUnLCAnPG91dGZpbGUubWFlPic=

>  <r_lp_tautomer_probability>  (7) 
0.999841

>  <r_epik_Ionization_Penalty>  (7) 
0.38187

>  <r_epik_Ionization_Penalty_Charging>  (7) 
0.351896

>  <r_epik_Ionization_Penalty_Neutral>  (7) 
0.0299743

>  <r_epik_State_Penalty>  (7) 
0.364821

>  <r_epik_Charging_Adjusted_Penalty>  (7) 
0.716717

>  <i_epik_Tot_Q>  (7) 
0

>  <i_epik_Tot_abs_Q>  (7) 
0

>  <s_epik_Chemistry_Notes>  (7) 
This compound has an ester and may undergo hydrolysis at high or low pH. This compound has an imine and may undergo hydrolysis.

>  <s_lp_Force_Field>  (7) 
OPLS3e

>  <r_lp_Energy>  (7) 
150.374

>  <b_lp_Chiralities_Consistent>  (7) 
1

>  <s_lp_Variant>  (7) 
3:0-1

>  <s_i_glide_gridfile>  (7) 
pfpi4k_grid

>  <i_i_glide_lignum>  (7) 
4

>  <i_i_glide_rotatable_bonds>  (7) 
1

>  <r_i_docking_score>  (7) 
-2.22051

>  <r_i_glide_ligand_efficiency>  (7) 
-0.0616809

>  <r_i_glide_ligand_efficiency_sa>  (7) 
-0.203666

>  <r_i_glide_ligand_efficiency_ln>  (7) 
-0.484456

>  <r_i_glide_gscore>  (7) 
-2.22051

>  <r_i_glide_lipo>  (7) 
-0.378158

>  <r_i_glide_hbond>  (7) 
-0.125096

>  <r_i_glide_metal>  (7) 
-0

>  <r_i_glide_rewards>  (7) 
-0.0422523

>  <r_i_glide_evdw>  (7) 
-21.9603

>  <r_i_glide_ecoul>  (7) 
-3.5392

>  <r_i_glide_erotb>  (7) 
0

>  <r_i_glide_esite>  (7) 
-0.0461093

>  <r_i_glide_emodel>  (7) 
-27.394

>  <r_i_glide_energy>  (7) 
-25.4995

>  <r_i_glide_einternal>  (7) 
1.60206

>  <r_i_glide_intrahb_reward>  (7) 
-0

>  <i_i_glide_confnum>  (7) 
1

>  <i_i_glide_posenum>  (7) 
25

>  <r_i_glide_eff_state_penalty>  (7) 
0

>  <ligand_id>  (7) 
3

>  <original_smiles>  (7) 
CC1=C2C(=O)OC34OC56CCN(C)C5=CCC(=O)C6(C)C5=C(C)C(=O)OC5C5OC53C2CC4(O)C1=O

>  <smiles>  (7) 
[H]OC12C(=O)C(C([H])([H])[H])=C3C(=O)OC14OC15C(=C([H])C([H])([H])C(=O)C1(C([H])([H])[H])C1=C(C([H])([H])[H])C(=O)OC1([H])C1([H])OC14C3([H])C2([H])[H])N(C([H])([H])[H])C([H])([H])C5([H])[H]

$$$$
3:0:1
     RDKit          3D

 61 68  0  0  1  0  0  0  0  0999 V2000
    4.5846   -2.6295   -2.9202 C   0  0  0  0  0  0  0  0  0  0  0  0
    4.9227   -3.2921   -1.5954 C   0  0  0  0  0  0  0  0  0  0  0  0
    4.1696   -4.2290   -0.9588 C   0  0  0  0  0  0  0  0  0  0  0  0
    2.9210   -3.5497   -0.5636 C   0  0  0  0  0  0  0  0  0  0  0  0
    1.8603   -3.6348   -1.1755 O   0  0  0  0  0  0  0  0  0  0  0  0
    3.1368   -2.7524    0.5631 O   0  0  0  0  0  0  0  0  0  0  0  0
    4.1733   -3.1553    1.4727 C   0  0  1  0  0  0  0  0  0  0  0  0
    4.1757   -2.4660    2.6892 O   0  0  0  0  0  0  0  0  0  0  0  0
    3.0775   -2.3197    3.6023 C   0  0  2  0  0  0  0  0  0  0  0  0
    1.6427   -2.6136    3.0693 C   0  0  0  0  0  0  0  0  0  0  0  0
    1.1878   -1.3250    2.3657 C   0  0  0  0  0  0  0  0  0  0  0  0
    2.1562   -0.3243    2.7498 N   0  0  0  0  0  0  0  0  0  0  0  0
    1.8884    1.0653    2.4278 C   0  0  0  0  0  0  0  0  0  0  0  0
    2.8874   -0.8248    3.8034 C   0  0  0  0  0  0  0  0  0  0  0  0
    3.0278   -0.1812    4.9732 C   0  0  0  0  0  0  0  0  0  0  0  0
    3.4392   -0.8593    6.2622 C   0  0  0  0  0  0  0  0  0  0  0  0
    3.2030   -2.3755    6.1949 C   0  0  0  0  0  0  0  0  0  0  0  0
    2.8839   -2.9901    7.2127 O   0  0  0  0  0  0  0  0  0  0  0  0
    3.5761   -3.0976    4.8753 C   0  0  2  0  0  0  0  0  0  0  0  0
    5.1390   -3.0960    4.9729 C   0  0  0  0  0  0  0  0  0  0  0  0
    3.0838   -4.5623    4.8060 C   0  0  0  0  0  0  0  0  0  0  0  0
    1.9687   -5.1456    5.2712 C   0  0  0  0  0  0  0  0  0  0  0  0
    0.7131   -4.5960    5.9302 C   0  0  0  0  0  0  0  0  0  0  0  0
    2.1017   -6.5985    5.1210 C   0  0  0  0  0  0  0  0  0  0  0  0
    1.2813   -7.4502    5.4447 O   0  0  0  0  0  0  0  0  0  0  0  0
    3.3070   -6.8343    4.5900 O   0  0  0  0  0  0  0  0  0  0  0  0
    3.9636   -5.6359    4.2040 C   0  0  1  0  0  0  0  0  0  0  0  0
    4.0568   -5.7290    2.6782 C   0  0  1  0  0  0  0  0  0  0  0  0
    2.8811   -5.3221    1.9407 O   0  0  0  0  0  0  0  0  0  0  0  0
    4.1056   -4.6889    1.5638 C   0  0  1  0  0  0  0  0  0  0  0  0
    4.7752   -5.0112    0.2543 C   0  0  2  0  0  0  0  0  0  0  0  0
    6.1346   -4.4166    0.6289 C   0  0  0  0  0  0  0  0  0  0  0  0
    5.6477   -2.9650    0.8170 C   0  0  2  0  0  0  0  0  0  0  0  0
    6.5496   -2.2248    1.6109 O   0  0  0  0  0  0  0  0  0  0  0  0
    5.6698   -2.4419   -0.6355 C   0  0  0  0  0  0  0  0  0  0  0  0
    6.2222   -1.3967   -0.9342 O   0  0  0  0  0  0  0  0  0  0  0  0
    5.4016   -2.8382   -3.6081 H   0  0  0  0  0  0  0  0  0  0  0  0
    4.4822   -1.5444   -2.8499 H   0  0  0  0  0  0  0  0  0  0  0  0
    3.6730   -3.0350   -3.3602 H   0  0  0  0  0  0  0  0  0  0  0  0
    1.5201   -3.5053    2.4602 H   0  0  0  0  0  0  0  0  0  0  0  0
    0.9721   -2.7478    3.9134 H   0  0  0  0  0  0  0  0  0  0  0  0
    1.1476   -1.4330    1.2863 H   0  0  0  0  0  0  0  0  0  0  0  0
    0.2131   -1.0172    2.7249 H   0  0  0  0  0  0  0  0  0  0  0  0
    2.7909    1.6596    2.5748 H   0  0  0  0  0  0  0  0  0  0  0  0
    1.0947    1.4774    3.0527 H   0  0  0  0  0  0  0  0  0  0  0  0
    1.5927    1.1695    1.3840 H   0  0  0  0  0  0  0  0  0  0  0  0
    2.7194    0.8489    5.0632 H   0  0  0  0  0  0  0  0  0  0  0  0
    4.4798   -0.6270    6.4786 H   0  0  0  0  0  0  0  0  0  0  0  0
    2.8351   -0.4516    7.0758 H   0  0  0  0  0  0  0  0  0  0  0  0
    5.4814   -3.6087    5.8726 H   0  0  0  0  0  0  0  0  0  0  0  0
    5.5452   -2.0823    4.9996 H   0  0  0  0  0  0  0  0  0  0  0  0
    5.6396   -3.5941    4.1404 H   0  0  0  0  0  0  0  0  0  0  0  0
    0.6144   -4.9987    6.9377 H   0  0  0  0  0  0  0  0  0  0  0  0
   -0.1582   -4.9122    5.3580 H   0  0  0  0  0  0  0  0  0  0  0  0
    0.6860   -3.5099    5.9919 H   0  0  0  0  0  0  0  0  0  0  0  0
    4.9660   -5.6334    4.6344 H   0  0  0  0  0  0  0  0  0  0  0  0
    4.4064   -6.7114    2.3716 H   0  0  0  0  0  0  0  0  0  0  0  0
    4.8137   -6.0808    0.0662 H   0  0  0  0  0  0  0  0  0  0  0  0
    6.5456   -4.8509    1.5417 H   0  0  0  0  0  0  0  0  0  0  0  0
    6.8897   -4.5414   -0.1519 H   0  0  0  0  0  0  0  0  0  0  0  0
    6.5358   -2.5800    2.4829 H   0  0  0  0  0  0  0  0  0  0  0  0
  1  2  1  0
  1 37  1  0
  1 38  1  0
  1 39  1  0
  2 35  1  0
  2  3  2  0
  3 31  1  0
  3  4  1  0
  4  5  2  0
  4  6  1  0
  7  6  1  6
  7 30  1  0
  7 33  1  0
  7  8  1  0
  9  8  1  6
  9 14  1  0
  9 19  1  0
  9 10  1  0
 10 11  1  0
 10 40  1  0
 10 41  1  0
 11 12  1  0
 11 42  1  0
 11 43  1  0
 12 13  1  0
 12 14  1  0
 13 44  1  0
 13 45  1  0
 13 46  1  0
 14 15  2  0
 15 16  1  0
 15 47  1  0
 16 17  1  0
 16 48  1  0
 16 49  1  0
 17 18  2  0
 17 19  1  0
 19 20  1  6
 19 21  1  0
 20 50  1  0
 20 51  1  0
 20 52  1  0
 21 27  1  0
 21 22  2  0
 22 23  1  0
 22 24  1  0
 23 53  1  0
 23 54  1  0
 23 55  1  0
 24 25  2  0
 24 26  1  0
 26 27  1  0
 27 28  1  0
 27 56  1  1
 28 30  1  0
 28 29  1  0
 28 57  1  1
 30 29  1  6
 30 31  1  0
 31 32  1  0
 31 58  1  6
 32 33  1  0
 32 59  1  0
 32 60  1  0
 33 34  1  1
 33 35  1  0
 34 61  1  0
 35 36  2  0
M  END
>  <i_m_ct_stereo_status>  (8) 
1

>  <s_m_source_file>  (8) 
/var/tmp/pbs.5076255.sched01/tmpnm8fzmj1/0q4giu30i.sdf

>  <i_m_source_file_index>  (8) 
4

>  <i_lp_mmshare_version>  (8) 
48012

>  <i_f3d_flags>  (8) 
0

>  <s_epik_input>  (8) 
W0NIMl0xW0NAQF0yKFtPSF0pQyg9TylDKFtDSDNdKT1DKEMoPU8pTzMpW0NAQEhdMVtDQF00KFtDQEBdMjM1KVtDQEhdKE80KVtDQEhdNkMoPUMoW0NIM10pQyg9TylPNilbQ0BAXTcoW0NIM10pW0NAXTgoTzUpQyhOKFtDSDNdKVtDSDJdW0NIMl04KT1bQ0hdW0NIMl1DNz1P

>  <s_epik_cmdline>  (8) 
J2VwaWtfcHl0aG9uJywgJy1waHQnLCAnMi4wJywgJy1waCcsICc3LjAnLCAnLXRuJywgJzgnLCAnLW1hJywgJzIwMCcsICctaW1hZScsICc8aW5maWxlLm1hZT4nLCAnLW9tYWUnLCAnPG91dGZpbGUubWFlPic=

>  <r_lp_tautomer_probability>  (8) 
0.999841

>  <r_epik_Ionization_Penalty>  (8) 
0.38187

>  <r_epik_Ionization_Penalty_Charging>  (8) 
0.351896

>  <r_epik_Ionization_Penalty_Neutral>  (8) 
0.0299743

>  <r_epik_State_Penalty>  (8) 
0.364821

>  <r_epik_Charging_Adjusted_Penalty>  (8) 
0.716717

>  <i_epik_Tot_Q>  (8) 
0

>  <i_epik_Tot_abs_Q>  (8) 
0

>  <s_epik_Chemistry_Notes>  (8) 
This compound has an ester and may undergo hydrolysis at high or low pH. This compound has an imine and may undergo hydrolysis.

>  <s_lp_Force_Field>  (8) 
OPLS3e

>  <r_lp_Energy>  (8) 
150.374

>  <b_lp_Chiralities_Consistent>  (8) 
1

>  <s_lp_Variant>  (8) 
3:0-1

>  <s_i_glide_gridfile>  (8) 
pfpi4k_grid

>  <i_i_glide_lignum>  (8) 
4

>  <i_i_glide_rotatable_bonds>  (8) 
1

>  <r_i_docking_score>  (8) 
-2.10368

>  <r_i_glide_ligand_efficiency>  (8) 
-0.0584355

>  <r_i_glide_ligand_efficiency_sa>  (8) 
-0.19295

>  <r_i_glide_ligand_efficiency_ln>  (8) 
-0.458966

>  <r_i_glide_gscore>  (8) 
-2.10368

>  <r_i_glide_lipo>  (8) 
-0.4352

>  <r_i_glide_hbond>  (8) 
-0.124957

>  <r_i_glide_metal>  (8) 
-0

>  <r_i_glide_rewards>  (8) 
-0.0421873

>  <r_i_glide_evdw>  (8) 
-21.1905

>  <r_i_glide_ecoul>  (8) 
-2.69258

>  <r_i_glide_erotb>  (8) 
0

>  <r_i_glide_esite>  (8) 
-0.0379232

>  <r_i_glide_emodel>  (8) 
-26.3173

>  <r_i_glide_energy>  (8) 
-23.883

>  <r_i_glide_einternal>  (8) 
0.00343015

>  <r_i_glide_intrahb_reward>  (8) 
-0

>  <i_i_glide_confnum>  (8) 
2

>  <i_i_glide_posenum>  (8) 
20

>  <r_i_glide_eff_state_penalty>  (8) 
0

>  <ligand_id>  (8) 
3

>  <original_smiles>  (8) 
CC1=C2C(=O)OC34OC56CCN(C)C5=CCC(=O)C6(C)C5=C(C)C(=O)OC5C5OC53C2CC4(O)C1=O

>  <smiles>  (8) 
[H]OC12C(=O)C(C([H])([H])[H])=C3C(=O)OC14OC15C(=C([H])C([H])([H])C(=O)C1(C([H])([H])[H])C1=C(C([H])([H])[H])C(=O)OC1([H])C1([H])OC14C3([H])C2([H])[H])N(C([H])([H])[H])C([H])([H])C5([H])[H]

$$$$
3:0:2
     RDKit          3D

 61 68  0  0  1  0  0  0  0  0999 V2000
    4.5955   -2.6111   -2.8937 C   0  0  0  0  0  0  0  0  0  0  0  0
    4.9150   -3.3055   -1.5761 C   0  0  0  0  0  0  0  0  0  0  0  0
    4.1514   -4.2473   -0.9782 C   0  0  0  0  0  0  0  0  0  0  0  0
    2.9006   -3.5670   -0.5820 C   0  0  0  0  0  0  0  0  0  0  0  0
    1.8483   -3.6287   -1.2129 O   0  0  0  0  0  0  0  0  0  0  0  0
    3.1063   -2.7971    0.5634 O   0  0  0  0  0  0  0  0  0  0  0  0
    4.1225   -3.2315    1.4800 C   0  0  1  0  0  0  0  0  0  0  0  0
    4.1166   -2.5662    2.7090 O   0  0  0  0  0  0  0  0  0  0  0  0
    3.0173   -2.4277    3.6171 C   0  0  2  0  0  0  0  0  0  0  0  0
    1.5878   -2.6984    3.0612 C   0  0  0  0  0  0  0  0  0  0  0  0
    1.1608   -1.3850    2.3717 C   0  0  0  0  0  0  0  0  0  0  0  0
    2.1307   -0.4036    2.8010 N   0  0  0  0  0  0  0  0  0  0  0  0
    1.8807    0.9974    2.5036 C   0  0  0  0  0  0  0  0  0  0  0  0
    2.8448   -0.9365    3.8494 C   0  0  0  0  0  0  0  0  0  0  0  0
    2.9796   -0.3199    5.0354 C   0  0  0  0  0  0  0  0  0  0  0  0
    3.3690   -1.0285    6.3103 C   0  0  0  0  0  0  0  0  0  0  0  0
    3.1151   -2.5411    6.2074 C   0  0  0  0  0  0  0  0  0  0  0  0
    2.7777   -3.1721    7.2068 O   0  0  0  0  0  0  0  0  0  0  0  0
    3.4927   -3.2374    4.8744 C   0  0  2  0  0  0  0  0  0  0  0  0
    5.0554   -3.2549    4.9880 C   0  0  0  0  0  0  0  0  0  0  0  0
    2.9877   -4.6938    4.7707 C   0  0  0  0  0  0  0  0  0  0  0  0
    1.8583   -5.2763    5.2122 C   0  0  0  0  0  0  0  0  0  0  0  0
    0.6053   -4.7257    5.8694 C   0  0  0  0  0  0  0  0  0  0  0  0
    1.9806   -6.7243    5.0307 C   0  0  0  0  0  0  0  0  0  0  0  0
    1.1443   -7.5739    5.3289 O   0  0  0  0  0  0  0  0  0  0  0  0
    3.1872   -6.9638    4.5087 O   0  0  0  0  0  0  0  0  0  0  0  0
    3.8614   -5.7641    4.1546 C   0  0  1  0  0  0  0  0  0  0  0  0
    3.9704   -5.8264    2.6296 C   0  0  1  0  0  0  0  0  0  0  0  0
    2.8090   -5.3919    1.8875 O   0  0  0  0  0  0  0  0  0  0  0  0
    4.0455   -4.7641    1.5379 C   0  0  1  0  0  0  0  0  0  0  0  0
    4.7248   -5.0659    0.2298 C   0  0  2  0  0  0  0  0  0  0  0  0
    6.0866   -4.5006    0.6302 C   0  0  0  0  0  0  0  0  0  0  0  0
    5.6088   -3.0510    0.8481 C   0  0  2  0  0  0  0  0  0  0  0  0
    6.5002   -2.3505    1.6769 O   0  0  0  0  0  0  0  0  0  0  0  0
    5.6657   -2.4935   -0.5880 C   0  0  0  0  0  0  0  0  0  0  0  0
    6.2883   -1.4632   -0.8527 O   0  0  0  0  0  0  0  0  0  0  0  0
    5.4139   -2.8199   -3.5790 H   0  0  0  0  0  0  0  0  0  0  0  0
    4.5050   -1.5283   -2.8026 H   0  0  0  0  0  0  0  0  0  0  0  0
    3.6835   -2.9989   -3.3507 H   0  0  0  0  0  0  0  0  0  0  0  0
    1.4634   -3.5724    2.4341 H   0  0  0  0  0  0  0  0  0  0  0  0
    0.9035   -2.8365    3.8941 H   0  0  0  0  0  0  0  0  0  0  0  0
    1.1345   -1.4636    1.2918 H   0  0  0  0  0  0  0  0  0  0  0  0
    0.1797   -1.0664    2.7367 H   0  0  0  0  0  0  0  0  0  0  0  0
    2.7874    1.5747    2.6725 H   0  0  0  0  0  0  0  0  0  0  0  0
    1.0845    1.4017    3.1294 H   0  0  0  0  0  0  0  0  0  0  0  0
    1.5956    1.1252    1.4583 H   0  0  0  0  0  0  0  0  0  0  0  0
    2.6805    0.7100    5.1400 H   0  0  0  0  0  0  0  0  0  0  0  0
    4.4094   -0.8125    6.5427 H   0  0  0  0  0  0  0  0  0  0  0  0
    2.7595   -0.6312    7.1242 H   0  0  0  0  0  0  0  0  0  0  0  0
    5.3821   -3.7877    5.8816 H   0  0  0  0  0  0  0  0  0  0  0  0
    5.4729   -2.2480    5.0390 H   0  0  0  0  0  0  0  0  0  0  0  0
    5.5601   -3.7381    4.1492 H   0  0  0  0  0  0  0  0  0  0  0  0
    0.4890   -5.1504    6.8676 H   0  0  0  0  0  0  0  0  0  0  0  0
   -0.2626   -5.0204    5.2797 H   0  0  0  0  0  0  0  0  0  0  0  0
    0.5899   -3.6409    5.9563 H   0  0  0  0  0  0  0  0  0  0  0  0
    4.8602   -5.7819    4.5955 H   0  0  0  0  0  0  0  0  0  0  0  0
    4.3120   -6.8047    2.3064 H   0  0  0  0  0  0  0  0  0  0  0  0
    4.7505   -6.1304    0.0187 H   0  0  0  0  0  0  0  0  0  0  0  0
    6.4809   -4.9549    1.5403 H   0  0  0  0  0  0  0  0  0  0  0  0
    6.8472   -4.6162   -0.1466 H   0  0  0  0  0  0  0  0  0  0  0  0
    7.3568   -2.4052    1.2805 H   0  0  0  0  0  0  0  0  0  0  0  0
  1  2  1  0
  1 37  1  0
  1 38  1  0
  1 39  1  0
  2 35  1  0
  2  3  2  0
  3 31  1  0
  3  4  1  0
  4  5  2  0
  4  6  1  0
  7  6  1  6
  7 30  1  0
  7 33  1  0
  7  8  1  0
  9  8  1  6
  9 14  1  0
  9 19  1  0
  9 10  1  0
 10 11  1  0
 10 40  1  0
 10 41  1  0
 11 12  1  0
 11 42  1  0
 11 43  1  0
 12 13  1  0
 12 14  1  0
 13 44  1  0
 13 45  1  0
 13 46  1  0
 14 15  2  0
 15 16  1  0
 15 47  1  0
 16 17  1  0
 16 48  1  0
 16 49  1  0
 17 18  2  0
 17 19  1  0
 19 20  1  6
 19 21  1  0
 20 50  1  0
 20 51  1  0
 20 52  1  0
 21 27  1  0
 21 22  2  0
 22 23  1  0
 22 24  1  0
 23 53  1  0
 23 54  1  0
 23 55  1  0
 24 25  2  0
 24 26  1  0
 26 27  1  0
 27 28  1  0
 27 56  1  1
 28 30  1  0
 28 29  1  0
 28 57  1  1
 30 29  1  6
 30 31  1  0
 31 32  1  0
 31 58  1  6
 32 33  1  0
 32 59  1  0
 32 60  1  0
 33 34  1  1
 33 35  1  0
 34 61  1  0
 35 36  2  0
M  END
>  <i_m_ct_stereo_status>  (9) 
1

>  <s_m_source_file>  (9) 
/var/tmp/pbs.5076255.sched01/tmpnm8fzmj1/0q4giu30i.sdf

>  <i_m_source_file_index>  (9) 
4

>  <i_lp_mmshare_version>  (9) 
48012

>  <i_f3d_flags>  (9) 
0

>  <s_epik_input>  (9) 
W0NIMl0xW0NAQF0yKFtPSF0pQyg9TylDKFtDSDNdKT1DKEMoPU8pTzMpW0NAQEhdMVtDQF00KFtDQEBdMjM1KVtDQEhdKE80KVtDQEhdNkMoPUMoW0NIM10pQyg9TylPNilbQ0BAXTcoW0NIM10pW0NAXTgoTzUpQyhOKFtDSDNdKVtDSDJdW0NIMl04KT1bQ0hdW0NIMl1DNz1P

>  <s_epik_cmdline>  (9) 
J2VwaWtfcHl0aG9uJywgJy1waHQnLCAnMi4wJywgJy1waCcsICc3LjAnLCAnLXRuJywgJzgnLCAnLW1hJywgJzIwMCcsICctaW1hZScsICc8aW5maWxlLm1hZT4nLCAnLW9tYWUnLCAnPG91dGZpbGUubWFlPic=

>  <r_lp_tautomer_probability>  (9) 
0.999841

>  <r_epik_Ionization_Penalty>  (9) 
0.38187

>  <r_epik_Ionization_Penalty_Charging>  (9) 
0.351896

>  <r_epik_Ionization_Penalty_Neutral>  (9) 
0.0299743

>  <r_epik_State_Penalty>  (9) 
0.364821

>  <r_epik_Charging_Adjusted_Penalty>  (9) 
0.716717

>  <i_epik_Tot_Q>  (9) 
0

>  <i_epik_Tot_abs_Q>  (9) 
0

>  <s_epik_Chemistry_Notes>  (9) 
This compound has an ester and may undergo hydrolysis at high or low pH. This compound has an imine and may undergo hydrolysis.

>  <s_lp_Force_Field>  (9) 
OPLS3e

>  <r_lp_Energy>  (9) 
150.374

>  <b_lp_Chiralities_Consistent>  (9) 
1

>  <s_lp_Variant>  (9) 
3:0-1

>  <s_i_glide_gridfile>  (9) 
pfpi4k_grid

>  <i_i_glide_lignum>  (9) 
4

>  <i_i_glide_rotatable_bonds>  (9) 
1

>  <r_i_docking_score>  (9) 
-2.09588

>  <r_i_glide_ligand_efficiency>  (9) 
-0.0582189

>  <r_i_glide_ligand_efficiency_sa>  (9) 
-0.192235

>  <r_i_glide_ligand_efficiency_ln>  (9) 
-0.457265

>  <r_i_glide_gscore>  (9) 
-2.09588

>  <r_i_glide_lipo>  (9) 
-0.428825

>  <r_i_glide_hbond>  (9) 
-0.131363

>  <r_i_glide_metal>  (9) 
-0

>  <r_i_glide_rewards>  (9) 
-0.0407745

>  <r_i_glide_evdw>  (9) 
-21.0924

>  <r_i_glide_ecoul>  (9) 
-2.68947

>  <r_i_glide_erotb>  (9) 
0

>  <r_i_glide_esite>  (9) 
-0.0368811

>  <r_i_glide_emodel>  (9) 
-25.2947

>  <r_i_glide_energy>  (9) 
-23.7818

>  <r_i_glide_einternal>  (9) 
1.69388

>  <r_i_glide_intrahb_reward>  (9) 
-0

>  <i_i_glide_confnum>  (9) 
1

>  <i_i_glide_posenum>  (9) 
22

>  <r_i_glide_eff_state_penalty>  (9) 
0

>  <ligand_id>  (9) 
3

>  <original_smiles>  (9) 
CC1=C2C(=O)OC34OC56CCN(C)C5=CCC(=O)C6(C)C5=C(C)C(=O)OC5C5OC53C2CC4(O)C1=O

>  <smiles>  (9) 
[H]OC12C(=O)C(C([H])([H])[H])=C3C(=O)OC14OC15C(=C([H])C([H])([H])C(=O)C1(C([H])([H])[H])C1=C(C([H])([H])[H])C(=O)OC1([H])C1([H])OC14C3([H])C2([H])[H])N(C([H])([H])[H])C([H])([H])C5([H])[H]

$$$$
3:1:0
     RDKit          3D

 62 69  0  0  1  0  0  0  0  0999 V2000
   -0.5581    2.1988    3.3198 C   0  0  0  0  0  0  0  0  0  0  0  0
    0.4359    3.3189    3.5817 C   0  0  0  0  0  0  0  0  0  0  0  0
    1.6670    3.1812    4.1459 C   0  0  0  0  0  0  0  0  0  0  0  0
    1.4072    2.8154    5.5502 C   0  0  0  0  0  0  0  0  0  0  0  0
    1.4311    1.6639    5.9752 O   0  0  0  0  0  0  0  0  0  0  0  0
    1.0085    3.9399    6.2805 O   0  0  0  0  0  0  0  0  0  0  0  0
    1.5003    5.2140    5.8482 C   0  0  1  0  0  0  0  0  0  0  0  0
    1.2433    6.2442    6.7668 O   0  0  0  0  0  0  0  0  0  0  0  0
    1.6985    6.3079    8.1212 C   0  0  2  0  0  0  0  0  0  0  0  0
    2.0739    4.9641    8.8275 C   0  0  0  0  0  0  0  0  0  0  0  0
    0.7435    4.4008    9.3336 C   0  0  0  0  0  0  0  0  0  0  0  0
   -0.0426    5.6008    9.5254 N   0  0  0  0  0  0  0  0  0  0  0  0
   -1.2027    5.5414   10.4433 C   0  0  0  0  0  0  0  0  0  0  0  0
    0.4953    6.6271    8.9799 C   0  0  0  0  0  0  0  0  0  0  0  0
    0.0987    8.0399    9.2373 C   0  0  0  0  0  0  0  0  0  0  0  0
    1.2890    8.7588    9.9162 C   0  0  0  0  0  0  0  0  0  0  0  0
    2.6714    8.4650    9.3010 C   0  0  0  0  0  0  0  0  0  0  0  0
    3.6561    9.0914    9.6893 O   0  0  0  0  0  0  0  0  0  0  0  0
    2.7697    7.4704    8.1106 C   0  0  2  0  0  0  0  0  0  0  0  0
    2.5432    8.4479    6.9043 C   0  0  0  0  0  0  0  0  0  0  0  0
    4.1832    6.8600    7.9729 C   0  0  0  0  0  0  0  0  0  0  0  0
    5.0628    6.4741    8.9093 C   0  0  0  0  0  0  0  0  0  0  0  0
    4.9766    6.3999   10.4285 C   0  0  0  0  0  0  0  0  0  0  0  0
    6.3250    6.1342    8.2511 C   0  0  0  0  0  0  0  0  0  0  0  0
    7.3597    5.7630    8.7987 O   0  0  0  0  0  0  0  0  0  0  0  0
    6.1654    6.3674    6.9388 O   0  0  0  0  0  0  0  0  0  0  0  0
    4.8293    6.7246    6.6146 C   0  0  1  0  0  0  0  0  0  0  0  0
    4.3238    5.6242    5.6782 C   0  0  1  0  0  0  0  0  0  0  0  0
    3.8900    4.4045    6.3102 O   0  0  0  0  0  0  0  0  0  0  0  0
    2.9631    5.0032    5.4051 C   0  0  1  0  0  0  0  0  0  0  0  0
    2.6763    4.3747    4.0638 C   0  0  2  0  0  0  0  0  0  0  0  0
    2.0052    5.6017    3.4557 C   0  0  0  0  0  0  0  0  0  0  0  0
    0.8256    5.6791    4.4503 C   0  0  2  0  0  0  0  0  0  0  0  0
    0.2845    7.0075    4.4750 O   0  0  0  0  0  0  0  0  0  0  0  0
   -0.1624    4.6587    3.8328 C   0  0  0  0  0  0  0  0  0  0  0  0
   -1.3441    4.9463    3.6572 O   0  0  0  0  0  0  0  0  0  0  0  0
   -0.7525    2.1673    2.2460 H   0  0  0  0  0  0  0  0  0  0  0  0
   -1.5187    2.3536    3.8145 H   0  0  0  0  0  0  0  0  0  0  0  0
   -0.1642    1.2239    3.6087 H   0  0  0  0  0  0  0  0  0  0  0  0
    2.6597    4.2361    8.2635 H   0  0  0  0  0  0  0  0  0  0  0  0
    2.6527    5.1778    9.7261 H   0  0  0  0  0  0  0  0  0  0  0  0
    0.2249    3.7962    8.5949 H   0  0  0  0  0  0  0  0  0  0  0  0
    0.8269    3.8479   10.2698 H   0  0  0  0  0  0  0  0  0  0  0  0
   -1.4152    4.4976   10.6837 H   0  0  0  0  0  0  0  0  0  0  0  0
   -2.0776    5.9778    9.9561 H   0  0  0  0  0  0  0  0  0  0  0  0
   -0.9688    6.0753   11.3675 H   0  0  0  0  0  0  0  0  0  0  0  0
   -0.1465    8.5081    8.2855 H   0  0  0  0  0  0  0  0  0  0  0  0
    1.1138    9.8379    9.9125 H   0  0  0  0  0  0  0  0  0  0  0  0
    1.3337    8.4621   10.9640 H   0  0  0  0  0  0  0  0  0  0  0  0
    3.2910    9.2421    6.8965 H   0  0  0  0  0  0  0  0  0  0  0  0
    1.5741    8.9497    6.9260 H   0  0  0  0  0  0  0  0  0  0  0  0
    2.6061    7.9737    5.9202 H   0  0  0  0  0  0  0  0  0  0  0  0
    5.1829    5.3780   10.7444 H   0  0  0  0  0  0  0  0  0  0  0  0
    4.0064    6.6829   10.8354 H   0  0  0  0  0  0  0  0  0  0  0  0
    5.7364    7.0400   10.8771 H   0  0  0  0  0  0  0  0  0  0  0  0
    4.8489    7.6717    6.0767 H   0  0  0  0  0  0  0  0  0  0  0  0
    5.0671    5.4201    4.9109 H   0  0  0  0  0  0  0  0  0  0  0  0
    3.5879    4.0978    3.5494 H   0  0  0  0  0  0  0  0  0  0  0  0
    2.6400    6.4912    3.5001 H   0  0  0  0  0  0  0  0  0  0  0  0
    1.7172    5.4591    2.4085 H   0  0  0  0  0  0  0  0  0  0  0  0
    0.2142    7.3676    3.5912 H   0  0  0  0  0  0  0  0  0  0  0  0
   -0.7974    8.1073    9.8604 H   0  0  0  0  0  0  0  0  0  0  0  0
  1  2  1  0
  1 37  1  0
  1 38  1  0
  1 39  1  0
  2 35  1  0
  2  3  2  0
  3 31  1  0
  3  4  1  0
  4  5  2  0
  4  6  1  0
  7  6  1  1
  7 30  1  0
  7 33  1  0
  7  8  1  0
  9  8  1  6
  9 14  1  0
  9 19  1  0
  9 10  1  0
 10 11  1  0
 10 40  1  0
 10 41  1  0
 11 12  1  0
 11 42  1  0
 11 43  1  0
 12 13  1  0
 12 14  2  0
 13 44  1  0
 13 45  1  0
 13 46  1  0
 14 15  1  0
 15 16  1  0
 15 47  1  0
 15 62  1  0
 16 17  1  0
 16 48  1  0
 16 49  1  0
 17 18  2  0
 17 19  1  0
 19 20  1  6
 19 21  1  0
 20 50  1  0
 20 51  1  0
 20 52  1  0
 21 27  1  0
 21 22  2  0
 22 23  1  0
 22 24  1  0
 23 53  1  0
 23 54  1  0
 23 55  1  0
 24 25  2  0
 24 26  1  0
 26 27  1  0
 27 28  1  0
 27 56  1  6
 28 30  1  0
 28 29  1  0
 28 57  1  6
 30 29  1  1
 30 31  1  0
 31 32  1  0
 31 58  1  6
 32 33  1  0
 32 59  1  0
 32 60  1  0
 33 34  1  1
 33 35  1  0
 34 61  1  0
 35 36  2  0
M  CHG  1  12   1
M  END
>  <i_m_ct_stereo_status>  (10) 
1

>  <s_m_source_file>  (10) 
/var/tmp/pbs.5076255.sched01/tmpnm8fzmj1/0q4giu30i.sdf

>  <i_m_source_file_index>  (10) 
5

>  <i_lp_mmshare_version>  (10) 
48012

>  <i_f3d_flags>  (10) 
0

>  <s_epik_input>  (10) 
W0NIMl0xW0NAQF0yKFtPSF0pQyg9TylDKFtDSDNdKT1DKEMoPU8pTzMpW0NAQEhdMVtDQF00KFtDQEBdMjM1KVtDQEhdKE80KVtDQEhdNkMoPUMoW0NIM10pQyg9TylPNilbQ0BAXTcoW0NIM10pW0NAXTgoTzUpQyhOKFtDSDNdKVtDSDJdW0NIMl04KT1bQ0hdW0NIMl1DNz1P

>  <s_epik_cmdline>  (10) 
J2VwaWtfcHl0aG9uJywgJy1waHQnLCAnMi4wJywgJy1waCcsICc3LjAnLCAnLXRuJywgJzgnLCAnLW1hJywgJzIwMCcsICctaW1hZScsICc8aW5maWxlLm1hZT4nLCAnLW9tYWUnLCAnPG91dGZpbGUubWFlPic=

>  <r_lp_tautomer_probability>  (10) 
0.999791

>  <r_epik_Ionization_Penalty>  (10) 
0.512268

>  <r_epik_Ionization_Penalty_Charging>  (10) 
0

>  <r_epik_Ionization_Penalty_Neutral>  (10) 
0.512268

>  <r_epik_State_Penalty>  (10) 
0.521216

>  <r_epik_Charging_Adjusted_Penalty>  (10) 
0.521216

>  <i_epik_Tot_Q>  (10) 
1

>  <i_epik_Tot_abs_Q>  (10) 
1

>  <s_epik_Chemistry_Notes>  (10) 
This compound has an ester and may undergo hydrolysis at high or low pH. This compound has an imine and may undergo hydrolysis.

>  <s_lp_Force_Field>  (10) 
OPLS3e

>  <r_lp_Energy>  (10) 
151.509

>  <b_lp_Chiralities_Consistent>  (10) 
1

>  <s_lp_Variant>  (10) 
3:0-2

>  <s_i_glide_gridfile>  (10) 
pfpi4k_grid

>  <i_i_glide_lignum>  (10) 
5

>  <i_i_glide_rotatable_bonds>  (10) 
1

>  <r_i_docking_score>  (10) 
-3.02056

>  <r_i_glide_ligand_efficiency>  (10) 
-0.0839044

>  <r_i_glide_ligand_efficiency_sa>  (10) 
-0.277046

>  <r_i_glide_ligand_efficiency_ln>  (10) 
-0.659004

>  <r_i_glide_gscore>  (10) 
-3.02056

>  <r_i_glide_lipo>  (10) 
-0.0278867

>  <r_i_glide_hbond>  (10) 
-0.16

>  <r_i_glide_metal>  (10) 
-0

>  <r_i_glide_rewards>  (10) 
-0.0239595

>  <r_i_glide_evdw>  (10) 
-20.1948

>  <r_i_glide_ecoul>  (10) 
-11.2152

>  <r_i_glide_erotb>  (10) 
0

>  <r_i_glide_esite>  (10) 
-0.116695

>  <r_i_glide_emodel>  (10) 
-37.2047

>  <r_i_glide_energy>  (10) 
-31.41

>  <r_i_glide_einternal>  (10) 
1.9574

>  <r_i_glide_intrahb_reward>  (10) 
-0

>  <i_i_glide_confnum>  (10) 
1

>  <i_i_glide_posenum>  (10) 
28

>  <r_i_glide_eff_state_penalty>  (10) 
0

>  <ligand_id>  (10) 
3

>  <original_smiles>  (10) 
CC1=C2C(=O)OC34OC56CCN(C)C5=CCC(=O)C6(C)C5=C(C)C(=O)OC5C5OC53C2CC4(O)C1=O

>  <smiles>  (10) 
[H]OC12C(=O)C(C([H])([H])[H])=C3C(=O)OC14OC15C(=[N+](C([H])([H])[H])C([H])([H])C1([H])[H])C([H])([H])C([H])([H])C(=O)C5(C([H])([H])[H])C1=C(C([H])([H])[H])C(=O)OC1([H])C1([H])OC14C3([H])C2([H])[H]

$$$$
3:1:1
     RDKit          3D

 62 69  0  0  1  0  0  0  0  0999 V2000
    4.9746   -3.0081   -3.0056 C   0  0  0  0  0  0  0  0  0  0  0  0
    5.0693   -3.5613   -1.5913 C   0  0  0  0  0  0  0  0  0  0  0  0
    4.0898   -4.2536   -0.9646 C   0  0  0  0  0  0  0  0  0  0  0  0
    2.9719   -3.3246   -0.7893 C   0  0  0  0  0  0  0  0  0  0  0  0
    1.9996   -3.2871   -1.5386 O   0  0  0  0  0  0  0  0  0  0  0  0
    3.2246   -2.4662    0.2998 O   0  0  0  0  0  0  0  0  0  0  0  0
    4.0853   -2.9550    1.3500 C   0  0  1  0  0  0  0  0  0  0  0  0
    4.1420   -2.1141    2.4716 O   0  0  0  0  0  0  0  0  0  0  0  0
    3.0572   -1.7108    3.3059 C   0  0  2  0  0  0  0  0  0  0  0  0
    1.6252   -1.7399    2.6843 C   0  0  0  0  0  0  0  0  0  0  0  0
    1.5062   -0.4280    1.9103 C   0  0  0  0  0  0  0  0  0  0  0  0
    2.3787    0.4460    2.6574 N   0  0  0  0  0  0  0  0  0  0  0  0
    2.1958    1.9076    2.5356 C   0  0  0  0  0  0  0  0  0  0  0  0
    3.1529   -0.2118    3.4631 C   0  0  0  0  0  0  0  0  0  0  0  0
    3.9686    0.3960    4.5476 C   0  0  0  0  0  0  0  0  0  0  0  0
    3.4026   -0.1219    5.8929 C   0  0  0  0  0  0  0  0  0  0  0  0
    3.0894   -1.6321    5.9496 C   0  0  0  0  0  0  0  0  0  0  0  0
    2.7662   -2.1439    7.0216 O   0  0  0  0  0  0  0  0  0  0  0  0
    3.3048   -2.4879    4.6669 C   0  0  2  0  0  0  0  0  0  0  0  0
    4.8062   -2.9018    4.8414 C   0  0  0  0  0  0  0  0  0  0  0  0
    2.4473   -3.7744    4.6804 C   0  0  0  0  0  0  0  0  0  0  0  0
    1.1972   -3.9952    5.1247 C   0  0  0  0  0  0  0  0  0  0  0  0
    0.1303   -3.0695    5.6889 C   0  0  0  0  0  0  0  0  0  0  0  0
    0.9242   -5.4327    5.0628 C   0  0  0  0  0  0  0  0  0  0  0  0
   -0.1217   -5.9972    5.3743 O   0  0  0  0  0  0  0  0  0  0  0  0
    2.0355   -6.0319    4.6195 O   0  0  0  0  0  0  0  0  0  0  0  0
    3.0296   -5.0950    4.2337 C   0  0  1  0  0  0  0  0  0  0  0  0
    3.2452   -5.3290    2.7352 C   0  0  1  0  0  0  0  0  0  0  0  0
    2.2976   -4.7247    1.8444 O   0  0  0  0  0  0  0  0  0  0  0  0
    3.6690   -4.4281    1.5835 C   0  0  1  0  0  0  0  0  0  0  0  0
    4.3676   -5.0139    0.3748 C   0  0  2  0  0  0  0  0  0  0  0  0
    5.7829   -4.6887    0.8384 C   0  0  0  0  0  0  0  0  0  0  0  0
    5.6253   -3.1476    0.8446 C   0  0  2  0  0  0  0  0  0  0  0  0
    6.5884   -2.5388    1.6693 O   0  0  0  0  0  0  0  0  0  0  0  0
    5.8987   -2.7780   -0.6383 C   0  0  0  0  0  0  0  0  0  0  0  0
    6.6775   -1.8859   -0.9683 O   0  0  0  0  0  0  0  0  0  0  0  0
    5.7775   -3.4602   -3.5825 H   0  0  0  0  0  0  0  0  0  0  0  0
    5.0967   -1.9274   -3.0444 H   0  0  0  0  0  0  0  0  0  0  0  0
    4.0295   -3.2663   -3.4924 H   0  0  0  0  0  0  0  0  0  0  0  0
    1.3773   -2.6066    2.0801 H   0  0  0  0  0  0  0  0  0  0  0  0
    0.8809   -1.7018    3.4781 H   0  0  0  0  0  0  0  0  0  0  0  0
    1.9080   -0.4795    0.8938 H   0  0  0  0  0  0  0  0  0  0  0  0
    0.4977   -0.0159    1.9023 H   0  0  0  0  0  0  0  0  0  0  0  0
    1.5146    2.1016    1.7021 H   0  0  0  0  0  0  0  0  0  0  0  0
    3.1593    2.3769    2.3303 H   0  0  0  0  0  0  0  0  0  0  0  0
    1.7632    2.2960    3.4605 H   0  0  0  0  0  0  0  0  0  0  0  0
    5.0068    0.0916    4.4111 H   0  0  0  0  0  0  0  0  0  0  0  0
    4.1018    0.1171    6.6944 H   0  0  0  0  0  0  0  0  0  0  0  0
    2.4767    0.4083    6.1260 H   0  0  0  0  0  0  0  0  0  0  0  0
    4.9600   -3.4511    5.7737 H   0  0  0  0  0  0  0  0  0  0  0  0
    5.4749   -2.0424    4.8671 H   0  0  0  0  0  0  0  0  0  0  0  0
    5.1784   -3.5555    4.0512 H   0  0  0  0  0  0  0  0  0  0  0  0
   -0.7672   -3.1411    5.0757 H   0  0  0  0  0  0  0  0  0  0  0  0
    0.4220   -2.0208    5.7113 H   0  0  0  0  0  0  0  0  0  0  0  0
   -0.1302   -3.3763    6.7033 H   0  0  0  0  0  0  0  0  0  0  0  0
    3.9487   -5.3272    4.7705 H   0  0  0  0  0  0  0  0  0  0  0  0
    3.3753   -6.3906    2.5331 H   0  0  0  0  0  0  0  0  0  0  0  0
    4.1761   -6.0837    0.2826 H   0  0  0  0  0  0  0  0  0  0  0  0
    6.0001   -5.0975    1.8247 H   0  0  0  0  0  0  0  0  0  0  0  0
    6.5466   -5.0641    0.1527 H   0  0  0  0  0  0  0  0  0  0  0  0
    6.4302   -2.8220    2.5529 H   0  0  0  0  0  0  0  0  0  0  0  0
    3.9393    1.4873    4.5089 H   0  0  0  0  0  0  0  0  0  0  0  0
  1  2  1  0
  1 37  1  0
  1 38  1  0
  1 39  1  0
  2 35  1  0
  2  3  2  0
  3 31  1  0
  3  4  1  0
  4  5  2  0
  4  6  1  0
  7  6  1  6
  7 30  1  0
  7 33  1  0
  7  8  1  0
  9  8  1  6
  9 14  1  0
  9 19  1  0
  9 10  1  0
 10 11  1  0
 10 40  1  0
 10 41  1  0
 11 12  1  0
 11 42  1  0
 11 43  1  0
 12 13  1  0
 12 14  2  0
 13 44  1  0
 13 45  1  0
 13 46  1  0
 14 15  1  0
 15 16  1  0
 15 47  1  0
 15 62  1  0
 16 17  1  0
 16 48  1  0
 16 49  1  0
 17 18  2  0
 17 19  1  0
 19 20  1  6
 19 21  1  0
 20 50  1  0
 20 51  1  0
 20 52  1  0
 21 27  1  0
 21 22  2  0
 22 23  1  0
 22 24  1  0
 23 53  1  0
 23 54  1  0
 23 55  1  0
 24 25  2  0
 24 26  1  0
 26 27  1  0
 27 28  1  0
 27 56  1  1
 28 30  1  0
 28 29  1  0
 28 57  1  1
 30 29  1  6
 30 31  1  0
 31 32  1  0
 31 58  1  6
 32 33  1  0
 32 59  1  0
 32 60  1  0
 33 34  1  1
 33 35  1  0
 34 61  1  0
 35 36  2  0
M  CHG  1  12   1
M  END
>  <i_m_ct_stereo_status>  (11) 
1

>  <s_m_source_file>  (11) 
/var/tmp/pbs.5076255.sched01/tmpnm8fzmj1/0q4giu30i.sdf

>  <i_m_source_file_index>  (11) 
5

>  <i_lp_mmshare_version>  (11) 
48012

>  <i_f3d_flags>  (11) 
0

>  <s_epik_input>  (11) 
W0NIMl0xW0NAQF0yKFtPSF0pQyg9TylDKFtDSDNdKT1DKEMoPU8pTzMpW0NAQEhdMVtDQF00KFtDQEBdMjM1KVtDQEhdKE80KVtDQEhdNkMoPUMoW0NIM10pQyg9TylPNilbQ0BAXTcoW0NIM10pW0NAXTgoTzUpQyhOKFtDSDNdKVtDSDJdW0NIMl04KT1bQ0hdW0NIMl1DNz1P

>  <s_epik_cmdline>  (11) 
J2VwaWtfcHl0aG9uJywgJy1waHQnLCAnMi4wJywgJy1waCcsICc3LjAnLCAnLXRuJywgJzgnLCAnLW1hJywgJzIwMCcsICctaW1hZScsICc8aW5maWxlLm1hZT4nLCAnLW9tYWUnLCAnPG91dGZpbGUubWFlPic=

>  <r_lp_tautomer_probability>  (11) 
0.999791

>  <r_epik_Ionization_Penalty>  (11) 
0.512268

>  <r_epik_Ionization_Penalty_Charging>  (11) 
0

>  <r_epik_Ionization_Penalty_Neutral>  (11) 
0.512268

>  <r_epik_State_Penalty>  (11) 
0.521216

>  <r_epik_Charging_Adjusted_Penalty>  (11) 
0.521216

>  <i_epik_Tot_Q>  (11) 
1

>  <i_epik_Tot_abs_Q>  (11) 
1

>  <s_epik_Chemistry_Notes>  (11) 
This compound has an ester and may undergo hydrolysis at high or low pH. This compound has an imine and may undergo hydrolysis.

>  <s_lp_Force_Field>  (11) 
OPLS3e

>  <r_lp_Energy>  (11) 
151.509

>  <b_lp_Chiralities_Consistent>  (11) 
1

>  <s_lp_Variant>  (11) 
3:0-2

>  <s_i_glide_gridfile>  (11) 
pfpi4k_grid

>  <i_i_glide_lignum>  (11) 
5

>  <i_i_glide_rotatable_bonds>  (11) 
1

>  <r_i_docking_score>  (11) 
-2.89149

>  <r_i_glide_ligand_efficiency>  (11) 
-0.0803193

>  <r_i_glide_ligand_efficiency_sa>  (11) 
-0.265208

>  <r_i_glide_ligand_efficiency_ln>  (11) 
-0.630846

>  <r_i_glide_gscore>  (11) 
-2.89149

>  <r_i_glide_lipo>  (11) 
-0.451142

>  <r_i_glide_hbond>  (11) 
-0.16

>  <r_i_glide_metal>  (11) 
-0

>  <r_i_glide_rewards>  (11) 
-0.089196

>  <r_i_glide_evdw>  (11) 
-25.7375

>  <r_i_glide_ecoul>  (11) 
-5.94551

>  <r_i_glide_erotb>  (11) 
0

>  <r_i_glide_esite>  (11) 
-0.0124564

>  <r_i_glide_emodel>  (11) 
-38.1453

>  <r_i_glide_energy>  (11) 
-31.683

>  <r_i_glide_einternal>  (11) 
0.00356217

>  <r_i_glide_intrahb_reward>  (11) 
-0

>  <i_i_glide_confnum>  (11) 
2

>  <i_i_glide_posenum>  (11) 
14

>  <r_i_glide_eff_state_penalty>  (11) 
0

>  <ligand_id>  (11) 
3

>  <original_smiles>  (11) 
CC1=C2C(=O)OC34OC56CCN(C)C5=CCC(=O)C6(C)C5=C(C)C(=O)OC5C5OC53C2CC4(O)C1=O

>  <smiles>  (11) 
[H]OC12C(=O)C(C([H])([H])[H])=C3C(=O)OC14OC15C(=[N+](C([H])([H])[H])C([H])([H])C1([H])[H])C([H])([H])C([H])([H])C(=O)C5(C([H])([H])[H])C1=C(C([H])([H])[H])C(=O)OC1([H])C1([H])OC14C3([H])C2([H])[H]

$$$$
3:1:2
     RDKit          3D

 62 69  0  0  1  0  0  0  0  0999 V2000
    6.1450   -1.5739    1.1872 C   0  0  0  0  0  0  0  0  0  0  0  0
    5.4004   -2.8659    0.8795 C   0  0  0  0  0  0  0  0  0  0  0  0
    4.0846   -3.0861    1.1107 C   0  0  0  0  0  0  0  0  0  0  0  0
    3.9232   -3.1128    2.5795 C   0  0  0  0  0  0  0  0  0  0  0  0
    3.5385   -2.1590    3.2463 O   0  0  0  0  0  0  0  0  0  0  0  0
    4.3791   -4.3262    3.0954 O   0  0  0  0  0  0  0  0  0  0  0  0
    4.2982   -5.4772    2.2463 C   0  0  1  0  0  0  0  0  0  0  0  0
    4.5604   -6.6889    2.9031 O   0  0  0  0  0  0  0  0  0  0  0  0
    3.8403   -7.2224    4.0180 C   0  0  2  0  0  0  0  0  0  0  0  0
    3.0312   -6.2165    4.9011 C   0  0  0  0  0  0  0  0  0  0  0  0
    4.0583   -5.6366    5.8790 C   0  0  0  0  0  0  0  0  0  0  0  0
    5.0266   -6.7083    5.9744 N   0  0  0  0  0  0  0  0  0  0  0  0
    5.9089   -6.7532    7.1611 C   0  0  0  0  0  0  0  0  0  0  0  0
    4.8626   -7.5959    5.0687 C   0  0  0  0  0  0  0  0  0  0  0  0
    5.4973   -8.9446    5.0673 C   0  0  0  0  0  0  0  0  0  0  0  0
    4.3728   -9.9985    5.1959 C   0  0  0  0  0  0  0  0  0  0  0  0
    3.1357   -9.7537    4.3102 C   0  0  0  0  0  0  0  0  0  0  0  0
    2.2591  -10.6100    4.2343 O   0  0  0  0  0  0  0  0  0  0  0  0
    3.0838   -8.4791    3.4250 C   0  0  2  0  0  0  0  0  0  0  0  0
    3.7848   -9.0039    2.1214 C   0  0  0  0  0  0  0  0  0  0  0  0
    1.6357   -8.0844    3.0629 C   0  0  0  0  0  0  0  0  0  0  0  0
    0.5015   -8.1363    3.7811 C   0  0  0  0  0  0  0  0  0  0  0  0
    0.2350   -8.4909    5.2351 C   0  0  0  0  0  0  0  0  0  0  0  0
   -0.6201   -7.7851    2.9074 C   0  0  0  0  0  0  0  0  0  0  0  0
   -1.8017   -7.6864    3.2225 O   0  0  0  0  0  0  0  0  0  0  0  0
   -0.1210   -7.5515    1.6869 O   0  0  0  0  0  0  0  0  0  0  0  0
    1.2961   -7.6373    1.6660 C   0  0  1  0  0  0  0  0  0  0  0  0
    1.7628   -6.2570    1.1931 C   0  0  1  0  0  0  0  0  0  0  0  0
    1.7461   -5.2250    2.1977 O   0  0  0  0  0  0  0  0  0  0  0  0
    2.9670   -5.3723    1.4765 C   0  0  1  0  0  0  0  0  0  0  0  0
    3.4010   -4.3403    0.4650 C   0  0  2  0  0  0  0  0  0  0  0  0
    4.4631   -5.2186   -0.1995 C   0  0  0  0  0  0  0  0  0  0  0  0
    5.3642   -5.3984    1.0328 C   0  0  2  0  0  0  0  0  0  0  0  0
    6.1680   -6.5548    0.8805 O   0  0  0  0  0  0  0  0  0  0  0  0
    6.2160   -4.1120    0.9583 C   0  0  0  0  0  0  0  0  0  0  0  0
    7.4455   -4.1565    0.9827 O   0  0  0  0  0  0  0  0  0  0  0  0
    6.5664   -1.1864    0.2613 H   0  0  0  0  0  0  0  0  0  0  0  0
    6.9733   -1.7228    1.8735 H   0  0  0  0  0  0  0  0  0  0  0  0
    5.4872   -0.8076    1.6002 H   0  0  0  0  0  0  0  0  0  0  0  0
    2.4405   -5.4499    4.3944 H   0  0  0  0  0  0  0  0  0  0  0  0
    2.3259   -6.7752    5.5181 H   0  0  0  0  0  0  0  0  0  0  0  0
    4.5839   -4.7692    5.4886 H   0  0  0  0  0  0  0  0  0  0  0  0
    3.6437   -5.4163    6.8619 H   0  0  0  0  0  0  0  0  0  0  0  0
    5.8234   -5.8073    7.6970 H   0  0  0  0  0  0  0  0  0  0  0  0
    6.9425   -6.8893    6.8380 H   0  0  0  0  0  0  0  0  0  0  0  0
    5.5956   -7.5667    7.8189 H   0  0  0  0  0  0  0  0  0  0  0  0
    6.0486   -9.0711    4.1361 H   0  0  0  0  0  0  0  0  0  0  0  0
    4.7742  -10.9889    4.9709 H   0  0  0  0  0  0  0  0  0  0  0  0
    4.0288  -10.0429    6.2308 H   0  0  0  0  0  0  0  0  0  0  0  0
    3.2548   -9.8640    1.7050 H   0  0  0  0  0  0  0  0  0  0  0  0
    4.8115   -9.3354    2.2933 H   0  0  0  0  0  0  0  0  0  0  0  0
    3.8338   -8.2743    1.3076 H   0  0  0  0  0  0  0  0  0  0  0  0
   -0.2507   -7.6452    5.7200 H   0  0  0  0  0  0  0  0  0  0  0  0
    1.1296   -8.7311    5.8088 H   0  0  0  0  0  0  0  0  0  0  0  0
   -0.4433   -9.3434    5.2880 H   0  0  0  0  0  0  0  0  0  0  0  0
    1.5935   -8.3824    0.9299 H   0  0  0  0  0  0  0  0  0  0  0  0
    1.2002   -5.9657    0.3108 H   0  0  0  0  0  0  0  0  0  0  0  0
    2.5893   -4.0713   -0.2022 H   0  0  0  0  0  0  0  0  0  0  0  0
    4.0549   -6.1682   -0.5500 H   0  0  0  0  0  0  0  0  0  0  0  0
    4.9359   -4.7404   -1.0637 H   0  0  0  0  0  0  0  0  0  0  0  0
    5.6098   -7.3156    0.9301 H   0  0  0  0  0  0  0  0  0  0  0  0
    6.2187   -9.0552    5.8802 H   0  0  0  0  0  0  0  0  0  0  0  0
  1  2  1  0
  1 37  1  0
  1 38  1  0
  1 39  1  0
  2 35  1  0
  2  3  2  0
  3 31  1  0
  3  4  1  0
  4  5  2  0
  4  6  1  0
  7  6  1  1
  7 30  1  0
  7 33  1  0
  7  8  1  0
  9  8  1  6
  9 14  1  0
  9 19  1  0
  9 10  1  0
 10 11  1  0
 10 40  1  0
 10 41  1  0
 11 12  1  0
 11 42  1  0
 11 43  1  0
 12 13  1  0
 12 14  2  0
 13 44  1  0
 13 45  1  0
 13 46  1  0
 14 15  1  0
 15 16  1  0
 15 47  1  0
 15 62  1  0
 16 17  1  0
 16 48  1  0
 16 49  1  0
 17 18  2  0
 17 19  1  0
 19 20  1  6
 19 21  1  0
 20 50  1  0
 20 51  1  0
 20 52  1  0
 21 27  1  0
 21 22  2  0
 22 23  1  0
 22 24  1  0
 23 53  1  0
 23 54  1  0
 23 55  1  0
 24 25  2  0
 24 26  1  0
 26 27  1  0
 27 28  1  0
 27 56  1  6
 28 30  1  0
 28 29  1  0
 28 57  1  6
 30 29  1  1
 30 31  1  0
 31 32  1  0
 31 58  1  6
 32 33  1  0
 32 59  1  0
 32 60  1  0
 33 34  1  6
 33 35  1  0
 34 61  1  0
 35 36  2  0
M  CHG  1  12   1
M  END
>  <i_m_ct_stereo_status>  (12) 
1

>  <s_m_source_file>  (12) 
/var/tmp/pbs.5076255.sched01/tmpnm8fzmj1/0q4giu30i.sdf

>  <i_m_source_file_index>  (12) 
5

>  <i_lp_mmshare_version>  (12) 
48012

>  <i_f3d_flags>  (12) 
0

>  <s_epik_input>  (12) 
W0NIMl0xW0NAQF0yKFtPSF0pQyg9TylDKFtDSDNdKT1DKEMoPU8pTzMpW0NAQEhdMVtDQF00KFtDQEBdMjM1KVtDQEhdKE80KVtDQEhdNkMoPUMoW0NIM10pQyg9TylPNilbQ0BAXTcoW0NIM10pW0NAXTgoTzUpQyhOKFtDSDNdKVtDSDJdW0NIMl04KT1bQ0hdW0NIMl1DNz1P

>  <s_epik_cmdline>  (12) 
J2VwaWtfcHl0aG9uJywgJy1waHQnLCAnMi4wJywgJy1waCcsICc3LjAnLCAnLXRuJywgJzgnLCAnLW1hJywgJzIwMCcsICctaW1hZScsICc8aW5maWxlLm1hZT4nLCAnLW9tYWUnLCAnPG91dGZpbGUubWFlPic=

>  <r_lp_tautomer_probability>  (12) 
0.999791

>  <r_epik_Ionization_Penalty>  (12) 
0.512268

>  <r_epik_Ionization_Penalty_Charging>  (12) 
0

>  <r_epik_Ionization_Penalty_Neutral>  (12) 
0.512268

>  <r_epik_State_Penalty>  (12) 
0.521216

>  <r_epik_Charging_Adjusted_Penalty>  (12) 
0.521216

>  <i_epik_Tot_Q>  (12) 
1

>  <i_epik_Tot_abs_Q>  (12) 
1

>  <s_epik_Chemistry_Notes>  (12) 
This compound has an ester and may undergo hydrolysis at high or low pH. This compound has an imine and may undergo hydrolysis.

>  <s_lp_Force_Field>  (12) 
OPLS3e

>  <r_lp_Energy>  (12) 
151.509

>  <b_lp_Chiralities_Consistent>  (12) 
1

>  <s_lp_Variant>  (12) 
3:0-2

>  <s_i_glide_gridfile>  (12) 
pfpi4k_grid

>  <i_i_glide_lignum>  (12) 
5

>  <i_i_glide_rotatable_bonds>  (12) 
1

>  <r_i_docking_score>  (12) 
-2.41517

>  <r_i_glide_ligand_efficiency>  (12) 
-0.067088

>  <r_i_glide_ligand_efficiency_sa>  (12) 
-0.22152

>  <r_i_glide_ligand_efficiency_ln>  (12) 
-0.526924

>  <r_i_glide_gscore>  (12) 
-2.41517

>  <r_i_glide_lipo>  (12) 
-0.302594

>  <r_i_glide_hbond>  (12) 
-0.00569259

>  <r_i_glide_metal>  (12) 
-0

>  <r_i_glide_rewards>  (12) 
-0.155508

>  <r_i_glide_evdw>  (12) 
-31.8652

>  <r_i_glide_ecoul>  (12) 
-1.91334

>  <r_i_glide_erotb>  (12) 
0

>  <r_i_glide_esite>  (12) 
-0.0711087

>  <r_i_glide_emodel>  (12) 
-39.0982

>  <r_i_glide_energy>  (12) 
-33.7786

>  <r_i_glide_einternal>  (12) 
0.00737365

>  <r_i_glide_intrahb_reward>  (12) 
-0

>  <i_i_glide_confnum>  (12) 
1

>  <i_i_glide_posenum>  (12) 
1

>  <r_i_glide_eff_state_penalty>  (12) 
0

>  <ligand_id>  (12) 
3

>  <original_smiles>  (12) 
CC1=C2C(=O)OC34OC56CCN(C)C5=CCC(=O)C6(C)C5=C(C)C(=O)OC5C5OC53C2CC4(O)C1=O

>  <smiles>  (12) 
[H]OC12C(=O)C(C([H])([H])[H])=C3C(=O)OC14OC15C(=[N+](C([H])([H])[H])C([H])([H])C1([H])[H])C([H])([H])C([H])([H])C(=O)C5(C([H])([H])[H])C1=C(C([H])([H])[H])C(=O)OC1([H])C1([H])OC14C3([H])C2([H])[H]

$$$$
3:2:0
     RDKit          3D

 60 67  0  0  1  0  0  0  0  0999 V2000
    2.7350   -4.3588    4.8524 C   0  0  0  0  0  0  0  0  0  0  0  0
    1.5736   -3.4142    5.1117 C   0  0  0  0  0  0  0  0  0  0  0  0
    1.1634   -2.4472    4.2391 C   0  0  0  0  0  0  0  0  0  0  0  0
    2.1977   -1.3898    4.3638 C   0  0  0  0  0  0  0  0  0  0  0  0
    3.0802   -1.1634    3.5384 O   0  0  0  0  0  0  0  0  0  0  0  0
    2.0978   -0.7284    5.6221 O   0  0  0  0  0  0  0  0  0  0  0  0
    0.7896   -0.6069    6.2383 C   0  0  1  0  0  0  0  0  0  0  0  0
    0.7446    0.3491    7.2516 O   0  0  0  0  0  0  0  0  0  0  0  0
    1.1594    1.7171    7.2024 C   0  0  2  0  0  0  0  0  0  0  0  0
    2.0794    2.1631    6.0275 C   0  0  0  0  0  0  0  0  0  0  0  0
    3.5107    1.7915    6.4526 C   0  0  0  0  0  0  0  0  0  0  0  0
    3.4056    1.4673    7.8596 N   0  0  0  0  0  0  0  0  0  0  0  0
    4.6201    1.2872    8.6371 C   0  0  0  0  0  0  0  0  0  0  0  0
    2.1861    1.9166    8.3104 C   0  0  0  0  0  0  0  0  0  0  0  0
    2.0261    2.7193    9.3738 C   0  0  0  0  0  0  0  0  0  0  0  0
    0.7891    3.5498    9.6273 C   0  0  0  0  0  0  0  0  0  0  0  0
   -0.0423    3.7287    8.3439 C   0  0  0  0  0  0  0  0  0  0  0  0
   -0.6743    4.7661    8.1589 O   0  0  0  0  0  0  0  0  0  0  0  0
   -0.1956    2.4825    7.4323 C   0  0  2  0  0  0  0  0  0  0  0  0
   -1.2109    1.6355    8.2762 C   0  0  0  0  0  0  0  0  0  0  0  0
   -0.8362    2.8030    6.0611 C   0  0  0  0  0  0  0  0  0  0  0  0
   -0.7253    3.8680    5.2464 C   0  0  0  0  0  0  0  0  0  0  0  0
    0.1433    5.1136    5.2956 C   0  0  0  0  0  0  0  0  0  0  0  0
   -1.7248    3.7426    4.1815 C   0  0  0  0  0  0  0  0  0  0  0  0
   -1.9673    4.5533    3.2869 O   0  0  0  0  0  0  0  0  0  0  0  0
   -2.4099    2.6208    4.3999 O   0  0  0  0  0  0  0  0  0  0  0  0
   -1.8430    1.8540    5.4518 C   0  0  1  0  0  0  0  0  0  0  0  0
   -1.3222    0.5909    4.7611 C   0  0  1  0  0  0  0  0  0  0  0  0
   -0.0228    0.6966    4.1670 O   0  0  0  0  0  0  0  0  0  0  0  0
   -0.2002   -0.3821    5.0734 C   0  0  1  0  0  0  0  0  0  0  0  0
   -0.2476   -1.8073    4.5549 C   0  0  2  0  0  0  0  0  0  0  0  0
   -0.8809   -2.3793    5.8563 C   0  0  0  0  0  0  0  0  0  0  0  0
    0.2336   -2.0119    6.8568 C   0  0  2  0  0  0  0  0  0  0  0  0
   -0.1750   -1.9560    8.1303 O   0  0  0  0  0  0  0  0  0  0  0  0
    1.2235   -3.1915    6.5861 C   0  0  0  0  0  0  0  0  0  0  0  0
    1.6925   -3.8734    7.4911 O   0  0  0  0  0  0  0  0  0  0  0  0
    2.3542   -5.3806    4.8333 H   0  0  0  0  0  0  0  0  0  0  0  0
    3.5010   -4.3006    5.6281 H   0  0  0  0  0  0  0  0  0  0  0  0
    3.2048   -4.1573    3.8844 H   0  0  0  0  0  0  0  0  0  0  0  0
    1.8244    1.8007    5.0390 H   0  0  0  0  0  0  0  0  0  0  0  0
    2.0619    3.2449    5.9592 H   0  0  0  0  0  0  0  0  0  0  0  0
    3.9129    0.9583    5.8805 H   0  0  0  0  0  0  0  0  0  0  0  0
    4.1853    2.6411    6.3283 H   0  0  0  0  0  0  0  0  0  0  0  0
    4.3811    0.8274    9.5953 H   0  0  0  0  0  0  0  0  0  0  0  0
    5.1123    2.2425    8.8207 H   0  0  0  0  0  0  0  0  0  0  0  0
    5.3181    0.6277    8.1209 H   0  0  0  0  0  0  0  0  0  0  0  0
    2.8629    2.9116   10.0250 H   0  0  0  0  0  0  0  0  0  0  0  0
    0.2062    3.0896   10.4216 H   0  0  0  0  0  0  0  0  0  0  0  0
    1.0969    4.5368    9.9783 H   0  0  0  0  0  0  0  0  0  0  0  0
   -2.1372    2.1770    8.4682 H   0  0  0  0  0  0  0  0  0  0  0  0
   -0.8018    1.3450    9.2440 H   0  0  0  0  0  0  0  0  0  0  0  0
   -1.4987    0.7023    7.7954 H   0  0  0  0  0  0  0  0  0  0  0  0
    0.7203    5.1754    4.3727 H   0  0  0  0  0  0  0  0  0  0  0  0
    0.8493    5.1247    6.1252 H   0  0  0  0  0  0  0  0  0  0  0  0
   -0.4761    6.0083    5.3654 H   0  0  0  0  0  0  0  0  0  0  0  0
   -2.6262    1.5915    6.1610 H   0  0  0  0  0  0  0  0  0  0  0  0
   -2.0633    0.2055    4.0684 H   0  0  0  0  0  0  0  0  0  0  0  0
   -0.9236   -1.8930    3.7112 H   0  0  0  0  0  0  0  0  0  0  0  0
   -1.8225   -1.8855    6.0909 H   0  0  0  0  0  0  0  0  0  0  0  0
   -1.0998   -3.4523    5.8034 H   0  0  0  0  0  0  0  0  0  0  0  0
  1  2  1  0
  1 37  1  0
  1 38  1  0
  1 39  1  0
  2 35  1  0
  2  3  2  0
  3 31  1  0
  3  4  1  0
  4  5  2  0
  4  6  1  0
  7  6  1  6
  7 30  1  0
  7 33  1  0
  7  8  1  0
  9  8  1  6
  9 14  1  0
  9 19  1  0
  9 10  1  0
 10 11  1  0
 10 40  1  0
 10 41  1  0
 11 12  1  0
 11 42  1  0
 11 43  1  0
 12 13  1  0
 12 14  1  0
 13 44  1  0
 13 45  1  0
 13 46  1  0
 14 15  2  0
 15 16  1  0
 15 47  1  0
 16 17  1  0
 16 48  1  0
 16 49  1  0
 17 18  2  0
 17 19  1  0
 19 20  1  1
 19 21  1  0
 20 50  1  0
 20 51  1  0
 20 52  1  0
 21 27  1  0
 21 22  2  0
 22 23  1  0
 22 24  1  0
 23 53  1  0
 23 54  1  0
 23 55  1  0
 24 25  2  0
 24 26  1  0
 26 27  1  0
 27 28  1  0
 27 56  1  1
 28 30  1  0
 28 29  1  0
 28 57  1  6
 30 29  1  6
 30 31  1  0
 31 32  1  0
 31 58  1  6
 32 33  1  0
 32 59  1  0
 32 60  1  0
 33 34  1  1
 33 35  1  0
 35 36  2  0
M  CHG  1  34  -1
M  END
>  <i_m_ct_stereo_status>  (13) 
1

>  <s_m_source_file>  (13) 
/var/tmp/pbs.5076255.sched01/tmpnm8fzmj1/0q4giu30i.sdf

>  <i_m_source_file_index>  (13) 
6

>  <i_lp_mmshare_version>  (13) 
48012

>  <i_f3d_flags>  (13) 
0

>  <s_epik_input>  (13) 
W0NIMl0xW0NAQF0yKFtPSF0pQyg9TylDKFtDSDNdKT1DKEMoPU8pTzMpW0NAQEhdMVtDQF00KFtDQEBdMjM1KVtDQEhdKE80KVtDQEhdNkMoPUMoW0NIM10pQyg9TylPNilbQ0BAXTcoW0NIM10pW0NAXTgoTzUpQyhOKFtDSDNdKVtDSDJdW0NIMl04KT1bQ0hdW0NIMl1DNz1P

>  <s_epik_cmdline>  (13) 
J2VwaWtfcHl0aG9uJywgJy1waHQnLCAnMi4wJywgJy1waCcsICc3LjAnLCAnLXRuJywgJzgnLCAnLW1hJywgJzIwMCcsICctaW1hZScsICc8aW5maWxlLm1hZT4nLCAnLW9tYWUnLCAnPG91dGZpbGUubWFlPic=

>  <r_lp_tautomer_probability>  (13) 
0.999841

>  <r_epik_Ionization_Penalty>  (13) 
2.14737

>  <r_epik_Ionization_Penalty_Charging>  (13) 
2.14736

>  <r_epik_Ionization_Penalty_Neutral>  (13) 
1.54947e-05

>  <r_epik_State_Penalty>  (13) 
2.21156

>  <r_epik_Charging_Adjusted_Penalty>  (13) 
4.35891

>  <i_epik_Tot_Q>  (13) 
-1

>  <i_epik_Tot_abs_Q>  (13) 
1

>  <s_epik_Chemistry_Notes>  (13) 
This compound has an ester and may undergo hydrolysis at high or low pH. This compound has an imine and may undergo hydrolysis.

>  <s_lp_Force_Field>  (13) 
OPLS3e

>  <r_lp_Energy>  (13) 
179.749

>  <b_lp_Chiralities_Consistent>  (13) 
1

>  <s_lp_Variant>  (13) 
3:0-3

>  <s_i_glide_gridfile>  (13) 
pfpi4k_grid

>  <i_i_glide_lignum>  (13) 
6

>  <i_i_glide_rotatable_bonds>  (13) 
0

>  <r_i_docking_score>  (13) 
-2.00494

>  <r_i_glide_ligand_efficiency>  (13) 
-0.0556927

>  <r_i_glide_ligand_efficiency_sa>  (13) 
-0.183893

>  <r_i_glide_ligand_efficiency_ln>  (13) 
-0.437423

>  <r_i_glide_gscore>  (13) 
-2.00494

>  <r_i_glide_lipo>  (13) 
-0.0151626

>  <r_i_glide_hbond>  (13) 
-0.299276

>  <r_i_glide_metal>  (13) 
-0

>  <r_i_glide_rewards>  (13) 
-0.0377041

>  <r_i_glide_evdw>  (13) 
-19.8467

>  <r_i_glide_ecoul>  (13) 
-3.97035

>  <r_i_glide_erotb>  (13) 
0

>  <r_i_glide_esite>  (13) 
-0.0649079

>  <r_i_glide_emodel>  (13) 
-27.1031

>  <r_i_glide_energy>  (13) 
-23.817

>  <r_i_glide_einternal>  (13) 
0

>  <r_i_glide_intrahb_reward>  (13) 
-0

>  <i_i_glide_confnum>  (13) 
1

>  <i_i_glide_posenum>  (13) 
17

>  <r_i_glide_eff_state_penalty>  (13) 
0

>  <ligand_id>  (13) 
3

>  <original_smiles>  (13) 
CC1=C2C(=O)OC34OC56CCN(C)C5=CCC(=O)C6(C)C5=C(C)C(=O)OC5C5OC53C2CC4(O)C1=O

>  <smiles>  (13) 
[H]C1=C2N(C([H])([H])[H])C([H])([H])C([H])([H])C23OC24OC(=O)C5=C(C([H])([H])[H])C(=O)C2([O-])C([H])([H])C5([H])C42OC2([H])C2([H])OC(=O)C(C([H])([H])[H])=C2C3(C([H])([H])[H])C(=O)C1([H])[H]

$$$$
3:2:1
     RDKit          3D

 60 67  0  0  1  0  0  0  0  0999 V2000
   -1.2089   -8.0258    4.4361 C   0  0  0  0  0  0  0  0  0  0  0  0
   -0.0665   -7.0339    4.5950 C   0  0  0  0  0  0  0  0  0  0  0  0
    0.2460   -6.0988    3.6598 C   0  0  0  0  0  0  0  0  0  0  0  0
    0.8925   -6.8664    2.5690 C   0  0  0  0  0  0  0  0  0  0  0  0
    0.3642   -7.1012    1.4831 O   0  0  0  0  0  0  0  0  0  0  0  0
    2.1638   -7.3283    2.9885 O   0  0  0  0  0  0  0  0  0  0  0  0
    2.9250   -6.5145    3.9168 C   0  0  1  0  0  0  0  0  0  0  0  0
    4.2804   -6.8531    3.9706 O   0  0  0  0  0  0  0  0  0  0  0  0
    5.2118   -6.9677    2.8901 C   0  0  2  0  0  0  0  0  0  0  0  0
    4.6400   -7.0897    1.4454 C   0  0  0  0  0  0  0  0  0  0  0  0
    4.2887   -8.5776    1.2574 C   0  0  0  0  0  0  0  0  0  0  0  0
    4.9167   -9.2422    2.3798 N   0  0  0  0  0  0  0  0  0  0  0  0
    4.9655  -10.6895    2.4136 C   0  0  0  0  0  0  0  0  0  0  0  0
    5.7955   -8.3670    2.9724 C   0  0  0  0  0  0  0  0  0  0  0  0
    7.0870   -8.6603    3.1984 C   0  0  0  0  0  0  0  0  0  0  0  0
    8.1552   -7.6211    3.4366 C   0  0  0  0  0  0  0  0  0  0  0  0
    7.7034   -6.2479    2.9194 C   0  0  0  0  0  0  0  0  0  0  0  0
    8.5315   -5.4730    2.4324 O   0  0  0  0  0  0  0  0  0  0  0  0
    6.2369   -5.8218    3.2090 C   0  0  2  0  0  0  0  0  0  0  0  0
    6.3075   -5.5217    4.7493 C   0  0  0  0  0  0  0  0  0  0  0  0
    5.8032   -4.5317    2.4757 C   0  0  0  0  0  0  0  0  0  0  0  0
    6.1214   -4.0517    1.2610 C   0  0  0  0  0  0  0  0  0  0  0  0
    6.8960   -4.6351    0.0991 C   0  0  0  0  0  0  0  0  0  0  0  0
    5.6091   -2.6837    1.1441 C   0  0  0  0  0  0  0  0  0  0  0  0
    5.7381   -1.9260    0.1830 O   0  0  0  0  0  0  0  0  0  0  0  0
    5.0250   -2.3798    2.3090 O   0  0  0  0  0  0  0  0  0  0  0  0
    4.9360   -3.5077    3.1697 C   0  0  1  0  0  0  0  0  0  0  0  0
    3.4335   -3.7882    3.2734 C   0  0  1  0  0  0  0  0  0  0  0  0
    2.8608   -4.5791    2.2083 O   0  0  0  0  0  0  0  0  0  0  0  0
    2.6136   -5.0523    3.5373 C   0  0  1  0  0  0  0  0  0  0  0  0
    1.2302   -4.9534    4.1307 C   0  0  2  0  0  0  0  0  0  0  0  0
    1.7087   -5.1677    5.5893 C   0  0  0  0  0  0  0  0  0  0  0  0
    2.3458   -6.5722    5.4505 C   0  0  2  0  0  0  0  0  0  0  0  0
    3.2390   -6.8253    6.3832 O   0  0  0  0  0  0  0  0  0  0  0  0
    1.0474   -7.4419    5.5363 C   0  0  0  0  0  0  0  0  0  0  0  0
    0.9528   -8.3918    6.3119 O   0  0  0  0  0  0  0  0  0  0  0  0
   -1.9044   -7.8282    5.2414 H   0  0  0  0  0  0  0  0  0  0  0  0
   -0.8807   -9.0618    4.5330 H   0  0  0  0  0  0  0  0  0  0  0  0
   -1.7491   -7.9024    3.4945 H   0  0  0  0  0  0  0  0  0  0  0  0
    3.8244   -6.4254    1.1818 H   0  0  0  0  0  0  0  0  0  0  0  0
    5.4357   -6.8800    0.7383 H   0  0  0  0  0  0  0  0  0  0  0  0
    3.2168   -8.7572    1.2324 H   0  0  0  0  0  0  0  0  0  0  0  0
    4.7163   -8.9656    0.3329 H   0  0  0  0  0  0  0  0  0  0  0  0
    5.2406  -11.0470    3.4047 H   0  0  0  0  0  0  0  0  0  0  0  0
    5.6857  -11.0654    1.6880 H   0  0  0  0  0  0  0  0  0  0  0  0
    3.9823  -11.0917    2.1775 H   0  0  0  0  0  0  0  0  0  0  0  0
    7.4351   -9.6743    3.0850 H   0  0  0  0  0  0  0  0  0  0  0  0
    8.4032   -7.5903    4.4940 H   0  0  0  0  0  0  0  0  0  0  0  0
    9.0545   -7.9121    2.8912 H   0  0  0  0  0  0  0  0  0  0  0  0
    7.0387   -4.7521    4.9868 H   0  0  0  0  0  0  0  0  0  0  0  0
    6.5757   -6.4033    5.3321 H   0  0  0  0  0  0  0  0  0  0  0  0
    5.3701   -5.1673    5.1797 H   0  0  0  0  0  0  0  0  0  0  0  0
    6.2168   -4.6408   -0.7530 H   0  0  0  0  0  0  0  0  0  0  0  0
    7.2450   -5.6529    0.2579 H   0  0  0  0  0  0  0  0  0  0  0  0
    7.7574   -4.0080   -0.1348 H   0  0  0  0  0  0  0  0  0  0  0  0
    5.3261   -3.2288    4.1480 H   0  0  0  0  0  0  0  0  0  0  0  0
    2.8794   -2.8649    3.4275 H   0  0  0  0  0  0  0  0  0  0  0  0
    0.8020   -3.9656    3.9769 H   0  0  0  0  0  0  0  0  0  0  0  0
    2.4529   -4.4261    5.8851 H   0  0  0  0  0  0  0  0  0  0  0  0
    0.9038   -5.0956    6.3262 H   0  0  0  0  0  0  0  0  0  0  0  0
  1  2  1  0
  1 37  1  0
  1 38  1  0
  1 39  1  0
  2 35  1  0
  2  3  2  0
  3 31  1  0
  3  4  1  0
  4  5  2  0
  4  6  1  0
  7  6  1  6
  7 30  1  0
  7 33  1  0
  7  8  1  0
  9  8  1  1
  9 14  1  0
  9 19  1  0
  9 10  1  0
 10 11  1  0
 10 40  1  0
 10 41  1  0
 11 12  1  0
 11 42  1  0
 11 43  1  0
 12 13  1  0
 12 14  1  0
 13 44  1  0
 13 45  1  0
 13 46  1  0
 14 15  2  0
 15 16  1  0
 15 47  1  0
 16 17  1  0
 16 48  1  0
 16 49  1  0
 17 18  2  0
 17 19  1  0
 19 20  1  1
 19 21  1  0
 20 50  1  0
 20 51  1  0
 20 52  1  0
 21 27  1  0
 21 22  2  0
 22 23  1  0
 22 24  1  0
 23 53  1  0
 23 54  1  0
 23 55  1  0
 24 25  2  0
 24 26  1  0
 26 27  1  0
 27 28  1  0
 27 56  1  1
 28 30  1  0
 28 29  1  0
 28 57  1  1
 30 29  1  6
 30 31  1  0
 31 32  1  0
 31 58  1  1
 32 33  1  0
 32 59  1  0
 32 60  1  0
 33 34  1  1
 33 35  1  0
 35 36  2  0
M  CHG  1  34  -1
M  END
>  <i_m_ct_stereo_status>  (14) 
1

>  <s_m_source_file>  (14) 
/var/tmp/pbs.5076255.sched01/tmpnm8fzmj1/0q4giu30i.sdf

>  <i_m_source_file_index>  (14) 
6

>  <i_lp_mmshare_version>  (14) 
48012

>  <i_f3d_flags>  (14) 
0

>  <s_epik_input>  (14) 
W0NIMl0xW0NAQF0yKFtPSF0pQyg9TylDKFtDSDNdKT1DKEMoPU8pTzMpW0NAQEhdMVtDQF00KFtDQEBdMjM1KVtDQEhdKE80KVtDQEhdNkMoPUMoW0NIM10pQyg9TylPNilbQ0BAXTcoW0NIM10pW0NAXTgoTzUpQyhOKFtDSDNdKVtDSDJdW0NIMl04KT1bQ0hdW0NIMl1DNz1P

>  <s_epik_cmdline>  (14) 
J2VwaWtfcHl0aG9uJywgJy1waHQnLCAnMi4wJywgJy1waCcsICc3LjAnLCAnLXRuJywgJzgnLCAnLW1hJywgJzIwMCcsICctaW1hZScsICc8aW5maWxlLm1hZT4nLCAnLW9tYWUnLCAnPG91dGZpbGUubWFlPic=

>  <r_lp_tautomer_probability>  (14) 
0.999841

>  <r_epik_Ionization_Penalty>  (14) 
2.14737

>  <r_epik_Ionization_Penalty_Charging>  (14) 
2.14736

>  <r_epik_Ionization_Penalty_Neutral>  (14) 
1.54947e-05

>  <r_epik_State_Penalty>  (14) 
2.21156

>  <r_epik_Charging_Adjusted_Penalty>  (14) 
4.35891

>  <i_epik_Tot_Q>  (14) 
-1

>  <i_epik_Tot_abs_Q>  (14) 
1

>  <s_epik_Chemistry_Notes>  (14) 
This compound has an ester and may undergo hydrolysis at high or low pH. This compound has an imine and may undergo hydrolysis.

>  <s_lp_Force_Field>  (14) 
OPLS3e

>  <r_lp_Energy>  (14) 
179.749

>  <b_lp_Chiralities_Consistent>  (14) 
1

>  <s_lp_Variant>  (14) 
3:0-3

>  <s_i_glide_gridfile>  (14) 
pfpi4k_grid

>  <i_i_glide_lignum>  (14) 
6

>  <i_i_glide_rotatable_bonds>  (14) 
0

>  <r_i_docking_score>  (14) 
-1.68237

>  <r_i_glide_ligand_efficiency>  (14) 
-0.0467326

>  <r_i_glide_ligand_efficiency_sa>  (14) 
-0.154308

>  <r_i_glide_ligand_efficiency_ln>  (14) 
-0.367048

>  <r_i_glide_gscore>  (14) 
-1.68237

>  <r_i_glide_lipo>  (14) 
-0.376449

>  <r_i_glide_hbond>  (14) 
0

>  <r_i_glide_metal>  (14) 
-0

>  <r_i_glide_rewards>  (14) 
-0.131599

>  <r_i_glide_evdw>  (14) 
-24.7837

>  <r_i_glide_ecoul>  (14) 
0.949211

>  <r_i_glide_erotb>  (14) 
0

>  <r_i_glide_esite>  (14) 
-0.0775222

>  <r_i_glide_emodel>  (14) 
-26.478

>  <r_i_glide_energy>  (14) 
-23.8345

>  <r_i_glide_einternal>  (14) 
0

>  <r_i_glide_intrahb_reward>  (14) 
-0

>  <i_i_glide_confnum>  (14) 
1

>  <i_i_glide_posenum>  (14) 
23

>  <r_i_glide_eff_state_penalty>  (14) 
0

>  <ligand_id>  (14) 
3

>  <original_smiles>  (14) 
CC1=C2C(=O)OC34OC56CCN(C)C5=CCC(=O)C6(C)C5=C(C)C(=O)OC5C5OC53C2CC4(O)C1=O

>  <smiles>  (14) 
[H]C1=C2N(C([H])([H])[H])C([H])([H])C([H])([H])C23OC24OC(=O)C5=C(C([H])([H])[H])C(=O)C2([O-])C([H])([H])C5([H])C42OC2([H])C2([H])OC(=O)C(C([H])([H])[H])=C2C3(C([H])([H])[H])C(=O)C1([H])[H]

$$$$
3:2:2
     RDKit          3D

 60 67  0  0  1  0  0  0  0  0999 V2000
   -1.1218    4.6893    3.7508 C   0  0  0  0  0  0  0  0  0  0  0  0
   -0.5381    3.2828    3.8200 C   0  0  0  0  0  0  0  0  0  0  0  0
   -1.2769    2.1738    4.1051 C   0  0  0  0  0  0  0  0  0  0  0  0
   -1.5368    2.2684    5.5685 C   0  0  0  0  0  0  0  0  0  0  0  0
   -2.6020    2.6020    6.0816 O   0  0  0  0  0  0  0  0  0  0  0  0
   -0.3520    2.0382    6.2969 O   0  0  0  0  0  0  0  0  0  0  0  0
    0.6399    1.1376    5.7502 C   0  0  1  0  0  0  0  0  0  0  0  0
    1.5762    0.7152    6.7025 O   0  0  0  0  0  0  0  0  0  0  0  0
    1.3467    0.1098    7.9767 C   0  0  2  0  0  0  0  0  0  0  0  0
   -0.0743    0.2445    8.5969 C   0  0  0  0  0  0  0  0  0  0  0  0
   -0.1105    1.6234    9.2801 C   0  0  0  0  0  0  0  0  0  0  0  0
    1.2698    2.0596    9.2972 N   0  0  0  0  0  0  0  0  0  0  0  0
    1.6305    3.2287   10.0775 C   0  0  0  0  0  0  0  0  0  0  0  0
    2.0643    0.9732    9.0046 C   0  0  0  0  0  0  0  0  0  0  0  0
    3.0801    0.5630    9.7769 C   0  0  0  0  0  0  0  0  0  0  0  0
    3.6863   -0.8219    9.7124 C   0  0  0  0  0  0  0  0  0  0  0  0
    2.7284   -1.8199    9.0410 C   0  0  0  0  0  0  0  0  0  0  0  0
    2.7096   -2.9932    9.4095 O   0  0  0  0  0  0  0  0  0  0  0  0
    1.9633   -1.3266    7.7858 C   0  0  2  0  0  0  0  0  0  0  0  0
    3.1186   -1.3341    6.7233 C   0  0  0  0  0  0  0  0  0  0  0  0
    0.8613   -2.3029    7.3163 C   0  0  0  0  0  0  0  0  0  0  0  0
    0.0175   -3.0910    8.0050 C   0  0  0  0  0  0  0  0  0  0  0  0
   -0.2763   -3.2436    9.4910 C   0  0  0  0  0  0  0  0  0  0  0  0
   -0.6777   -3.9634    7.0563 C   0  0  0  0  0  0  0  0  0  0  0  0
   -1.5349   -4.8021    7.3187 O   0  0  0  0  0  0  0  0  0  0  0  0
   -0.2018   -3.6937    5.8366 O   0  0  0  0  0  0  0  0  0  0  0  0
    0.6432   -2.5524    5.8376 C   0  0  1  0  0  0  0  0  0  0  0  0
   -0.1410   -1.5047    5.0351 C   0  0  1  0  0  0  0  0  0  0  0  0
   -1.1233   -0.7519    5.7718 O   0  0  0  0  0  0  0  0  0  0  0  0
   -0.1584    0.0180    5.0465 C   0  0  1  0  0  0  0  0  0  0  0  0
   -0.5658    0.7886    3.8059 C   0  0  2  0  0  0  0  0  0  0  0  0
    0.8963    0.9825    3.3041 C   0  0  0  0  0  0  0  0  0  0  0  0
    1.4692    1.7786    4.4960 C   0  0  2  0  0  0  0  0  0  0  0  0
    2.7993    1.7052    4.6055 O   0  0  0  0  0  0  0  0  0  0  0  0
    0.9506    3.2073    4.1281 C   0  0  0  0  0  0  0  0  0  0  0  0
    1.6843    4.1927    4.1366 O   0  0  0  0  0  0  0  0  0  0  0  0
   -0.9866    5.0750    2.7387 H   0  0  0  0  0  0  0  0  0  0  0  0
   -0.6263    5.3771    4.4393 H   0  0  0  0  0  0  0  0  0  0  0  0
   -2.1939    4.6732    3.9600 H   0  0  0  0  0  0  0  0  0  0  0  0
   -0.9064    0.1032    7.9211 H   0  0  0  0  0  0  0  0  0  0  0  0
   -0.1808   -0.4871    9.3905 H   0  0  0  0  0  0  0  0  0  0  0  0
   -0.7485    2.3310    8.7550 H   0  0  0  0  0  0  0  0  0  0  0  0
   -0.4770    1.5383   10.3047 H   0  0  0  0  0  0  0  0  0  0  0  0
    2.6343    3.5573    9.8096 H   0  0  0  0  0  0  0  0  0  0  0  0
    1.6073    3.0059   11.1430 H   0  0  0  0  0  0  0  0  0  0  0  0
    0.9478    4.0541    9.8780 H   0  0  0  0  0  0  0  0  0  0  0  0
    3.4368    1.1930   10.5779 H   0  0  0  0  0  0  0  0  0  0  0  0
    4.6437   -0.7824    9.1965 H   0  0  0  0  0  0  0  0  0  0  0  0
    3.8758   -1.1658   10.7309 H   0  0  0  0  0  0  0  0  0  0  0  0
    3.5676   -2.3235    6.6205 H   0  0  0  0  0  0  0  0  0  0  0  0
    3.9199   -0.6392    6.9780 H   0  0  0  0  0  0  0  0  0  0  0  0
    2.8028   -1.0464    5.7196 H   0  0  0  0  0  0  0  0  0  0  0  0
   -1.3341   -3.0721    9.6866 H   0  0  0  0  0  0  0  0  0  0  0  0
    0.2855   -2.5600   10.1234 H   0  0  0  0  0  0  0  0  0  0  0  0
   -0.0529   -4.2614    9.8112 H   0  0  0  0  0  0  0  0  0  0  0  0
    1.5656   -2.8127    5.3149 H   0  0  0  0  0  0  0  0  0  0  0  0
   -0.5514   -1.9432    4.1288 H   0  0  0  0  0  0  0  0  0  0  0  0
   -1.1552    0.1716    3.1283 H   0  0  0  0  0  0  0  0  0  0  0  0
    1.4096    0.0317    3.1716 H   0  0  0  0  0  0  0  0  0  0  0  0
    0.9510    1.4888    2.3358 H   0  0  0  0  0  0  0  0  0  0  0  0
  1  2  1  0
  1 37  1  0
  1 38  1  0
  1 39  1  0
  2 35  1  0
  2  3  2  0
  3 31  1  0
  3  4  1  0
  4  5  2  0
  4  6  1  0
  7  6  1  1
  7 30  1  0
  7 33  1  0
  7  8  1  0
  9  8  1  6
  9 14  1  0
  9 19  1  0
  9 10  1  0
 10 11  1  0
 10 40  1  0
 10 41  1  0
 11 12  1  0
 11 42  1  0
 11 43  1  0
 12 13  1  0
 12 14  1  0
 13 44  1  0
 13 45  1  0
 13 46  1  0
 14 15  2  0
 15 16  1  0
 15 47  1  0
 16 17  1  0
 16 48  1  0
 16 49  1  0
 17 18  2  0
 17 19  1  0
 19 20  1  6
 19 21  1  0
 20 50  1  0
 20 51  1  0
 20 52  1  0
 21 27  1  0
 21 22  2  0
 22 23  1  0
 22 24  1  0
 23 53  1  0
 23 54  1  0
 23 55  1  0
 24 25  2  0
 24 26  1  0
 26 27  1  0
 27 28  1  0
 27 56  1  6
 28 30  1  0
 28 29  1  0
 28 57  1  6
 30 29  1  1
 30 31  1  0
 31 32  1  0
 31 58  1  6
 32 33  1  0
 32 59  1  0
 32 60  1  0
 33 34  1  1
 33 35  1  0
 35 36  2  0
M  CHG  1  34  -1
M  END
>  <i_m_ct_stereo_status>  (15) 
1

>  <s_m_source_file>  (15) 
/var/tmp/pbs.5076255.sched01/tmpnm8fzmj1/0q4giu30i.sdf

>  <i_m_source_file_index>  (15) 
6

>  <i_lp_mmshare_version>  (15) 
48012

>  <i_f3d_flags>  (15) 
0

>  <s_epik_input>  (15) 
W0NIMl0xW0NAQF0yKFtPSF0pQyg9TylDKFtDSDNdKT1DKEMoPU8pTzMpW0NAQEhdMVtDQF00KFtDQEBdMjM1KVtDQEhdKE80KVtDQEhdNkMoPUMoW0NIM10pQyg9TylPNilbQ0BAXTcoW0NIM10pW0NAXTgoTzUpQyhOKFtDSDNdKVtDSDJdW0NIMl04KT1bQ0hdW0NIMl1DNz1P

>  <s_epik_cmdline>  (15) 
J2VwaWtfcHl0aG9uJywgJy1waHQnLCAnMi4wJywgJy1waCcsICc3LjAnLCAnLXRuJywgJzgnLCAnLW1hJywgJzIwMCcsICctaW1hZScsICc8aW5maWxlLm1hZT4nLCAnLW9tYWUnLCAnPG91dGZpbGUubWFlPic=

>  <r_lp_tautomer_probability>  (15) 
0.999841

>  <r_epik_Ionization_Penalty>  (15) 
2.14737

>  <r_epik_Ionization_Penalty_Charging>  (15) 
2.14736

>  <r_epik_Ionization_Penalty_Neutral>  (15) 
1.54947e-05

>  <r_epik_State_Penalty>  (15) 
2.21156

>  <r_epik_Charging_Adjusted_Penalty>  (15) 
4.35891

>  <i_epik_Tot_Q>  (15) 
-1

>  <i_epik_Tot_abs_Q>  (15) 
1

>  <s_epik_Chemistry_Notes>  (15) 
This compound has an ester and may undergo hydrolysis at high or low pH. This compound has an imine and may undergo hydrolysis.

>  <s_lp_Force_Field>  (15) 
OPLS3e

>  <r_lp_Energy>  (15) 
179.749

>  <b_lp_Chiralities_Consistent>  (15) 
1

>  <s_lp_Variant>  (15) 
3:0-3

>  <s_i_glide_gridfile>  (15) 
pfpi4k_grid

>  <i_i_glide_lignum>  (15) 
6

>  <i_i_glide_rotatable_bonds>  (15) 
0

>  <r_i_docking_score>  (15) 
-1.42832

>  <r_i_glide_ligand_efficiency>  (15) 
-0.0396755

>  <r_i_glide_ligand_efficiency_sa>  (15) 
-0.131006

>  <r_i_glide_ligand_efficiency_ln>  (15) 
-0.31162

>  <r_i_glide_gscore>  (15) 
-1.42832

>  <r_i_glide_lipo>  (15) 
0

>  <r_i_glide_hbond>  (15) 
0

>  <r_i_glide_metal>  (15) 
-0

>  <r_i_glide_rewards>  (15) 
-0.0377041

>  <r_i_glide_evdw>  (15) 
-23.5088

>  <r_i_glide_ecoul>  (15) 
-0.994546

>  <r_i_glide_erotb>  (15) 
0

>  <r_i_glide_esite>  (15) 
-0.0659924

>  <r_i_glide_emodel>  (15) 
-26.7026

>  <r_i_glide_energy>  (15) 
-24.5033

>  <r_i_glide_einternal>  (15) 
0

>  <r_i_glide_intrahb_reward>  (15) 
-0

>  <i_i_glide_confnum>  (15) 
2

>  <i_i_glide_posenum>  (15) 
14

>  <r_i_glide_eff_state_penalty>  (15) 
0

>  <ligand_id>  (15) 
3

>  <original_smiles>  (15) 
CC1=C2C(=O)OC34OC56CCN(C)C5=CCC(=O)C6(C)C5=C(C)C(=O)OC5C5OC53C2CC4(O)C1=O

>  <smiles>  (15) 
[H]C1=C2N(C([H])([H])[H])C([H])([H])C([H])([H])C23OC24OC(=O)C5=C(C([H])([H])[H])C(=O)C2([O-])C([H])([H])C5([H])C42OC2([H])C2([H])OC(=O)C(C([H])([H])[H])=C2C3(C([H])([H])[H])C(=O)C1([H])[H]

$$$$
3:3:0
     RDKit          3D

 61 68  0  0  1  0  0  0  0  0999 V2000
    6.8126   -2.9075    0.8572 C   0  0  0  0  0  0  0  0  0  0  0  0
    5.7974   -4.0385    0.7800 C   0  0  0  0  0  0  0  0  0  0  0  0
    4.4523   -3.8445    0.8832 C   0  0  0  0  0  0  0  0  0  0  0  0
    4.2284   -3.5871    2.3146 C   0  0  0  0  0  0  0  0  0  0  0  0
    4.0076   -2.4845    2.8059 O   0  0  0  0  0  0  0  0  0  0  0  0
    4.4382   -4.7678    3.0465 O   0  0  0  0  0  0  0  0  0  0  0  0
    4.1150   -6.0515    2.4598 C   0  0  1  0  0  0  0  0  0  0  0  0
    3.8588   -6.8387    3.6030 O   0  0  0  0  0  0  0  0  0  0  0  0
    3.7198   -8.2225    3.9111 C   0  0  2  0  0  0  0  0  0  0  0  0
    3.3997   -7.9087    5.3988 C   0  0  0  0  0  0  0  0  0  0  0  0
    4.7787   -7.6058    5.9912 C   0  0  0  0  0  0  0  0  0  0  0  0
    5.6213   -8.5160    5.2426 N   0  0  0  0  0  0  0  0  0  0  0  0
    6.8520   -9.0242    5.8653 C   0  0  0  0  0  0  0  0  0  0  0  0
    4.9938   -8.9854    4.2061 C   0  0  0  0  0  0  0  0  0  0  0  0
    5.2484  -10.3187    3.5876 C   0  0  0  0  0  0  0  0  0  0  0  0
    3.9768  -11.2064    3.7781 C   0  0  0  0  0  0  0  0  0  0  0  0
    2.6031  -10.5020    3.6235 C   0  0  0  0  0  0  0  0  0  0  0  0
    1.5616  -11.1216    3.7855 O   0  0  0  0  0  0  0  0  0  0  0  0
    2.6180   -9.0345    3.1287 C   0  0  2  0  0  0  0  0  0  0  0  0
    2.8888   -9.2747    1.6147 C   0  0  0  0  0  0  0  0  0  0  0  0
    1.2551   -8.2969    3.2529 C   0  0  0  0  0  0  0  0  0  0  0  0
    0.3423   -8.2575    4.2441 C   0  0  0  0  0  0  0  0  0  0  0  0
    0.3129   -8.8733    5.6349 C   0  0  0  0  0  0  0  0  0  0  0  0
   -0.7914   -7.4460    3.7987 C   0  0  0  0  0  0  0  0  0  0  0  0
   -1.7803   -7.1201    4.4609 O   0  0  0  0  0  0  0  0  0  0  0  0
   -0.5652   -7.0591    2.5399 O   0  0  0  0  0  0  0  0  0  0  0  0
    0.6917   -7.5239    2.0802 C   0  0  1  0  0  0  0  0  0  0  0  0
    1.4478   -6.3302    1.4576 C   0  0  1  0  0  0  0  0  0  0  0  0
    1.7441   -5.2251    2.3020 O   0  0  0  0  0  0  0  0  0  0  0  0
    2.8642   -5.7866    1.6106 C   0  0  1  0  0  0  0  0  0  0  0  0
    3.5557   -5.0649    0.4537 C   0  0  2  0  0  0  0  0  0  0  0  0
    4.4489   -6.2607    0.0421 C   0  0  0  0  0  0  0  0  0  0  0  0
    5.2143   -6.4986    1.3638 C   0  0  2  0  0  0  0  0  0  0  0  0
    5.6808   -7.7350    1.4969 O   0  0  0  0  0  0  0  0  0  0  0  0
    6.3259   -5.4203    1.1568 C   0  0  0  0  0  0  0  0  0  0  0  0
    7.5109   -5.6670    1.2993 O   0  0  0  0  0  0  0  0  0  0  0  0
    7.3885   -2.8813   -0.0694 H   0  0  0  0  0  0  0  0  0  0  0  0
    7.4991   -3.0879    1.6786 H   0  0  0  0  0  0  0  0  0  0  0  0
    6.3387   -1.9316    1.0049 H   0  0  0  0  0  0  0  0  0  0  0  0
    2.6846   -7.0923    5.5560 H   0  0  0  0  0  0  0  0  0  0  0  0
    3.0274   -8.7853    5.9264 H   0  0  0  0  0  0  0  0  0  0  0  0
    5.1221   -6.5966    5.7687 H   0  0  0  0  0  0  0  0  0  0  0  0
    4.8589   -7.8052    7.0604 H   0  0  0  0  0  0  0  0  0  0  0  0
    6.6491   -9.9921    6.3295 H   0  0  0  0  0  0  0  0  0  0  0  0
    7.1654   -8.3183    6.6384 H   0  0  0  0  0  0  0  0  0  0  0  0
    7.6367   -9.1067    5.1109 H   0  0  0  0  0  0  0  0  0  0  0  0
    5.4975  -10.1812    2.5375 H   0  0  0  0  0  0  0  0  0  0  0  0
    4.0156  -12.0379    3.0725 H   0  0  0  0  0  0  0  0  0  0  0  0
    3.9952  -11.6520    4.7733 H   0  0  0  0  0  0  0  0  0  0  0  0
    2.1101   -9.9039    1.1850 H   0  0  0  0  0  0  0  0  0  0  0  0
    3.8242   -9.7708    1.3715 H   0  0  0  0  0  0  0  0  0  0  0  0
    2.8757   -8.3803    1.0174 H   0  0  0  0  0  0  0  0  0  0  0  0
   -0.6551   -9.3440    5.7914 H   0  0  0  0  0  0  0  0  0  0  0  0
    0.4270   -8.0984    6.3928 H   0  0  0  0  0  0  0  0  0  0  0  0
    1.0606   -9.6443    5.8025 H   0  0  0  0  0  0  0  0  0  0  0  0
    0.4910   -8.2407    1.2842 H   0  0  0  0  0  0  0  0  0  0  0  0
    0.9264   -6.0085    0.5609 H   0  0  0  0  0  0  0  0  0  0  0  0
    2.8449   -4.7858   -0.3198 H   0  0  0  0  0  0  0  0  0  0  0  0
    3.8443   -7.0927   -0.2714 H   0  0  0  0  0  0  0  0  0  0  0  0
    5.0555   -6.0253   -0.8410 H   0  0  0  0  0  0  0  0  0  0  0  0
    6.1165  -10.8052    4.0340 H   0  0  0  0  0  0  0  0  0  0  0  0
  1  2  1  0
  1 37  1  0
  1 38  1  0
  1 39  1  0
  2 35  1  0
  2  3  2  0
  3 31  1  0
  3  4  1  0
  4  5  2  0
  4  6  1  0
  7  6  1  1
  7 30  1  0
  7 33  1  0
  7  8  1  0
  9  8  1  6
  9 14  1  0
  9 19  1  0
  9 10  1  0
 10 11  1  0
 10 40  1  0
 10 41  1  0
 11 12  1  0
 11 42  1  0
 11 43  1  0
 12 13  1  0
 12 14  2  0
 13 44  1  0
 13 45  1  0
 13 46  1  0
 14 15  1  0
 15 16  1  0
 15 47  1  0
 15 61  1  0
 16 17  1  0
 16 48  1  0
 16 49  1  0
 17 18  2  0
 17 19  1  0
 19 20  1  6
 19 21  1  0
 20 50  1  0
 20 51  1  0
 20 52  1  0
 21 27  1  0
 21 22  2  0
 22 23  1  0
 22 24  1  0
 23 53  1  0
 23 54  1  0
 23 55  1  0
 24 25  2  0
 24 26  1  0
 26 27  1  0
 27 28  1  0
 27 56  1  6
 28 30  1  0
 28 29  1  0
 28 57  1  6
 30 29  1  1
 30 31  1  0
 31 32  1  0
 31 58  1  6
 32 33  1  0
 32 59  1  0
 32 60  1  0
 33 34  1  1
 33 35  1  0
 35 36  2  0
M  CHG  2  12   1  34  -1
M  END
>  <i_m_ct_stereo_status>  (16) 
1

>  <s_m_source_file>  (16) 
/var/tmp/pbs.5076255.sched01/tmpnm8fzmj1/0q4giu30i.sdf

>  <i_m_source_file_index>  (16) 
7

>  <i_lp_mmshare_version>  (16) 
48012

>  <i_f3d_flags>  (16) 
0

>  <s_epik_input>  (16) 
W0NIMl0xW0NAQF0yKFtPSF0pQyg9TylDKFtDSDNdKT1DKEMoPU8pTzMpW0NAQEhdMVtDQF00KFtDQEBdMjM1KVtDQEhdKE80KVtDQEhdNkMoPUMoW0NIM10pQyg9TylPNilbQ0BAXTcoW0NIM10pW0NAXTgoTzUpQyhOKFtDSDNdKVtDSDJdW0NIMl04KT1bQ0hdW0NIMl1DNz1P

>  <s_epik_cmdline>  (16) 
J2VwaWtfcHl0aG9uJywgJy1waHQnLCAnMi4wJywgJy1waCcsICc3LjAnLCAnLXRuJywgJzgnLCAnLW1hJywgJzIwMCcsICctaW1hZScsICc8aW5maWxlLm1hZT4nLCAnLW9tYWUnLCAnPG91dGZpbGUubWFlPic=

>  <r_epik_Ionization_Penalty>  (16) 
2.13328

>  <r_epik_Ionization_Penalty_Charging>  (16) 
1.67221

>  <r_epik_Ionization_Penalty_Neutral>  (16) 
0.461075

>  <r_epik_State_Penalty>  (16) 
2.29086

>  <r_epik_Charging_Adjusted_Penalty>  (16) 
3.96307

>  <i_epik_Tot_Q>  (16) 
0

>  <i_epik_Tot_abs_Q>  (16) 
2

>  <s_epik_Chemistry_Notes>  (16) 
This compound has an ester and may undergo hydrolysis at high or low pH. This compound has an imine and may undergo hydrolysis.

>  <s_lp_Force_Field>  (16) 
OPLS3e

>  <r_lp_Energy>  (16) 
198.574

>  <b_lp_Chiralities_Consistent>  (16) 
1

>  <s_lp_Variant>  (16) 
3:0-4

>  <s_i_glide_gridfile>  (16) 
pfpi4k_grid

>  <i_i_glide_lignum>  (16) 
7

>  <i_i_glide_rotatable_bonds>  (16) 
0

>  <r_i_docking_score>  (16) 
-2.76514

>  <r_i_glide_ligand_efficiency>  (16) 
-0.0768094

>  <r_i_glide_ligand_efficiency_sa>  (16) 
-0.253619

>  <r_i_glide_ligand_efficiency_ln>  (16) 
-0.603278

>  <r_i_glide_gscore>  (16) 
-2.76514

>  <r_i_glide_lipo>  (16) 
-0.320547

>  <r_i_glide_hbond>  (16) 
-0.139866

>  <r_i_glide_metal>  (16) 
-0

>  <r_i_glide_rewards>  (16) 
-0.167985

>  <r_i_glide_evdw>  (16) 
-34.8261

>  <r_i_glide_ecoul>  (16) 
-2.2107

>  <r_i_glide_erotb>  (16) 
0

>  <r_i_glide_esite>  (16) 
-0.063829

>  <r_i_glide_emodel>  (16) 
-43.5434

>  <r_i_glide_energy>  (16) 
-37.0368

>  <r_i_glide_einternal>  (16) 
0

>  <r_i_glide_intrahb_reward>  (16) 
-0

>  <i_i_glide_confnum>  (16) 
1

>  <i_i_glide_posenum>  (16) 
1

>  <r_i_glide_eff_state_penalty>  (16) 
0

>  <ligand_id>  (16) 
3

>  <original_smiles>  (16) 
CC1=C2C(=O)OC34OC56CCN(C)C5=CCC(=O)C6(C)C5=C(C)C(=O)OC5C5OC53C2CC4(O)C1=O

>  <smiles>  (16) 
[H]C([H])([H])C1=C2C(=O)OC34OC56C(=[N+](C([H])([H])[H])C([H])([H])C5([H])[H])C([H])([H])C([H])([H])C(=O)C6(C([H])([H])[H])C5=C(C([H])([H])[H])C(=O)OC5([H])C5([H])OC53C2([H])C([H])([H])C4([O-])C1=O

$$$$
3:3:1
     RDKit          3D

 61 68  0  0  1  0  0  0  0  0999 V2000
    5.3555   -0.7029    0.4726 C   0  0  0  0  0  0  0  0  0  0  0  0
    4.9297   -2.1659    0.3682 C   0  0  0  0  0  0  0  0  0  0  0  0
    3.6426   -2.5900    0.5159 C   0  0  0  0  0  0  0  0  0  0  0  0
    3.3968   -2.4871    1.9657 C   0  0  0  0  0  0  0  0  0  0  0  0
    2.7354   -1.6104    2.5172 O   0  0  0  0  0  0  0  0  0  0  0  0
    4.1426   -3.4674    2.6380 O   0  0  0  0  0  0  0  0  0  0  0  0
    4.3880   -4.7518    2.0126 C   0  0  1  0  0  0  0  0  0  0  0  0
    4.5654   -5.5880    3.1347 O   0  0  0  0  0  0  0  0  0  0  0  0
    5.0636   -6.8977    3.3926 C   0  0  2  0  0  0  0  0  0  0  0  0
    4.7175   -6.7884    4.9061 C   0  0  0  0  0  0  0  0  0  0  0  0
    5.8502   -5.9188    5.4592 C   0  0  0  0  0  0  0  0  0  0  0  0
    6.9695   -6.3468    4.6444 N   0  0  0  0  0  0  0  0  0  0  0  0
    8.3292   -6.2719    5.1957 C   0  0  0  0  0  0  0  0  0  0  0  0
    6.5577   -7.0260    3.6111 C   0  0  0  0  0  0  0  0  0  0  0  0
    7.3461   -8.0928    2.9292 C   0  0  0  0  0  0  0  0  0  0  0  0
    6.6036   -9.4528    3.1306 C   0  0  0  0  0  0  0  0  0  0  0  0
    5.0521   -9.4280    3.0645 C   0  0  0  0  0  0  0  0  0  0  0  0
    4.4090  -10.4454    3.2749 O   0  0  0  0  0  0  0  0  0  0  0  0
    4.3890   -8.1005    2.6196 C   0  0  2  0  0  0  0  0  0  0  0  0
    4.6536   -8.1788    1.0865 C   0  0  0  0  0  0  0  0  0  0  0  0
    2.8501   -8.0422    2.8240 C   0  0  0  0  0  0  0  0  0  0  0  0
    2.0644   -8.4251    3.8560 C   0  0  0  0  0  0  0  0  0  0  0  0
    2.3791   -9.0224    5.2166 C   0  0  0  0  0  0  0  0  0  0  0  0
    0.6660   -8.1814    3.4932 C   0  0  0  0  0  0  0  0  0  0  0  0
   -0.3247   -8.3439    4.2110 O   0  0  0  0  0  0  0  0  0  0  0  0
    0.6358   -7.7152    2.2421 O   0  0  0  0  0  0  0  0  0  0  0  0
    1.9397   -7.5749    1.7085 C   0  0  1  0  0  0  0  0  0  0  0  0
    2.0565   -6.1553    1.1089 C   0  0  1  0  0  0  0  0  0  0  0  0
    1.8909   -5.0541    1.9862 O   0  0  0  0  0  0  0  0  0  0  0  0
    3.1015   -5.0518    1.2241 C   0  0  1  0  0  0  0  0  0  0  0  0
    3.3510   -4.0742    0.0667 C   0  0  2  0  0  0  0  0  0  0  0  0
    4.6579   -4.7571   -0.4340 C   0  0  0  0  0  0  0  0  0  0  0  0
    5.5128   -4.6495    0.8532 C   0  0  2  0  0  0  0  0  0  0  0  0
    6.4977   -5.5527    0.9280 O   0  0  0  0  0  0  0  0  0  0  0  0
    6.0304   -3.1887    0.6514 C   0  0  0  0  0  0  0  0  0  0  0  0
    7.2070   -2.8906    0.7290 O   0  0  0  0  0  0  0  0  0  0  0  0
    5.7993   -0.4107   -0.4791 H   0  0  0  0  0  0  0  0  0  0  0  0
    6.1012   -0.5396    1.2527 H   0  0  0  0  0  0  0  0  0  0  0  0
    4.5010   -0.0407    0.6530 H   0  0  0  0  0  0  0  0  0  0  0  0
    3.7260   -6.3751    5.1218 H   0  0  0  0  0  0  0  0  0  0  0  0
    4.7926   -7.7514    5.4106 H   0  0  0  0  0  0  0  0  0  0  0  0
    5.7014   -4.8570    5.2657 H   0  0  0  0  0  0  0  0  0  0  0  0
    6.0635   -6.0870    6.5158 H   0  0  0  0  0  0  0  0  0  0  0  0
    8.5965   -7.2375    5.6297 H   0  0  0  0  0  0  0  0  0  0  0  0
    8.3374   -5.5133    5.9824 H   0  0  0  0  0  0  0  0  0  0  0  0
    9.0276   -5.9867    4.4067 H   0  0  0  0  0  0  0  0  0  0  0  0
    7.4569   -7.8381    1.8777 H   0  0  0  0  0  0  0  0  0  0  0  0
    6.9637  -10.1729    2.3949 H   0  0  0  0  0  0  0  0  0  0  0  0
    6.8644   -9.8659    4.1068 H   0  0  0  0  0  0  0  0  0  0  0  0
    4.2169   -9.0859    0.6611 H   0  0  0  0  0  0  0  0  0  0  0  0
    5.7006   -8.1926    0.8072 H   0  0  0  0  0  0  0  0  0  0  0  0
    4.2193   -7.3692    0.5269 H   0  0  0  0  0  0  0  0  0  0  0  0
    1.7241   -9.8761    5.3924 H   0  0  0  0  0  0  0  0  0  0  0  0
    2.1829   -8.2921    6.0021 H   0  0  0  0  0  0  0  0  0  0  0  0
    3.3976   -9.3837    5.3266 H   0  0  0  0  0  0  0  0  0  0  0  0
    2.0267   -8.2901    0.8893 H   0  0  0  0  0  0  0  0  0  0  0  0
    1.3939   -6.0761    0.2493 H   0  0  0  0  0  0  0  0  0  0  0  0
    2.5437   -4.1196   -0.6655 H   0  0  0  0  0  0  0  0  0  0  0  0
    4.4774   -5.7751   -0.7450 H   0  0  0  0  0  0  0  0  0  0  0  0
    5.0634   -4.2654   -1.3277 H   0  0  0  0  0  0  0  0  0  0  0  0
    8.3602   -8.1579    3.3222 H   0  0  0  0  0  0  0  0  0  0  0  0
  1  2  1  0
  1 37  1  0
  1 38  1  0
  1 39  1  0
  2 35  1  0
  2  3  2  0
  3 31  1  0
  3  4  1  0
  4  5  2  0
  4  6  1  0
  7  6  1  1
  7 30  1  0
  7 33  1  0
  7  8  1  0
  9  8  1  6
  9 14  1  0
  9 19  1  0
  9 10  1  0
 10 11  1  0
 10 40  1  0
 10 41  1  0
 11 12  1  0
 11 42  1  0
 11 43  1  0
 12 13  1  0
 12 14  2  0
 13 44  1  0
 13 45  1  0
 13 46  1  0
 14 15  1  0
 15 16  1  0
 15 47  1  0
 15 61  1  0
 16 17  1  0
 16 48  1  0
 16 49  1  0
 17 18  2  0
 17 19  1  0
 19 20  1  6
 19 21  1  0
 20 50  1  0
 20 51  1  0
 20 52  1  0
 21 27  1  0
 21 22  2  0
 22 23  1  0
 22 24  1  0
 23 53  1  0
 23 54  1  0
 23 55  1  0
 24 25  2  0
 24 26  1  0
 26 27  1  0
 27 28  1  0
 27 56  1  6
 28 30  1  0
 28 29  1  0
 28 57  1  6
 30 29  1  1
 30 31  1  0
 31 32  1  0
 31 58  1  6
 32 33  1  0
 32 59  1  0
 32 60  1  0
 33 34  1  1
 33 35  1  0
 35 36  2  0
M  CHG  2  12   1  34  -1
M  END
>  <i_m_ct_stereo_status>  (17) 
1

>  <s_m_source_file>  (17) 
/var/tmp/pbs.5076255.sched01/tmpnm8fzmj1/0q4giu30i.sdf

>  <i_m_source_file_index>  (17) 
7

>  <i_lp_mmshare_version>  (17) 
48012

>  <i_f3d_flags>  (17) 
0

>  <s_epik_input>  (17) 
W0NIMl0xW0NAQF0yKFtPSF0pQyg9TylDKFtDSDNdKT1DKEMoPU8pTzMpW0NAQEhdMVtDQF00KFtDQEBdMjM1KVtDQEhdKE80KVtDQEhdNkMoPUMoW0NIM10pQyg9TylPNilbQ0BAXTcoW0NIM10pW0NAXTgoTzUpQyhOKFtDSDNdKVtDSDJdW0NIMl04KT1bQ0hdW0NIMl1DNz1P

>  <s_epik_cmdline>  (17) 
J2VwaWtfcHl0aG9uJywgJy1waHQnLCAnMi4wJywgJy1waCcsICc3LjAnLCAnLXRuJywgJzgnLCAnLW1hJywgJzIwMCcsICctaW1hZScsICc8aW5maWxlLm1hZT4nLCAnLW9tYWUnLCAnPG91dGZpbGUubWFlPic=

>  <r_epik_Ionization_Penalty>  (17) 
2.13328

>  <r_epik_Ionization_Penalty_Charging>  (17) 
1.67221

>  <r_epik_Ionization_Penalty_Neutral>  (17) 
0.461075

>  <r_epik_State_Penalty>  (17) 
2.29086

>  <r_epik_Charging_Adjusted_Penalty>  (17) 
3.96307

>  <i_epik_Tot_Q>  (17) 
0

>  <i_epik_Tot_abs_Q>  (17) 
2

>  <s_epik_Chemistry_Notes>  (17) 
This compound has an ester and may undergo hydrolysis at high or low pH. This compound has an imine and may undergo hydrolysis.

>  <s_lp_Force_Field>  (17) 
OPLS3e

>  <r_lp_Energy>  (17) 
198.574

>  <b_lp_Chiralities_Consistent>  (17) 
1

>  <s_lp_Variant>  (17) 
3:0-4

>  <s_i_glide_gridfile>  (17) 
pfpi4k_grid

>  <i_i_glide_lignum>  (17) 
7

>  <i_i_glide_rotatable_bonds>  (17) 
0

>  <r_i_docking_score>  (17) 
-2.17428

>  <r_i_glide_ligand_efficiency>  (17) 
-0.0603967

>  <r_i_glide_ligand_efficiency_sa>  (17) 
-0.199426

>  <r_i_glide_ligand_efficiency_ln>  (17) 
-0.47437

>  <r_i_glide_gscore>  (17) 
-2.17428

>  <r_i_glide_lipo>  (17) 
-0.293019

>  <r_i_glide_hbond>  (17) 
-0.0104667

>  <r_i_glide_metal>  (17) 
-0

>  <r_i_glide_rewards>  (17) 
-0.148422

>  <r_i_glide_evdw>  (17) 
-34.8124

>  <r_i_glide_ecoul>  (17) 
0.372898

>  <r_i_glide_erotb>  (17) 
0

>  <r_i_glide_esite>  (17) 
-0.0376873

>  <r_i_glide_emodel>  (17) 
-39.4999

>  <r_i_glide_energy>  (17) 
-34.4395

>  <r_i_glide_einternal>  (17) 
0

>  <r_i_glide_intrahb_reward>  (17) 
-0

>  <i_i_glide_confnum>  (17) 
2

>  <i_i_glide_posenum>  (17) 
32

>  <r_i_glide_eff_state_penalty>  (17) 
0

>  <ligand_id>  (17) 
3

>  <original_smiles>  (17) 
CC1=C2C(=O)OC34OC56CCN(C)C5=CCC(=O)C6(C)C5=C(C)C(=O)OC5C5OC53C2CC4(O)C1=O

>  <smiles>  (17) 
[H]C([H])([H])C1=C2C(=O)OC34OC56C(=[N+](C([H])([H])[H])C([H])([H])C5([H])[H])C([H])([H])C([H])([H])C(=O)C6(C([H])([H])[H])C5=C(C([H])([H])[H])C(=O)OC5([H])C5([H])OC53C2([H])C([H])([H])C4([O-])C1=O

$$$$
3:3:2
     RDKit          3D

 61 68  0  0  1  0  0  0  0  0999 V2000
    4.8546   -2.9285   -2.4199 C   0  0  0  0  0  0  0  0  0  0  0  0
    4.8288   -3.1229   -0.9040 C   0  0  0  0  0  0  0  0  0  0  0  0
    4.1546   -4.1338   -0.2806 C   0  0  0  0  0  0  0  0  0  0  0  0
    2.7400   -3.7032   -0.3511 C   0  0  0  0  0  0  0  0  0  0  0  0
    1.8714   -4.1546   -1.0954 O   0  0  0  0  0  0  0  0  0  0  0  0
    2.5389   -2.6171    0.4946 O   0  0  0  0  0  0  0  0  0  0  0  0
    3.2752   -2.4762    1.7221 C   0  0  1  0  0  0  0  0  0  0  0  0
    2.3945   -1.6895    2.4827 O   0  0  0  0  0  0  0  0  0  0  0  0
    2.4365   -0.9262    3.6855 C   0  0  2  0  0  0  0  0  0  0  0  0
    0.9221   -0.5754    3.6009 C   0  0  0  0  0  0  0  0  0  0  0  0
    0.8737    0.5308    2.5387 C   0  0  0  0  0  0  0  0  0  0  0  0
    2.1212    1.2227    2.8095 N   0  0  0  0  0  0  0  0  0  0  0  0
    2.2095    2.6647    2.5041 C   0  0  0  0  0  0  0  0  0  0  0  0
    2.8986    0.5122    3.5584 C   0  0  0  0  0  0  0  0  0  0  0  0
    3.9234    1.0626    4.4991 C   0  0  0  0  0  0  0  0  0  0  0  0
    3.4946    0.7095    5.9617 C   0  0  0  0  0  0  0  0  0  0  0  0
    2.8748   -0.6933    6.1888 C   0  0  0  0  0  0  0  0  0  0  0  0
    2.4706   -1.0212    7.3039 O   0  0  0  0  0  0  0  0  0  0  0  0
    2.9080   -1.6771    4.9938 C   0  0  2  0  0  0  0  0  0  0  0  0
    4.4051   -2.1132    5.0587 C   0  0  0  0  0  0  0  0  0  0  0  0
    2.0383   -2.9532    5.1766 C   0  0  0  0  0  0  0  0  0  0  0  0
    0.7924   -3.1250    5.6621 C   0  0  0  0  0  0  0  0  0  0  0  0
   -0.2588   -2.1590    6.1824 C   0  0  0  0  0  0  0  0  0  0  0  0
    0.4835   -4.5602    5.6862 C   0  0  0  0  0  0  0  0  0  0  0  0
   -0.5729   -5.0804    6.0465 O   0  0  0  0  0  0  0  0  0  0  0  0
    1.5610   -5.2158    5.2517 O   0  0  0  0  0  0  0  0  0  0  0  0
    2.6064   -4.3307    4.8896 C   0  0  1  0  0  0  0  0  0  0  0  0
    3.1044   -4.7298    3.4908 C   0  0  1  0  0  0  0  0  0  0  0  0
    2.1999   -4.6340    2.3935 O   0  0  0  0  0  0  0  0  0  0  0  0
    3.4373   -3.9111    2.2304 C   0  0  1  0  0  0  0  0  0  0  0  0
    4.5137   -4.3627    1.2445 C   0  0  2  0  0  0  0  0  0  0  0  0
    5.5835   -3.3353    1.7149 C   0  0  0  0  0  0  0  0  0  0  0  0
    4.8178   -1.9946    1.4588 C   0  0  2  0  0  0  0  0  0  0  0  0
    5.2247   -0.9696    2.1755 O   0  0  0  0  0  0  0  0  0  0  0  0
    5.1203   -1.8728   -0.0801 C   0  0  0  0  0  0  0  0  0  0  0  0
    5.5486   -0.8332   -0.5743 O   0  0  0  0  0  0  0  0  0  0  0  0
    5.8874   -3.0054   -2.7625 H   0  0  0  0  0  0  0  0  0  0  0  0
    4.4714   -1.9501   -2.7161 H   0  0  0  0  0  0  0  0  0  0  0  0
    4.2719   -3.7001   -2.9270 H   0  0  0  0  0  0  0  0  0  0  0  0
    0.2706   -1.4180    3.3562 H   0  0  0  0  0  0  0  0  0  0  0  0
    0.5578   -0.1329    4.5271 H   0  0  0  0  0  0  0  0  0  0  0  0
    0.9293    0.1507    1.5183 H   0  0  0  0  0  0  0  0  0  0  0  0
    0.0309    1.2145    2.6436 H   0  0  0  0  0  0  0  0  0  0  0  0
    1.9970    3.2431    3.4071 H   0  0  0  0  0  0  0  0  0  0  0  0
    1.4717    2.9031    1.7342 H   0  0  0  0  0  0  0  0  0  0  0  0
    3.2081    2.8872    2.1302 H   0  0  0  0  0  0  0  0  0  0  0  0
    4.8999    0.6524    4.2476 H   0  0  0  0  0  0  0  0  0  0  0  0
    4.3540    0.8151    6.6241 H   0  0  0  0  0  0  0  0  0  0  0  0
    2.7602    1.4373    6.3066 H   0  0  0  0  0  0  0  0  0  0  0  0
    4.6427   -2.5506    6.0309 H   0  0  0  0  0  0  0  0  0  0  0  0
    5.1306   -1.3200    4.9070 H   0  0  0  0  0  0  0  0  0  0  0  0
    4.6633   -2.8744    4.3443 H   0  0  0  0  0  0  0  0  0  0  0  0
   -0.6479   -2.5368    7.1279 H   0  0  0  0  0  0  0  0  0  0  0  0
   -1.0906   -2.0991    5.4796 H   0  0  0  0  0  0  0  0  0  0  0  0
    0.1150   -1.1575    6.3710 H   0  0  0  0  0  0  0  0  0  0  0  0
    3.4253   -4.5047    5.5895 H   0  0  0  0  0  0  0  0  0  0  0  0
    3.5738   -5.7097    3.5254 H   0  0  0  0  0  0  0  0  0  0  0  0
    4.8144   -5.3901    1.4312 H   0  0  0  0  0  0  0  0  0  0  0  0
    5.8396   -3.4785    2.7607 H   0  0  0  0  0  0  0  0  0  0  0  0
    6.5368   -3.4373    1.1812 H   0  0  0  0  0  0  0  0  0  0  0  0
    4.0217    2.1445    4.3894 H   0  0  0  0  0  0  0  0  0  0  0  0
  1  2  1  0
  1 37  1  0
  1 38  1  0
  1 39  1  0
  2 35  1  0
  2  3  2  0
  3 31  1  0
  3  4  1  0
  4  5  2  0
  4  6  1  0
  7  6  1  6
  7 30  1  0
  7 33  1  0
  7  8  1  0
  9  8  1  6
  9 14  1  0
  9 19  1  0
  9 10  1  0
 10 11  1  0
 10 40  1  0
 10 41  1  0
 11 12  1  0
 11 42  1  0
 11 43  1  0
 12 13  1  0
 12 14  2  0
 13 44  1  0
 13 45  1  0
 13 46  1  0
 14 15  1  0
 15 16  1  0
 15 47  1  0
 15 61  1  0
 16 17  1  0
 16 48  1  0
 16 49  1  0
 17 18  2  0
 17 19  1  0
 19 20  1  6
 19 21  1  0
 20 50  1  0
 20 51  1  0
 20 52  1  0
 21 27  1  0
 21 22  2  0
 22 23  1  0
 22 24  1  0
 23 53  1  0
 23 54  1  0
 23 55  1  0
 24 25  2  0
 24 26  1  0
 26 27  1  0
 27 28  1  0
 27 56  1  1
 28 30  1  0
 28 29  1  0
 28 57  1  1
 30 29  1  6
 30 31  1  0
 31 32  1  0
 31 58  1  6
 32 33  1  0
 32 59  1  0
 32 60  1  0
 33 34  1  1
 33 35  1  0
 35 36  2  0
M  CHG  2  12   1  34  -1
M  END
>  <i_m_ct_stereo_status>  (18) 
1

>  <s_m_source_file>  (18) 
/var/tmp/pbs.5076255.sched01/tmpnm8fzmj1/0q4giu30i.sdf

>  <i_m_source_file_index>  (18) 
7

>  <i_lp_mmshare_version>  (18) 
48012

>  <i_f3d_flags>  (18) 
0

>  <s_epik_input>  (18) 
W0NIMl0xW0NAQF0yKFtPSF0pQyg9TylDKFtDSDNdKT1DKEMoPU8pTzMpW0NAQEhdMVtDQF00KFtDQEBdMjM1KVtDQEhdKE80KVtDQEhdNkMoPUMoW0NIM10pQyg9TylPNilbQ0BAXTcoW0NIM10pW0NAXTgoTzUpQyhOKFtDSDNdKVtDSDJdW0NIMl04KT1bQ0hdW0NIMl1DNz1P

>  <s_epik_cmdline>  (18) 
J2VwaWtfcHl0aG9uJywgJy1waHQnLCAnMi4wJywgJy1waCcsICc3LjAnLCAnLXRuJywgJzgnLCAnLW1hJywgJzIwMCcsICctaW1hZScsICc8aW5maWxlLm1hZT4nLCAnLW9tYWUnLCAnPG91dGZpbGUubWFlPic=

>  <r_epik_Ionization_Penalty>  (18) 
2.13328

>  <r_epik_Ionization_Penalty_Charging>  (18) 
1.67221

>  <r_epik_Ionization_Penalty_Neutral>  (18) 
0.461075

>  <r_epik_State_Penalty>  (18) 
2.29086

>  <r_epik_Charging_Adjusted_Penalty>  (18) 
3.96307

>  <i_epik_Tot_Q>  (18) 
0

>  <i_epik_Tot_abs_Q>  (18) 
2

>  <s_epik_Chemistry_Notes>  (18) 
This compound has an ester and may undergo hydrolysis at high or low pH. This compound has an imine and may undergo hydrolysis.

>  <s_lp_Force_Field>  (18) 
OPLS3e

>  <r_lp_Energy>  (18) 
198.574

>  <b_lp_Chiralities_Consistent>  (18) 
1

>  <s_lp_Variant>  (18) 
3:0-4

>  <s_i_glide_gridfile>  (18) 
pfpi4k_grid

>  <i_i_glide_lignum>  (18) 
7

>  <i_i_glide_rotatable_bonds>  (18) 
0

>  <r_i_docking_score>  (18) 
-2.0662

>  <r_i_glide_ligand_efficiency>  (18) 
-0.0573943

>  <r_i_glide_ligand_efficiency_sa>  (18) 
-0.189512

>  <r_i_glide_ligand_efficiency_ln>  (18) 
-0.450788

>  <r_i_glide_gscore>  (18) 
-2.0662

>  <r_i_glide_lipo>  (18) 
-0.264857

>  <r_i_glide_hbond>  (18) 
0

>  <r_i_glide_metal>  (18) 
-0

>  <r_i_glide_rewards>  (18) 
-0.0439103

>  <r_i_glide_evdw>  (18) 
-30.5584

>  <r_i_glide_ecoul>  (18) 
-1.24066

>  <r_i_glide_erotb>  (18) 
0

>  <r_i_glide_esite>  (18) 
-0.0434101

>  <r_i_glide_emodel>  (18) 
-36.5844

>  <r_i_glide_energy>  (18) 
-31.799

>  <r_i_glide_einternal>  (18) 
0

>  <r_i_glide_intrahb_reward>  (18) 
-0

>  <i_i_glide_confnum>  (18) 
2

>  <i_i_glide_posenum>  (18) 
2

>  <r_i_glide_eff_state_penalty>  (18) 
0

>  <ligand_id>  (18) 
3

>  <original_smiles>  (18) 
CC1=C2C(=O)OC34OC56CCN(C)C5=CCC(=O)C6(C)C5=C(C)C(=O)OC5C5OC53C2CC4(O)C1=O

>  <smiles>  (18) 
[H]C([H])([H])C1=C2C(=O)OC34OC56C(=[N+](C([H])([H])[H])C([H])([H])C5([H])[H])C([H])([H])C([H])([H])C(=O)C6(C([H])([H])[H])C5=C(C([H])([H])[H])C(=O)OC5([H])C5([H])OC53C2([H])C([H])([H])C4([O-])C1=O

$$$$
4:0:0
     RDKit          3D

 49 52  0  0  1  0  0  0  0  0999 V2000
    6.0687   -2.9803   -2.0513 C   0  0  0  0  0  0  0  0  0  0  0  0
    4.6275   -2.5330   -1.7297 C   0  0  2  0  0  0  0  0  0  0  0  0
    4.6217   -1.1786   -0.9901 C   0  0  0  0  0  0  0  0  0  0  0  0
    4.9159   -1.2968    0.5233 C   0  0  1  0  0  0  0  0  0  0  0  0
    4.9962    0.0380    0.9672 O   0  0  0  0  0  0  0  0  0  0  0  0
    3.8163   -2.1659    1.2218 C   0  0  1  0  0  0  0  0  0  0  0  0
    3.9197   -3.5831    0.5939 C   0  0  2  0  0  0  0  0  0  0  0  0
    5.1621   -4.3491    1.1122 C   0  0  0  0  0  0  0  0  0  0  0  0
    5.3467   -4.2174    2.6052 C   0  0  0  0  0  0  0  0  0  0  0  0
    4.7191   -3.3068    3.3678 C   0  0  0  0  0  0  0  0  0  0  0  0
    4.7678   -3.4105    4.8843 C   0  0  0  0  0  0  0  0  0  0  0  0
    3.3728   -3.8228    5.3499 C   0  0  0  0  0  0  0  0  0  0  0  0
    3.2005   -4.7428    6.1460 O   0  0  0  0  0  0  0  0  0  0  0  0
    2.1977   -3.0155    4.7986 C   0  0  0  0  0  0  0  0  0  0  0  0
    2.3323   -2.7500    3.2762 C   0  0  1  0  0  0  0  0  0  0  0  0
    1.3218   -1.8297    2.9163 O   0  0  0  0  0  0  0  0  0  0  0  0
    3.7457   -2.2558    2.8116 C   0  0  2  0  0  0  0  0  0  0  0  0
    4.0147   -0.8785    3.4776 C   0  0  0  0  0  0  0  0  0  0  0  0
    3.8151   -3.5980   -0.9571 C   0  0  1  0  0  0  0  0  0  0  0  0
    2.3662   -3.4618   -1.4586 C   0  0  0  0  0  0  0  0  0  0  0  0
    2.4469   -3.0502   -2.9300 C   0  0  0  0  0  0  0  0  0  0  0  0
    3.8162   -2.4096   -3.0306 C   0  0  0  0  0  0  0  0  0  0  0  0
    4.2212   -1.8551   -4.0525 O   0  0  0  0  0  0  0  0  0  0  0  0
    6.6945   -3.0647   -1.1678 H   0  0  0  0  0  0  0  0  0  0  0  0
    6.5640   -2.2750   -2.7161 H   0  0  0  0  0  0  0  0  0  0  0  0
    6.0767   -3.9403   -2.5593 H   0  0  0  0  0  0  0  0  0  0  0  0
    5.3388   -0.5085   -1.4619 H   0  0  0  0  0  0  0  0  0  0  0  0
    3.6524   -0.6935   -1.1280 H   0  0  0  0  0  0  0  0  0  0  0  0
    5.9020   -1.7310    0.6830 H   0  0  0  0  0  0  0  0  0  0  0  0
    4.1740    0.4695    0.7945 H   0  0  0  0  0  0  0  0  0  0  0  0
    2.8739   -1.7257    0.8997 H   0  0  0  0  0  0  0  0  0  0  0  0
    3.0659   -4.1690    0.9383 H   0  0  0  0  0  0  0  0  0  0  0  0
    5.0455   -5.4106    0.8863 H   0  0  0  0  0  0  0  0  0  0  0  0
    6.0904   -4.0331    0.6463 H   0  0  0  0  0  0  0  0  0  0  0  0
    5.9793   -4.9610    3.0656 H   0  0  0  0  0  0  0  0  0  0  0  0
    5.5011   -4.1527    5.2021 H   0  0  0  0  0  0  0  0  0  0  0  0
    5.0458   -2.4632    5.3432 H   0  0  0  0  0  0  0  0  0  0  0  0
    1.2680   -3.5459    5.0131 H   0  0  0  0  0  0  0  0  0  0  0  0
    2.1443   -2.0812    5.3560 H   0  0  0  0  0  0  0  0  0  0  0  0
    2.1020   -3.6973    2.7883 H   0  0  0  0  0  0  0  0  0  0  0  0
    1.3911   -1.6468    1.9902 H   0  0  0  0  0  0  0  0  0  0  0  0
    3.4214   -0.0911    3.0162 H   0  0  0  0  0  0  0  0  0  0  0  0
    5.0660   -0.6017    3.4063 H   0  0  0  0  0  0  0  0  0  0  0  0
    3.7640   -0.8533    4.5376 H   0  0  0  0  0  0  0  0  0  0  0  0
    4.1656   -4.5755   -1.2959 H   0  0  0  0  0  0  0  0  0  0  0  0
    1.8060   -4.3824   -1.3377 H   0  0  0  0  0  0  0  0  0  0  0  0
    1.8469   -2.6802   -0.9000 H   0  0  0  0  0  0  0  0  0  0  0  0
    2.4092   -3.9189   -3.5893 H   0  0  0  0  0  0  0  0  0  0  0  0
    1.6574   -2.3598   -3.2229 H   0  0  0  0  0  0  0  0  0  0  0  0
  2  1  1  6
  1 24  1  0
  1 25  1  0
  1 26  1  0
  2 19  1  0
  2 22  1  0
  2  3  1  0
  3  4  1  0
  3 27  1  0
  3 28  1  0
  4  5  1  0
  4  6  1  0
  4 29  1  6
  5 30  1  0
  6 17  1  0
  6  7  1  0
  6 31  1  6
  7  8  1  0
  7 19  1  0
  7 32  1  1
  8  9  1  0
  8 33  1  0
  8 34  1  0
  9 10  2  0
  9 35  1  0
 10 17  1  0
 10 11  1  0
 11 12  1  0
 11 36  1  0
 11 37  1  0
 12 13  2  0
 12 14  1  0
 14 15  1  0
 14 38  1  0
 14 39  1  0
 15 16  1  0
 15 17  1  0
 15 40  1  6
 16 41  1  0
 17 18  1  1
 18 42  1  0
 18 43  1  0
 18 44  1  0
 19 20  1  0
 19 45  1  6
 20 21  1  0
 20 46  1  0
 20 47  1  0
 21 22  1  0
 21 48  1  0
 21 49  1  0
 22 23  2  0
M  END
>  <i_m_ct_stereo_status>  (19) 
1

>  <s_m_source_file>  (19) 
/var/tmp/pbs.5076255.sched01/tmpnm8fzmj1/0q4giu30i.sdf

>  <i_m_source_file_index>  (19) 
8

>  <i_lp_mmshare_version>  (19) 
48012

>  <i_f3d_flags>  (19) 
0

>  <s_epik_input>  (19) 
Tz1DMVtDSDJdW0NIMl1bQ0BASF0oW0NAQF0xMltDSDNdKVtDQEBIXTNbQ0BIXShbQ0BASF0oW0NIMl0yKVtPSF0pW0NAXTQoW0NIM10pQyg9W0NIXVtDSDJdMylbQ0gyXUMoPU8pW0NIMl1bQ0BIXTRbT0hd

>  <s_epik_cmdline>  (19) 
J2VwaWtfcHl0aG9uJywgJy1waHQnLCAnMi4wJywgJy1waCcsICc3LjAnLCAnLXRuJywgJzgnLCAnLW1hJywgJzIwMCcsICctaW1hZScsICc8aW5maWxlLm1hZT4nLCAnLW9tYWUnLCAnPG91dGZpbGUubWFlPic=

>  <r_lp_tautomer_probability>  (19) 
1

>  <r_epik_Ionization_Penalty>  (19) 
4.07522e-07

>  <r_epik_Ionization_Penalty_Charging>  (19) 
0

>  <r_epik_Ionization_Penalty_Neutral>  (19) 
4.07522e-07

>  <r_epik_State_Penalty>  (19) 
-0

>  <r_epik_Charging_Adjusted_Penalty>  (19) 
0

>  <i_epik_Tot_Q>  (19) 
0

>  <i_epik_Tot_abs_Q>  (19) 
0

>  <s_lp_Force_Field>  (19) 
OPLS3e

>  <r_lp_Energy>  (19) 
37.6719

>  <b_lp_Chiralities_Consistent>  (19) 
1

>  <s_lp_Variant>  (19) 
4:0-1

>  <s_i_glide_gridfile>  (19) 
pfpi4k_grid

>  <i_i_glide_lignum>  (19) 
8

>  <i_i_glide_rotatable_bonds>  (19) 
2

>  <r_i_docking_score>  (19) 
-4.03059

>  <r_i_glide_ligand_efficiency>  (19) 
-0.175243

>  <r_i_glide_ligand_efficiency_sa>  (19) 
-0.498368

>  <r_i_glide_ligand_efficiency_ln>  (19) 
-0.974634

>  <r_i_glide_gscore>  (19) 
-4.03059

>  <r_i_glide_lipo>  (19) 
-0.48621

>  <r_i_glide_hbond>  (19) 
-0.32813

>  <r_i_glide_metal>  (19) 
-0

>  <r_i_glide_rewards>  (19) 
-1.39005

>  <r_i_glide_evdw>  (19) 
-24.5689

>  <r_i_glide_ecoul>  (19) 
-3.98508

>  <r_i_glide_erotb>  (19) 
0

>  <r_i_glide_esite>  (19) 
0

>  <r_i_glide_emodel>  (19) 
-35.6656

>  <r_i_glide_energy>  (19) 
-28.554

>  <r_i_glide_einternal>  (19) 
0.44371

>  <r_i_glide_intrahb_reward>  (19) 
-0

>  <i_i_glide_confnum>  (19) 
2

>  <i_i_glide_posenum>  (19) 
12

>  <r_i_glide_eff_state_penalty>  (19) 
0

>  <ligand_id>  (19) 
4

>  <original_smiles>  (19) 
CC12CC(O)C3C(CC=C4CC(=O)CC(O)C43C)C1CCC2=O

>  <smiles>  (19) 
[H]OC1([H])C([H])([H])C2(C([H])([H])[H])C(=O)C([H])([H])C([H])([H])C2([H])C2([H])C([H])([H])C([H])=C3C([H])([H])C(=O)C([H])([H])C([H])(O[H])C3(C([H])([H])[H])C12[H]

$$$$
4:0:1
     RDKit          3D

 49 52  0  0  1  0  0  0  0  0999 V2000
    6.0675   -3.0500   -2.0621 C   0  0  0  0  0  0  0  0  0  0  0  0
    4.6364   -2.5763   -1.7354 C   0  0  2  0  0  0  0  0  0  0  0  0
    4.6565   -1.2337   -0.9750 C   0  0  0  0  0  0  0  0  0  0  0  0
    4.9445   -1.3803    0.5365 C   0  0  1  0  0  0  0  0  0  0  0  0
    5.0502   -0.0556    1.0005 O   0  0  0  0  0  0  0  0  0  0  0  0
    3.8230   -2.2366    1.2219 C   0  0  1  0  0  0  0  0  0  0  0  0
    3.9004   -3.6458    0.5719 C   0  0  2  0  0  0  0  0  0  0  0  0
    5.1276   -4.4453    1.0809 C   0  0  0  0  0  0  0  0  0  0  0  0
    5.3117   -4.3391    2.5741 C   0  0  0  0  0  0  0  0  0  0  0  0
    4.6994   -3.4265    3.3515 C   0  0  0  0  0  0  0  0  0  0  0  0
    4.7446   -3.5568    4.8644 C   0  0  0  0  0  0  0  0  0  0  0  0
    3.3409   -3.9467    5.3232 C   0  0  0  0  0  0  0  0  0  0  0  0
    3.1484   -4.8748    6.1038 O   0  0  0  0  0  0  0  0  0  0  0  0
    2.1830   -3.1028    4.7838 C   0  0  0  0  0  0  0  0  0  0  0  0
    2.3222   -2.8202    3.2650 C   0  0  1  0  0  0  0  0  0  0  0  0
    1.3137   -1.9003    2.8945 O   0  0  0  0  0  0  0  0  0  0  0  0
    3.7481   -2.3482    2.8075 C   0  0  2  0  0  0  0  0  0  0  0  0
    4.0447   -0.9866    3.4965 C   0  0  0  0  0  0  0  0  0  0  0  0
    3.8012   -3.6366   -0.9782 C   0  0  1  0  0  0  0  0  0  0  0  0
    2.3553   -3.4598   -1.4819 C   0  0  0  0  0  0  0  0  0  0  0  0
    2.4467   -3.0390   -2.9456 C   0  0  0  0  0  0  0  0  0  0  0  0
    3.8234   -2.4189   -3.0338 C   0  0  0  0  0  0  0  0  0  0  0  0
    4.2222   -1.8492   -4.0481 O   0  0  0  0  0  0  0  0  0  0  0  0
    6.6912   -3.1595   -1.1804 H   0  0  0  0  0  0  0  0  0  0  0  0
    6.5821   -2.3464   -2.7130 H   0  0  0  0  0  0  0  0  0  0  0  0
    6.0530   -4.0032   -2.5838 H   0  0  0  0  0  0  0  0  0  0  0  0
    5.3907   -0.5718   -1.4352 H   0  0  0  0  0  0  0  0  0  0  0  0
    3.6995   -0.7259   -1.1071 H   0  0  0  0  0  0  0  0  0  0  0  0
    5.9204   -1.8382    0.6918 H   0  0  0  0  0  0  0  0  0  0  0  0
    4.2356    0.3925    0.8284 H   0  0  0  0  0  0  0  0  0  0  0  0
    2.8881   -1.7744    0.9090 H   0  0  0  0  0  0  0  0  0  0  0  0
    3.0340   -4.2171    0.9062 H   0  0  0  0  0  0  0  0  0  0  0  0
    4.9884   -5.5000    0.8373 H   0  0  0  0  0  0  0  0  0  0  0  0
    6.0621   -4.1418    0.6198 H   0  0  0  0  0  0  0  0  0  0  0  0
    5.9278   -5.1028    3.0248 H   0  0  0  0  0  0  0  0  0  0  0  0
    5.4625   -4.3185    5.1722 H   0  0  0  0  0  0  0  0  0  0  0  0
    5.0421   -2.6220    5.3389 H   0  0  0  0  0  0  0  0  0  0  0  0
    1.2446   -3.6201    4.9878 H   0  0  0  0  0  0  0  0  0  0  0  0
    2.1502   -2.1787    5.3610 H   0  0  0  0  0  0  0  0  0  0  0  0
    2.0810   -3.7602    2.7701 H   0  0  0  0  0  0  0  0  0  0  0  0
    1.5477   -1.0419    3.2140 H   0  0  0  0  0  0  0  0  0  0  0  0
    3.4749   -0.1779    3.0418 H   0  0  0  0  0  0  0  0  0  0  0  0
    5.1034   -0.7346    3.4294 H   0  0  0  0  0  0  0  0  0  0  0  0
    3.7966   -0.9719    4.5555 H   0  0  0  0  0  0  0  0  0  0  0  0
    4.1373   -4.6139   -1.3293 H   0  0  0  0  0  0  0  0  0  0  0  0
    1.7749   -4.3749   -1.3751 H   0  0  0  0  0  0  0  0  0  0  0  0
    1.8533   -2.6802   -0.9131 H   0  0  0  0  0  0  0  0  0  0  0  0
    2.3945   -3.8915   -3.6202 H   0  0  0  0  0  0  0  0  0  0  0  0
    1.6770   -2.3222   -3.2292 H   0  0  0  0  0  0  0  0  0  0  0  0
  2  1  1  6
  1 24  1  0
  1 25  1  0
  1 26  1  0
  2 19  1  0
  2 22  1  0
  2  3  1  0
  3  4  1  0
  3 27  1  0
  3 28  1  0
  4  5  1  0
  4  6  1  0
  4 29  1  6
  5 30  1  0
  6 17  1  0
  6  7  1  0
  6 31  1  6
  7  8  1  0
  7 19  1  0
  7 32  1  1
  8  9  1  0
  8 33  1  0
  8 34  1  0
  9 10  2  0
  9 35  1  0
 10 17  1  0
 10 11  1  0
 11 12  1  0
 11 36  1  0
 11 37  1  0
 12 13  2  0
 12 14  1  0
 14 15  1  0
 14 38  1  0
 14 39  1  0
 15 16  1  0
 15 17  1  0
 15 40  1  6
 16 41  1  0
 17 18  1  1
 18 42  1  0
 18 43  1  0
 18 44  1  0
 19 20  1  0
 19 45  1  6
 20 21  1  0
 20 46  1  0
 20 47  1  0
 21 22  1  0
 21 48  1  0
 21 49  1  0
 22 23  2  0
M  END
>  <i_m_ct_stereo_status>  (20) 
1

>  <s_m_source_file>  (20) 
/var/tmp/pbs.5076255.sched01/tmpnm8fzmj1/0q4giu30i.sdf

>  <i_m_source_file_index>  (20) 
8

>  <i_lp_mmshare_version>  (20) 
48012

>  <i_f3d_flags>  (20) 
0

>  <s_epik_input>  (20) 
Tz1DMVtDSDJdW0NIMl1bQ0BASF0oW0NAQF0xMltDSDNdKVtDQEBIXTNbQ0BIXShbQ0BASF0oW0NIMl0yKVtPSF0pW0NAXTQoW0NIM10pQyg9W0NIXVtDSDJdMylbQ0gyXUMoPU8pW0NIMl1bQ0BIXTRbT0hd

>  <s_epik_cmdline>  (20) 
J2VwaWtfcHl0aG9uJywgJy1waHQnLCAnMi4wJywgJy1waCcsICc3LjAnLCAnLXRuJywgJzgnLCAnLW1hJywgJzIwMCcsICctaW1hZScsICc8aW5maWxlLm1hZT4nLCAnLW9tYWUnLCAnPG91dGZpbGUubWFlPic=

>  <r_lp_tautomer_probability>  (20) 
1

>  <r_epik_Ionization_Penalty>  (20) 
4.07522e-07

>  <r_epik_Ionization_Penalty_Charging>  (20) 
0

>  <r_epik_Ionization_Penalty_Neutral>  (20) 
4.07522e-07

>  <r_epik_State_Penalty>  (20) 
-0

>  <r_epik_Charging_Adjusted_Penalty>  (20) 
0

>  <i_epik_Tot_Q>  (20) 
0

>  <i_epik_Tot_abs_Q>  (20) 
0

>  <s_lp_Force_Field>  (20) 
OPLS3e

>  <r_lp_Energy>  (20) 
37.6719

>  <b_lp_Chiralities_Consistent>  (20) 
1

>  <s_lp_Variant>  (20) 
4:0-1

>  <s_i_glide_gridfile>  (20) 
pfpi4k_grid

>  <i_i_glide_lignum>  (20) 
8

>  <i_i_glide_rotatable_bonds>  (20) 
2

>  <r_i_docking_score>  (20) 
-3.76487

>  <r_i_glide_ligand_efficiency>  (20) 
-0.16369

>  <r_i_glide_ligand_efficiency_sa>  (20) 
-0.465512

>  <r_i_glide_ligand_efficiency_ln>  (20) 
-0.910379

>  <r_i_glide_gscore>  (20) 
-3.76487

>  <r_i_glide_lipo>  (20) 
-0.508221

>  <r_i_glide_hbond>  (20) 
-0.315058

>  <r_i_glide_metal>  (20) 
-0

>  <r_i_glide_rewards>  (20) 
-1.39072

>  <r_i_glide_evdw>  (20) 
-24.755

>  <r_i_glide_ecoul>  (20) 
-2.08742

>  <r_i_glide_erotb>  (20) 
0

>  <r_i_glide_esite>  (20) 
0

>  <r_i_glide_emodel>  (20) 
-33.5654

>  <r_i_glide_energy>  (20) 
-26.8424

>  <r_i_glide_einternal>  (20) 
0.118945

>  <r_i_glide_intrahb_reward>  (20) 
-0

>  <i_i_glide_confnum>  (20) 
2

>  <i_i_glide_posenum>  (20) 
13

>  <r_i_glide_eff_state_penalty>  (20) 
0

>  <ligand_id>  (20) 
4

>  <original_smiles>  (20) 
CC12CC(O)C3C(CC=C4CC(=O)CC(O)C43C)C1CCC2=O

>  <smiles>  (20) 
[H]OC1([H])C([H])([H])C2(C([H])([H])[H])C(=O)C([H])([H])C([H])([H])C2([H])C2([H])C([H])([H])C([H])=C3C([H])([H])C(=O)C([H])([H])C([H])(O[H])C3(C([H])([H])[H])C12[H]

$$$$
4:0:2
     RDKit          3D

 49 52  0  0  1  0  0  0  0  0999 V2000
    6.2198   -3.0493   -2.0160 C   0  0  0  0  0  0  0  0  0  0  0  0
    4.8060   -2.5907   -1.6145 C   0  0  2  0  0  0  0  0  0  0  0  0
    4.8620   -1.3059   -0.7613 C   0  0  0  0  0  0  0  0  0  0  0  0
    5.1938   -1.5660    0.7252 C   0  0  1  0  0  0  0  0  0  0  0  0
    5.3073   -0.2742    1.2724 O   0  0  0  0  0  0  0  0  0  0  0  0
    4.0826   -2.4554    1.3794 C   0  0  1  0  0  0  0  0  0  0  0  0
    4.1202   -3.8162    0.6273 C   0  0  2  0  0  0  0  0  0  0  0  0
    5.3482   -4.6636    1.0434 C   0  0  0  0  0  0  0  0  0  0  0  0
    5.5711   -4.6640    2.5354 C   0  0  0  0  0  0  0  0  0  0  0  0
    4.9961   -3.8039    3.3933 C   0  0  0  0  0  0  0  0  0  0  0  0
    5.0767   -4.0412    4.8931 C   0  0  0  0  0  0  0  0  0  0  0  0
    3.6831   -4.4485    5.3639 C   0  0  0  0  0  0  0  0  0  0  0  0
    3.4998   -5.4293    6.0800 O   0  0  0  0  0  0  0  0  0  0  0  0
    2.5232   -3.5548    4.9175 C   0  0  0  0  0  0  0  0  0  0  0  0
    2.6232   -3.1674    3.4177 C   0  0  1  0  0  0  0  0  0  0  0  0
    1.6071   -2.2219    3.1419 O   0  0  0  0  0  0  0  0  0  0  0  0
    4.0433   -2.6774    2.9563 C   0  0  2  0  0  0  0  0  0  0  0  0
    4.3779   -1.3722    3.7328 C   0  0  0  0  0  0  0  0  0  0  0  0
    3.9749   -3.6945   -0.9153 C   0  0  1  0  0  0  0  0  0  0  0  0
    2.5202   -3.4573   -1.3568 C   0  0  0  0  0  0  0  0  0  0  0  0
    2.5854   -2.9369   -2.7929 C   0  0  0  0  0  0  0  0  0  0  0  0
    3.9725   -2.3359   -2.8795 C   0  0  0  0  0  0  0  0  0  0  0  0
    4.3721   -1.7302   -3.8733 O   0  0  0  0  0  0  0  0  0  0  0  0
    6.8676   -3.2256   -1.1634 H   0  0  0  0  0  0  0  0  0  0  0  0
    6.7258   -2.3111   -2.6333 H   0  0  0  0  0  0  0  0  0  0  0  0
    6.1795   -3.9606   -2.6048 H   0  0  0  0  0  0  0  0  0  0  0  0
    5.5883   -0.6153   -1.1908 H   0  0  0  0  0  0  0  0  0  0  0  0
    3.9090   -0.7752   -0.8159 H   0  0  0  0  0  0  0  0  0  0  0  0
    6.1733   -2.0375    0.8192 H   0  0  0  0  0  0  0  0  0  0  0  0
    5.5921   -0.3678    2.1696 H   0  0  0  0  0  0  0  0  0  0  0  0
    3.1481   -1.9572    1.1289 H   0  0  0  0  0  0  0  0  0  0  0  0
    3.2546   -4.3969    0.9464 H   0  0  0  0  0  0  0  0  0  0  0  0
    5.1870   -5.6953    0.7305 H   0  0  0  0  0  0  0  0  0  0  0  0
    6.2735   -4.3378    0.5785 H   0  0  0  0  0  0  0  0  0  0  0  0
    6.1881   -5.4664    2.9144 H   0  0  0  0  0  0  0  0  0  0  0  0
    5.7923   -4.8306    5.1246 H   0  0  0  0  0  0  0  0  0  0  0  0
    5.4016   -3.1473    5.4235 H   0  0  0  0  0  0  0  0  0  0  0  0
    1.5827   -4.0735    5.1088 H   0  0  0  0  0  0  0  0  0  0  0  0
    2.5197   -2.6721    5.5579 H   0  0  0  0  0  0  0  0  0  0  0  0
    2.3591   -4.0683    2.8654 H   0  0  0  0  0  0  0  0  0  0  0  0
    1.8401   -1.3951    3.5412 H   0  0  0  0  0  0  0  0  0  0  0  0
    3.8058   -0.5257    3.3520 H   0  0  0  0  0  0  0  0  0  0  0  0
    5.4397   -1.1328    3.6723 H   0  0  0  0  0  0  0  0  0  0  0  0
    4.1525   -1.4322    4.7958 H   0  0  0  0  0  0  0  0  0  0  0  0
    4.2721   -4.6512   -1.3491 H   0  0  0  0  0  0  0  0  0  0  0  0
    1.9204   -4.3618   -1.2946 H   0  0  0  0  0  0  0  0  0  0  0  0
    2.0518   -2.7020   -0.7237 H   0  0  0  0  0  0  0  0  0  0  0  0
    2.4988   -3.7472   -3.5193 H   0  0  0  0  0  0  0  0  0  0  0  0
    1.8140   -2.1954   -3.0028 H   0  0  0  0  0  0  0  0  0  0  0  0
  2  1  1  6
  1 24  1  0
  1 25  1  0
  1 26  1  0
  2 19  1  0
  2 22  1  0
  2  3  1  0
  3  4  1  0
  3 27  1  0
  3 28  1  0
  4  5  1  0
  4  6  1  0
  4 29  1  6
  5 30  1  0
  6 17  1  0
  6  7  1  0
  6 31  1  6
  7  8  1  0
  7 19  1  0
  7 32  1  1
  8  9  1  0
  8 33  1  0
  8 34  1  0
  9 10  2  0
  9 35  1  0
 10 17  1  0
 10 11  1  0
 11 12  1  0
 11 36  1  0
 11 37  1  0
 12 13  2  0
 12 14  1  0
 14 15  1  0
 14 38  1  0
 14 39  1  0
 15 16  1  0
 15 17  1  0
 15 40  1  6
 16 41  1  0
 17 18  1  1
 18 42  1  0
 18 43  1  0
 18 44  1  0
 19 20  1  0
 19 45  1  6
 20 21  1  0
 20 46  1  0
 20 47  1  0
 21 22  1  0
 21 48  1  0
 21 49  1  0
 22 23  2  0
M  END
>  <i_m_ct_stereo_status>  (21) 
1

>  <s_m_source_file>  (21) 
/var/tmp/pbs.5076255.sched01/tmpnm8fzmj1/0q4giu30i.sdf

>  <i_m_source_file_index>  (21) 
8

>  <i_lp_mmshare_version>  (21) 
48012

>  <i_f3d_flags>  (21) 
0

>  <s_epik_input>  (21) 
Tz1DMVtDSDJdW0NIMl1bQ0BASF0oW0NAQF0xMltDSDNdKVtDQEBIXTNbQ0BIXShbQ0BASF0oW0NIMl0yKVtPSF0pW0NAXTQoW0NIM10pQyg9W0NIXVtDSDJdMylbQ0gyXUMoPU8pW0NIMl1bQ0BIXTRbT0hd

>  <s_epik_cmdline>  (21) 
J2VwaWtfcHl0aG9uJywgJy1waHQnLCAnMi4wJywgJy1waCcsICc3LjAnLCAnLXRuJywgJzgnLCAnLW1hJywgJzIwMCcsICctaW1hZScsICc8aW5maWxlLm1hZT4nLCAnLW9tYWUnLCAnPG91dGZpbGUubWFlPic=

>  <r_lp_tautomer_probability>  (21) 
1

>  <r_epik_Ionization_Penalty>  (21) 
4.07522e-07

>  <r_epik_Ionization_Penalty_Charging>  (21) 
0

>  <r_epik_Ionization_Penalty_Neutral>  (21) 
4.07522e-07

>  <r_epik_State_Penalty>  (21) 
-0

>  <r_epik_Charging_Adjusted_Penalty>  (21) 
0

>  <i_epik_Tot_Q>  (21) 
0

>  <i_epik_Tot_abs_Q>  (21) 
0

>  <s_lp_Force_Field>  (21) 
OPLS3e

>  <r_lp_Energy>  (21) 
37.6719

>  <b_lp_Chiralities_Consistent>  (21) 
1

>  <s_lp_Variant>  (21) 
4:0-1

>  <s_i_glide_gridfile>  (21) 
pfpi4k_grid

>  <i_i_glide_lignum>  (21) 
8

>  <i_i_glide_rotatable_bonds>  (21) 
2

>  <r_i_docking_score>  (21) 
-3.38767

>  <r_i_glide_ligand_efficiency>  (21) 
-0.14729

>  <r_i_glide_ligand_efficiency_sa>  (21) 
-0.418873

>  <r_i_glide_ligand_efficiency_ln>  (21) 
-0.81917

>  <r_i_glide_gscore>  (21) 
-3.38767

>  <r_i_glide_lipo>  (21) 
-0.423158

>  <r_i_glide_hbond>  (21) 
-0.172275

>  <r_i_glide_metal>  (21) 
-0

>  <r_i_glide_rewards>  (21) 
-1.39234

>  <r_i_glide_evdw>  (21) 
-25.2942

>  <r_i_glide_ecoul>  (21) 
-0.901259

>  <r_i_glide_erotb>  (21) 
0

>  <r_i_glide_esite>  (21) 
0

>  <r_i_glide_emodel>  (21) 
-32.1337

>  <r_i_glide_energy>  (21) 
-26.1955

>  <r_i_glide_einternal>  (21) 
0.38249

>  <r_i_glide_intrahb_reward>  (21) 
-0

>  <i_i_glide_confnum>  (21) 
1

>  <i_i_glide_posenum>  (21) 
19

>  <r_i_glide_eff_state_penalty>  (21) 
0

>  <ligand_id>  (21) 
4

>  <original_smiles>  (21) 
CC12CC(O)C3C(CC=C4CC(=O)CC(O)C43C)C1CCC2=O

>  <smiles>  (21) 
[H]OC1([H])C([H])([H])C2(C([H])([H])[H])C(=O)C([H])([H])C([H])([H])C2([H])C2([H])C([H])([H])C([H])=C3C([H])([H])C(=O)C([H])([H])C([H])(O[H])C3(C([H])([H])[H])C12[H]

$$$$
6:0:0
     RDKit          3D

 38 40  0  0  1  0  0  0  0  0999 V2000
    5.4083   -3.1228   -2.6534 C   0  0  0  0  0  0  0  0  0  0  0  0
    4.6795   -3.6945   -1.4592 C   0  0  0  0  0  0  0  0  0  0  0  0
    4.1739   -3.0427   -0.3825 C   0  0  0  0  0  0  0  0  0  0  0  0
    4.3029   -1.5363   -0.2462 C   0  0  0  0  0  0  0  0  0  0  0  0
    4.7137   -1.1925    1.1803 C   0  0  0  0  0  0  0  0  0  0  0  0
    3.6540   -1.6965    2.1621 C   0  0  0  0  0  0  0  0  0  0  0  0
    3.3242   -3.1737    2.0123 C   0  0  0  0  0  0  0  0  0  0  0  0
    2.8270   -3.7604    3.1244 C   0  0  0  0  0  0  0  0  0  0  0  0
    2.3386   -5.0240    3.3829 O   0  0  0  0  0  0  0  0  0  0  0  0
    2.5520   -6.1030    2.4868 C   0  0  1  0  0  0  0  0  0  0  0  0
    1.9353   -7.3659    3.1536 C   0  0  2  0  0  0  0  0  0  0  0  0
    2.1652   -8.6829    2.3980 C   0  0  0  0  0  0  0  0  0  0  0  0
    0.8723   -9.4744    2.6073 C   0  0  0  0  0  0  0  0  0  0  0  0
   -0.1008   -8.5077    2.9582 O   0  0  0  0  0  0  0  0  0  0  0  0
    0.4105   -7.3310    3.3114 C   0  0  0  0  0  0  0  0  0  0  0  0
   -0.2329   -6.3459    3.6804 O   0  0  0  0  0  0  0  0  0  0  0  0
    1.9920   -5.7641    1.1027 C   0  0  0  0  0  0  0  0  0  0  0  0
    0.9456   -6.2423    0.6677 O   0  0  0  0  0  0  0  0  0  0  0  0
    2.7616   -4.8686    0.2917 C   0  0  0  0  0  0  0  0  0  0  0  0
    3.4410   -3.7712    0.6667 C   0  0  0  0  0  0  0  0  0  0  0  0
    5.0656   -3.6343   -3.5561 H   0  0  0  0  0  0  0  0  0  0  0  0
    6.4772   -3.3168   -2.5480 H   0  0  0  0  0  0  0  0  0  0  0  0
    5.2397   -2.0537   -2.8027 H   0  0  0  0  0  0  0  0  0  0  0  0
    4.6163   -4.7708   -1.5054 H   0  0  0  0  0  0  0  0  0  0  0  0
    5.0480   -1.1339   -0.9204 H   0  0  0  0  0  0  0  0  0  0  0  0
    3.3400   -1.0847   -0.4999 H   0  0  0  0  0  0  0  0  0  0  0  0
    5.6691   -1.6631    1.4102 H   0  0  0  0  0  0  0  0  0  0  0  0
    4.8469   -0.1184    1.2867 H   0  0  0  0  0  0  0  0  0  0  0  0
    3.9930   -1.5070    3.1813 H   0  0  0  0  0  0  0  0  0  0  0  0
    2.7239   -1.1359    2.0201 H   0  0  0  0  0  0  0  0  0  0  0  0
    2.7584   -3.1928    4.0384 H   0  0  0  0  0  0  0  0  0  0  0  0
    3.6310   -6.2445    2.3782 H   0  0  0  0  0  0  0  0  0  0  0  0
    2.3433   -7.4749    4.1591 H   0  0  0  0  0  0  0  0  0  0  0  0
    2.3283   -8.5335    1.3278 H   0  0  0  0  0  0  0  0  0  0  0  0
    3.0419   -9.2205    2.7665 H   0  0  0  0  0  0  0  0  0  0  0  0
    0.6106  -10.0416    1.7056 H   0  0  0  0  0  0  0  0  0  0  0  0
    0.9638  -10.1579    3.4490 H   0  0  0  0  0  0  0  0  0  0  0  0
    2.7549   -5.1684   -0.7303 H   0  0  0  0  0  0  0  0  0  0  0  0
  1  2  1  0
  1 21  1  0
  1 22  1  0
  1 23  1  0
  2  3  2  3
  2 24  1  0
  3 20  1  0
  3  4  1  0
  4  5  1  0
  4 25  1  0
  4 26  1  0
  5  6  1  0
  5 27  1  0
  5 28  1  0
  6  7  1  0
  6 29  1  0
  6 30  1  0
  7 20  1  0
  7  8  2  0
  8  9  1  0
  8 31  1  0
  9 10  1  0
 10 11  1  0
 10 17  1  0
 10 32  1  6
 11 15  1  0
 11 12  1  0
 11 33  1  1
 12 13  1  0
 12 34  1  0
 12 35  1  0
 13 14  1  0
 13 36  1  0
 13 37  1  0
 14 15  1  0
 15 16  2  0
 17 18  2  0
 17 19  1  0
 19 20  2  0
 19 38  1  0
M  END
>  <i_m_ct_stereo_status>  (22) 
1

>  <s_m_source_file>  (22) 
/var/tmp/pbs.5076255.sched01/tmpnm8fzmj1/0q4giu30i.sdf

>  <i_m_source_file_index>  (22) 
10

>  <i_lp_mmshare_version>  (22) 
48012

>  <i_f3d_flags>  (22) 
0

>  <s_epik_input>  (22) 
W0NIMl0xW0NIMl1bQ0gyXS9DKD1bQ0hdXFtDSDNdKUMoQzE9Mik9W0NIXUMoPU8pW0NAQEhdKE9bQ0hdMilbQ0BASF0zW0NIMl1bQ0gyXU9DMz1P

>  <s_epik_cmdline>  (22) 
J2VwaWtfcHl0aG9uJywgJy1waHQnLCAnMi4wJywgJy1waCcsICc3LjAnLCAnLXRuJywgJzgnLCAnLW1hJywgJzIwMCcsICctaW1hZScsICc8aW5maWxlLm1hZT4nLCAnLW9tYWUnLCAnPG91dGZpbGUubWFlPic=

>  <r_lp_tautomer_probability>  (22) 
1

>  <r_epik_Ionization_Penalty>  (22) 
0

>  <r_epik_Ionization_Penalty_Charging>  (22) 
0

>  <r_epik_Ionization_Penalty_Neutral>  (22) 
0

>  <r_epik_State_Penalty>  (22) 
-0

>  <r_epik_Charging_Adjusted_Penalty>  (22) 
0

>  <i_epik_Tot_Q>  (22) 
0

>  <i_epik_Tot_abs_Q>  (22) 
0

>  <s_epik_Chemistry_Notes>  (22) 
This compound has an ester and may undergo hydrolysis at high or low pH.

>  <s_lp_Force_Field>  (22) 
OPLS3e

>  <r_lp_Energy>  (22) 
20.7351

>  <b_lp_Chiralities_Consistent>  (22) 
1

>  <s_lp_Variant>  (22) 
6:0-1

>  <s_i_glide_gridfile>  (22) 
pfpi4k_grid

>  <i_i_glide_lignum>  (22) 
10

>  <i_i_glide_rotatable_bonds>  (22) 
1

>  <r_i_docking_score>  (22) 
-3.79403

>  <r_i_glide_ligand_efficiency>  (22) 
-0.189701

>  <r_i_glide_ligand_efficiency_sa>  (22) 
-0.514929

>  <r_i_glide_ligand_efficiency_ln>  (22) 
-0.94952

>  <r_i_glide_gscore>  (22) 
-3.79403

>  <r_i_glide_lipo>  (22) 
-0.318948

>  <r_i_glide_hbond>  (22) 
-0.244797

>  <r_i_glide_metal>  (22) 
-0

>  <r_i_glide_rewards>  (22) 
-1.53878

>  <r_i_glide_evdw>  (22) 
-20.9902

>  <r_i_glide_ecoul>  (22) 
-5.2949

>  <r_i_glide_erotb>  (22) 
0.23861

>  <r_i_glide_esite>  (22) 
-0.0863643

>  <r_i_glide_emodel>  (22) 
-31.2209

>  <r_i_glide_energy>  (22) 
-26.2851

>  <r_i_glide_einternal>  (22) 
3.41185

>  <r_i_glide_intrahb_reward>  (22) 
-0

>  <i_i_glide_confnum>  (22) 
6

>  <i_i_glide_posenum>  (22) 
31

>  <r_i_glide_eff_state_penalty>  (22) 
0

>  <ligand_id>  (22) 
6

>  <original_smiles>  (22) 
CC=C1CCCC2=COC(C3CCOC3=O)C(=O)C=C12

>  <smiles>  (22) 
[H]C1=C2C(=C([H])C(=O)C([H])(C3([H])C(=O)OC([H])([H])C3([H])[H])O1)C(=C([H])C([H])([H])[H])C([H])([H])C([H])([H])C2([H])[H]

$$$$
6:0:1
     RDKit          3D

 38 40  0  0  1  0  0  0  0  0999 V2000
    3.4432   -1.0571   -2.8380 C   0  0  0  0  0  0  0  0  0  0  0  0
    3.4733   -2.0945   -1.7318 C   0  0  0  0  0  0  0  0  0  0  0  0
    4.5307   -2.5038   -0.9880 C   0  0  0  0  0  0  0  0  0  0  0  0
    5.9144   -1.9318   -1.2260 C   0  0  0  0  0  0  0  0  0  0  0  0
    6.9458   -3.0501   -1.2461 C   0  0  0  0  0  0  0  0  0  0  0  0
    6.9264   -3.7864    0.0931 C   0  0  0  0  0  0  0  0  0  0  0  0
    5.5391   -4.2693    0.5188 C   0  0  0  0  0  0  0  0  0  0  0  0
    5.5650   -5.3256    1.3712 C   0  0  0  0  0  0  0  0  0  0  0  0
    4.5657   -5.9896    2.0513 O   0  0  0  0  0  0  0  0  0  0  0  0
    3.2165   -5.8721    1.6288 C   0  0  1  0  0  0  0  0  0  0  0  0
    2.4129   -6.8623    2.5233 C   0  0  2  0  0  0  0  0  0  0  0  0
    3.0090   -8.2706    2.5578 C   0  0  0  0  0  0  0  0  0  0  0  0
    1.8068   -9.2112    2.6414 C   0  0  0  0  0  0  0  0  0  0  0  0
    0.7362   -8.4477    2.1160 O   0  0  0  0  0  0  0  0  0  0  0  0
    0.9909   -7.1456    2.0307 C   0  0  0  0  0  0  0  0  0  0  0  0
    0.2152   -6.2774    1.6186 O   0  0  0  0  0  0  0  0  0  0  0  0
    2.7651   -4.4242    1.7964 C   0  0  0  0  0  0  0  0  0  0  0  0
    2.0587   -4.0979    2.7563 O   0  0  0  0  0  0  0  0  0  0  0  0
    3.1593   -3.4834    0.7553 C   0  0  0  0  0  0  0  0  0  0  0  0
    4.3504   -3.4824    0.1038 C   0  0  0  0  0  0  0  0  0  0  0  0
    2.5419   -0.4511   -2.7181 H   0  0  0  0  0  0  0  0  0  0  0  0
    3.3824   -1.5557   -3.8070 H   0  0  0  0  0  0  0  0  0  0  0  0
    4.2853   -0.3606   -2.8286 H   0  0  0  0  0  0  0  0  0  0  0  0
    2.5090   -2.5505   -1.5798 H   0  0  0  0  0  0  0  0  0  0  0  0
    5.9686   -1.4185   -2.1773 H   0  0  0  0  0  0  0  0  0  0  0  0
    6.1310   -1.2059   -0.4385 H   0  0  0  0  0  0  0  0  0  0  0  0
    6.7061   -3.7439   -2.0492 H   0  0  0  0  0  0  0  0  0  0  0  0
    7.9426   -2.6639   -1.4532 H   0  0  0  0  0  0  0  0  0  0  0  0
    7.6221   -4.6279    0.0491 H   0  0  0  0  0  0  0  0  0  0  0  0
    7.3005   -3.1257    0.8813 H   0  0  0  0  0  0  0  0  0  0  0  0
    6.5082   -5.7830    1.6348 H   0  0  0  0  0  0  0  0  0  0  0  0
    3.1268   -6.1624    0.5791 H   0  0  0  0  0  0  0  0  0  0  0  0
    2.3465   -6.4892    3.5443 H   0  0  0  0  0  0  0  0  0  0  0  0
    3.5684   -8.4642    1.6401 H   0  0  0  0  0  0  0  0  0  0  0  0
    3.6969   -8.4081    3.3955 H   0  0  0  0  0  0  0  0  0  0  0  0
    1.9796  -10.1271    2.0782 H   0  0  0  0  0  0  0  0  0  0  0  0
    1.5841   -9.4730    3.6770 H   0  0  0  0  0  0  0  0  0  0  0  0
    2.3954   -2.7722    0.4903 H   0  0  0  0  0  0  0  0  0  0  0  0
  1  2  1  0
  1 21  1  0
  1 22  1  0
  1 23  1  0
  2  3  2  3
  2 24  1  0
  3 20  1  0
  3  4  1  0
  4  5  1  0
  4 25  1  0
  4 26  1  0
  5  6  1  0
  5 27  1  0
  5 28  1  0
  6  7  1  0
  6 29  1  0
  6 30  1  0
  7 20  1  0
  7  8  2  0
  8  9  1  0
  8 31  1  0
  9 10  1  0
 10 11  1  0
 10 17  1  0
 10 32  1  6
 11 15  1  0
 11 12  1  0
 11 33  1  1
 12 13  1  0
 12 34  1  0
 12 35  1  0
 13 14  1  0
 13 36  1  0
 13 37  1  0
 14 15  1  0
 15 16  2  0
 17 18  2  0
 17 19  1  0
 19 20  2  0
 19 38  1  0
M  END
>  <i_m_ct_stereo_status>  (23) 
1

>  <s_m_source_file>  (23) 
/var/tmp/pbs.5076255.sched01/tmpnm8fzmj1/0q4giu30i.sdf

>  <i_m_source_file_index>  (23) 
10

>  <i_lp_mmshare_version>  (23) 
48012

>  <i_f3d_flags>  (23) 
0

>  <s_epik_input>  (23) 
W0NIMl0xW0NIMl1bQ0gyXS9DKD1bQ0hdXFtDSDNdKUMoQzE9Mik9W0NIXUMoPU8pW0NAQEhdKE9bQ0hdMilbQ0BASF0zW0NIMl1bQ0gyXU9DMz1P

>  <s_epik_cmdline>  (23) 
J2VwaWtfcHl0aG9uJywgJy1waHQnLCAnMi4wJywgJy1waCcsICc3LjAnLCAnLXRuJywgJzgnLCAnLW1hJywgJzIwMCcsICctaW1hZScsICc8aW5maWxlLm1hZT4nLCAnLW9tYWUnLCAnPG91dGZpbGUubWFlPic=

>  <r_lp_tautomer_probability>  (23) 
1

>  <r_epik_Ionization_Penalty>  (23) 
0

>  <r_epik_Ionization_Penalty_Charging>  (23) 
0

>  <r_epik_Ionization_Penalty_Neutral>  (23) 
0

>  <r_epik_State_Penalty>  (23) 
-0

>  <r_epik_Charging_Adjusted_Penalty>  (23) 
0

>  <i_epik_Tot_Q>  (23) 
0

>  <i_epik_Tot_abs_Q>  (23) 
0

>  <s_epik_Chemistry_Notes>  (23) 
This compound has an ester and may undergo hydrolysis at high or low pH.

>  <s_lp_Force_Field>  (23) 
OPLS3e

>  <r_lp_Energy>  (23) 
20.7351

>  <b_lp_Chiralities_Consistent>  (23) 
1

>  <s_lp_Variant>  (23) 
6:0-1

>  <s_i_glide_gridfile>  (23) 
pfpi4k_grid

>  <i_i_glide_lignum>  (23) 
10

>  <i_i_glide_rotatable_bonds>  (23) 
1

>  <r_i_docking_score>  (23) 
-3.48518

>  <r_i_glide_ligand_efficiency>  (23) 
-0.174259

>  <r_i_glide_ligand_efficiency_sa>  (23) 
-0.473012

>  <r_i_glide_ligand_efficiency_ln>  (23) 
-0.872225

>  <r_i_glide_gscore>  (23) 
-3.48518

>  <r_i_glide_lipo>  (23) 
-0.366668

>  <r_i_glide_hbond>  (23) 
-0.257662

>  <r_i_glide_metal>  (23) 
-0

>  <r_i_glide_rewards>  (23) 
-1.53878

>  <r_i_glide_evdw>  (23) 
-21.9354

>  <r_i_glide_ecoul>  (23) 
-2.71347

>  <r_i_glide_erotb>  (23) 
0.23861

>  <r_i_glide_esite>  (23) 
-0.0568863

>  <r_i_glide_emodel>  (23) 
-28.7847

>  <r_i_glide_energy>  (23) 
-24.6488

>  <r_i_glide_einternal>  (23) 
4.3007

>  <r_i_glide_intrahb_reward>  (23) 
-0

>  <i_i_glide_confnum>  (23) 
5

>  <i_i_glide_posenum>  (23) 
39

>  <r_i_glide_eff_state_penalty>  (23) 
0

>  <ligand_id>  (23) 
6

>  <original_smiles>  (23) 
CC=C1CCCC2=COC(C3CCOC3=O)C(=O)C=C12

>  <smiles>  (23) 
[H]C1=C2C(=C([H])C(=O)C([H])(C3([H])C(=O)OC([H])([H])C3([H])[H])O1)C(=C([H])C([H])([H])[H])C([H])([H])C([H])([H])C2([H])[H]

$$$$
6:0:2
     RDKit          3D

 38 40  0  0  1  0  0  0  0  0999 V2000
    1.2818  -10.3786    4.9985 C   0  0  0  0  0  0  0  0  0  0  0  0
    1.7618   -9.2864    4.0674 C   0  0  0  0  0  0  0  0  0  0  0  0
    2.7908   -9.3214    3.1873 C   0  0  0  0  0  0  0  0  0  0  0  0
    3.6565  -10.5588    3.0446 C   0  0  0  0  0  0  0  0  0  0  0  0
    5.1271  -10.1630    2.9915 C   0  0  0  0  0  0  0  0  0  0  0  0
    5.3714   -9.2447    1.7977 C   0  0  0  0  0  0  0  0  0  0  0  0
    4.4369   -8.0321    1.7574 C   0  0  0  0  0  0  0  0  0  0  0  0
    4.9514   -6.9773    1.0879 C   0  0  0  0  0  0  0  0  0  0  0  0
    4.4321   -5.7511    0.7619 O   0  0  0  0  0  0  0  0  0  0  0  0
    3.2682   -5.2517    1.3977 C   0  0  1  0  0  0  0  0  0  0  0  0
    3.0611   -3.8312    0.8041 C   0  0  2  0  0  0  0  0  0  0  0  0
    3.0224   -3.7647   -0.7242 C   0  0  0  0  0  0  0  0  0  0  0  0
    3.7313   -2.4661   -1.0929 C   0  0  0  0  0  0  0  0  0  0  0  0
    4.5395   -2.1816    0.0357 O   0  0  0  0  0  0  0  0  0  0  0  0
    4.2001   -2.8733    1.1309 C   0  0  0  0  0  0  0  0  0  0  0  0
    4.7252   -2.7815    2.2408 O   0  0  0  0  0  0  0  0  0  0  0  0
    2.0722   -6.1794    1.1646 C   0  0  0  0  0  0  0  0  0  0  0  0
    1.1606   -5.8658    0.4023 O   0  0  0  0  0  0  0  0  0  0  0  0
    2.0103   -7.4066    1.9393 C   0  0  0  0  0  0  0  0  0  0  0  0
    3.0652   -8.1705    2.3097 C   0  0  0  0  0  0  0  0  0  0  0  0
    0.1913  -10.3881    5.0033 H   0  0  0  0  0  0  0  0  0  0  0  0
    1.6136  -10.1732    6.0181 H   0  0  0  0  0  0  0  0  0  0  0  0
    1.6029  -11.3815    4.7160 H   0  0  0  0  0  0  0  0  0  0  0  0
    1.2013   -8.3740    4.1924 H   0  0  0  0  0  0  0  0  0  0  0  0
    3.5245  -11.2512    3.8706 H   0  0  0  0  0  0  0  0  0  0  0  0
    3.3550  -11.0750    2.1336 H   0  0  0  0  0  0  0  0  0  0  0  0
    5.3984   -9.6463    3.9103 H   0  0  0  0  0  0  0  0  0  0  0  0
    5.7543  -11.0498    2.9206 H   0  0  0  0  0  0  0  0  0  0  0  0
    6.4134   -8.9180    1.8163 H   0  0  0  0  0  0  0  0  0  0  0  0
    5.2406   -9.8054    0.8699 H   0  0  0  0  0  0  0  0  0  0  0  0
    5.9568   -7.0171    0.6953 H   0  0  0  0  0  0  0  0  0  0  0  0
    3.4290   -5.1771    2.4775 H   0  0  0  0  0  0  0  0  0  0  0  0
    2.1567   -3.3758    1.2055 H   0  0  0  0  0  0  0  0  0  0  0  0
    3.5815   -4.5976   -1.1429 H   0  0  0  0  0  0  0  0  0  0  0  0
    2.0120   -3.8132   -1.1360 H   0  0  0  0  0  0  0  0  0  0  0  0
    4.3236   -2.5782   -2.0019 H   0  0  0  0  0  0  0  0  0  0  0  0
    3.0177   -1.6577   -1.2324 H   0  0  0  0  0  0  0  0  0  0  0  0
    1.0122   -7.6637    2.2642 H   0  0  0  0  0  0  0  0  0  0  0  0
  1  2  1  0
  1 21  1  0
  1 22  1  0
  1 23  1  0
  2  3  2  3
  2 24  1  0
  3 20  1  0
  3  4  1  0
  4  5  1  0
  4 25  1  0
  4 26  1  0
  5  6  1  0
  5 27  1  0
  5 28  1  0
  6  7  1  0
  6 29  1  0
  6 30  1  0
  7 20  1  0
  7  8  2  0
  8  9  1  0
  8 31  1  0
  9 10  1  0
 10 11  1  0
 10 17  1  0
 10 32  1  1
 11 15  1  0
 11 12  1  0
 11 33  1  1
 12 13  1  0
 12 34  1  0
 12 35  1  0
 13 14  1  0
 13 36  1  0
 13 37  1  0
 14 15  1  0
 15 16  2  0
 17 18  2  0
 17 19  1  0
 19 20  2  0
 19 38  1  0
M  END
>  <i_m_ct_stereo_status>  (24) 
1

>  <s_m_source_file>  (24) 
/var/tmp/pbs.5076255.sched01/tmpnm8fzmj1/0q4giu30i.sdf

>  <i_m_source_file_index>  (24) 
10

>  <i_lp_mmshare_version>  (24) 
48012

>  <i_f3d_flags>  (24) 
0

>  <s_epik_input>  (24) 
W0NIMl0xW0NIMl1bQ0gyXS9DKD1bQ0hdXFtDSDNdKUMoQzE9Mik9W0NIXUMoPU8pW0NAQEhdKE9bQ0hdMilbQ0BASF0zW0NIMl1bQ0gyXU9DMz1P

>  <s_epik_cmdline>  (24) 
J2VwaWtfcHl0aG9uJywgJy1waHQnLCAnMi4wJywgJy1waCcsICc3LjAnLCAnLXRuJywgJzgnLCAnLW1hJywgJzIwMCcsICctaW1hZScsICc8aW5maWxlLm1hZT4nLCAnLW9tYWUnLCAnPG91dGZpbGUubWFlPic=

>  <r_lp_tautomer_probability>  (24) 
1

>  <r_epik_Ionization_Penalty>  (24) 
0

>  <r_epik_Ionization_Penalty_Charging>  (24) 
0

>  <r_epik_Ionization_Penalty_Neutral>  (24) 
0

>  <r_epik_State_Penalty>  (24) 
-0

>  <r_epik_Charging_Adjusted_Penalty>  (24) 
0

>  <i_epik_Tot_Q>  (24) 
0

>  <i_epik_Tot_abs_Q>  (24) 
0

>  <s_epik_Chemistry_Notes>  (24) 
This compound has an ester and may undergo hydrolysis at high or low pH.

>  <s_lp_Force_Field>  (24) 
OPLS3e

>  <r_lp_Energy>  (24) 
20.7351

>  <b_lp_Chiralities_Consistent>  (24) 
1

>  <s_lp_Variant>  (24) 
6:0-1

>  <s_i_glide_gridfile>  (24) 
pfpi4k_grid

>  <i_i_glide_lignum>  (24) 
10

>  <i_i_glide_rotatable_bonds>  (24) 
1

>  <r_i_docking_score>  (24) 
-3.26796

>  <r_i_glide_ligand_efficiency>  (24) 
-0.163398

>  <r_i_glide_ligand_efficiency_sa>  (24) 
-0.44353

>  <r_i_glide_ligand_efficiency_ln>  (24) 
-0.817861

>  <r_i_glide_gscore>  (24) 
-3.26796

>  <r_i_glide_lipo>  (24) 
-0.0999931

>  <r_i_glide_hbond>  (24) 
-0.16

>  <r_i_glide_metal>  (24) 
-0

>  <r_i_glide_rewards>  (24) 
-1.54596

>  <r_i_glide_evdw>  (24) 
-18.5154

>  <r_i_glide_ecoul>  (24) 
-4.94908

>  <r_i_glide_erotb>  (24) 
0.23861

>  <r_i_glide_esite>  (24) 
-0.032483

>  <r_i_glide_emodel>  (24) 
-29.3395

>  <r_i_glide_energy>  (24) 
-23.4645

>  <r_i_glide_einternal>  (24) 
0.00657003

>  <r_i_glide_intrahb_reward>  (24) 
-0

>  <i_i_glide_confnum>  (24) 
4

>  <i_i_glide_posenum>  (24) 
27

>  <r_i_glide_eff_state_penalty>  (24) 
0

>  <ligand_id>  (24) 
6

>  <original_smiles>  (24) 
CC=C1CCCC2=COC(C3CCOC3=O)C(=O)C=C12

>  <smiles>  (24) 
[H]C1=C2C(=C([H])C(=O)C([H])(C3([H])C(=O)OC([H])([H])C3([H])[H])O1)C(=C([H])C([H])([H])[H])C([H])([H])C([H])([H])C2([H])[H]

$$$$
6:1:0
     RDKit          3D

 38 40  0  0  1  0  0  0  0  0999 V2000
   -3.7482    3.3436    8.8832 C   0  0  0  0  0  0  0  0  0  0  0  0
   -2.7196    3.0492    9.9651 C   0  0  0  0  0  0  0  0  0  0  0  0
   -1.4105    2.7671    9.8023 C   0  0  0  0  0  0  0  0  0  0  0  0
   -0.5354    2.4876   11.0120 C   0  0  0  0  0  0  0  0  0  0  0  0
    0.2919    1.1994   10.8411 C   0  0  0  0  0  0  0  0  0  0  0  0
    0.2932    0.6443    9.3988 C   0  0  0  0  0  0  0  0  0  0  0  0
    0.2749    1.7406    8.3307 C   0  0  0  0  0  0  0  0  0  0  0  0
    1.1785    1.6315    7.3262 C   0  0  0  0  0  0  0  0  0  0  0  0
    1.4057    2.4489    6.2440 O   0  0  0  0  0  0  0  0  0  0  0  0
    0.3139    3.1068    5.6137 C   0  0  1  0  0  0  0  0  0  0  0  0
   -0.7854    2.1656    5.0567 C   0  0  2  0  0  0  0  0  0  0  0  0
   -0.2297    1.1111    4.0951 C   0  0  0  0  0  0  0  0  0  0  0  0
   -0.4044    1.7211    2.7039 C   0  0  0  0  0  0  0  0  0  0  0  0
   -1.5128    2.5795    2.8709 O   0  0  0  0  0  0  0  0  0  0  0  0
   -1.7402    2.9163    4.1287 C   0  0  0  0  0  0  0  0  0  0  0  0
   -2.5876    3.7086    4.5242 O   0  0  0  0  0  0  0  0  0  0  0  0
   -0.2219    4.2351    6.4913 C   0  0  0  0  0  0  0  0  0  0  0  0
   -0.1744    5.3839    6.0465 O   0  0  0  0  0  0  0  0  0  0  0  0
   -0.8596    3.9349    7.7708 C   0  0  0  0  0  0  0  0  0  0  0  0
   -0.6987    2.8261    8.5281 C   0  0  0  0  0  0  0  0  0  0  0  0
   -4.6450    2.7565    9.0701 H   0  0  0  0  0  0  0  0  0  0  0  0
   -3.3918    3.0972    7.8818 H   0  0  0  0  0  0  0  0  0  0  0  0
   -4.0344    4.3959    8.9051 H   0  0  0  0  0  0  0  0  0  0  0  0
   -3.1168    3.0663   10.9735 H   0  0  0  0  0  0  0  0  0  0  0  0
    0.1412    3.3369   11.1214 H   0  0  0  0  0  0  0  0  0  0  0  0
   -1.1153    2.4534   11.9344 H   0  0  0  0  0  0  0  0  0  0  0  0
    1.3136    1.3961   11.1658 H   0  0  0  0  0  0  0  0  0  0  0  0
   -0.0854    0.4357   11.5210 H   0  0  0  0  0  0  0  0  0  0  0  0
    1.1501   -0.0206    9.2730 H   0  0  0  0  0  0  0  0  0  0  0  0
   -0.5943    0.0291    9.2555 H   0  0  0  0  0  0  0  0  0  0  0  0
    1.8625    0.7939    7.2829 H   0  0  0  0  0  0  0  0  0  0  0  0
    0.7608    3.6071    4.7525 H   0  0  0  0  0  0  0  0  0  0  0  0
   -1.3458    1.6966    5.8657 H   0  0  0  0  0  0  0  0  0  0  0  0
    0.8107    0.8541    4.2897 H   0  0  0  0  0  0  0  0  0  0  0  0
   -0.8192    0.1990    4.1799 H   0  0  0  0  0  0  0  0  0  0  0  0
    0.4698    2.3075    2.4159 H   0  0  0  0  0  0  0  0  0  0  0  0
   -0.5933    0.9727    1.9345 H   0  0  0  0  0  0  0  0  0  0  0  0
   -1.5384    4.6935    8.1264 H   0  0  0  0  0  0  0  0  0  0  0  0
  1  2  1  0
  1 21  1  0
  1 22  1  0
  1 23  1  0
  2  3  2  3
  2 24  1  0
  3 20  1  0
  3  4  1  0
  4  5  1  0
  4 25  1  0
  4 26  1  0
  5  6  1  0
  5 27  1  0
  5 28  1  0
  6  7  1  0
  6 29  1  0
  6 30  1  0
  7 20  1  0
  7  8  2  0
  8  9  1  0
  8 31  1  0
  9 10  1  0
 10 11  1  0
 10 17  1  0
 10 32  1  6
 11 15  1  0
 11 12  1  0
 11 33  1  1
 12 13  1  0
 12 34  1  0
 12 35  1  0
 13 14  1  0
 13 36  1  0
 13 37  1  0
 14 15  1  0
 15 16  2  0
 17 18  2  0
 17 19  1  0
 19 20  2  0
 19 38  1  0
M  END
>  <i_m_ct_stereo_status>  (25) 
1

>  <s_m_source_file>  (25) 
/var/tmp/pbs.5076255.sched01/tmpnm8fzmj1/0q4giu30i.sdf

>  <i_m_source_file_index>  (25) 
11

>  <i_lp_mmshare_version>  (25) 
48012

>  <i_f3d_flags>  (25) 
0

>  <s_epik_input>  (25) 
W0NIMl0xW0NIMl1bQ0gyXS9DKD1bQ0hdXFtDSDNdKUMoQzE9Mik9W0NIXUMoPU8pW0NAQEhdKE9bQ0hdMilbQ0BASF0zW0NIMl1bQ0gyXU9DMz1P

>  <s_epik_cmdline>  (25) 
J2VwaWtfcHl0aG9uJywgJy1waHQnLCAnMi4wJywgJy1waCcsICc3LjAnLCAnLXRuJywgJzgnLCAnLW1hJywgJzIwMCcsICctaW1hZScsICc8aW5maWxlLm1hZT4nLCAnLW9tYWUnLCAnPG91dGZpbGUubWFlPic=

>  <r_lp_tautomer_probability>  (25) 
1

>  <r_epik_Ionization_Penalty>  (25) 
0

>  <r_epik_Ionization_Penalty_Charging>  (25) 
0

>  <r_epik_Ionization_Penalty_Neutral>  (25) 
0

>  <r_epik_State_Penalty>  (25) 
-0

>  <r_epik_Charging_Adjusted_Penalty>  (25) 
0

>  <i_epik_Tot_Q>  (25) 
0

>  <i_epik_Tot_abs_Q>  (25) 
0

>  <s_epik_Chemistry_Notes>  (25) 
This compound has an ester and may undergo hydrolysis at high or low pH.

>  <s_lp_Force_Field>  (25) 
OPLS3e

>  <r_lp_Energy>  (25) 
23.9181

>  <b_lp_Chiralities_Consistent>  (25) 
1

>  <s_lp_Variant>  (25) 
6:0-2

>  <s_i_glide_gridfile>  (25) 
pfpi4k_grid

>  <i_i_glide_lignum>  (25) 
11

>  <i_i_glide_rotatable_bonds>  (25) 
1

>  <r_i_docking_score>  (25) 
-2.72506

>  <r_i_glide_ligand_efficiency>  (25) 
-0.136253

>  <r_i_glide_ligand_efficiency_sa>  (25) 
-0.369847

>  <r_i_glide_ligand_efficiency_ln>  (25) 
-0.681992

>  <r_i_glide_gscore>  (25) 
-2.72506

>  <r_i_glide_lipo>  (25) 
-0.0427608

>  <r_i_glide_hbond>  (25) 
0

>  <r_i_glide_metal>  (25) 
-0

>  <r_i_glide_rewards>  (25) 
-1.53878

>  <r_i_glide_evdw>  (25) 
-18.0587

>  <r_i_glide_ecoul>  (25) 
-2.95007

>  <r_i_glide_erotb>  (25) 
0.23861

>  <r_i_glide_esite>  (25) 
-0.0366766

>  <r_i_glide_emodel>  (25) 
-24.5694

>  <r_i_glide_energy>  (25) 
-21.0088

>  <r_i_glide_einternal>  (25) 
0.183502

>  <r_i_glide_intrahb_reward>  (25) 
-0

>  <i_i_glide_confnum>  (25) 
1

>  <i_i_glide_posenum>  (25) 
2

>  <r_i_glide_eff_state_penalty>  (25) 
0

>  <ligand_id>  (25) 
6

>  <original_smiles>  (25) 
CC=C1CCCC2=COC(C3CCOC3=O)C(=O)C=C12

>  <smiles>  (25) 
[H]C1=C2C(=C([H])C(=O)C([H])(C3([H])C(=O)OC([H])([H])C3([H])[H])O1)C(=C([H])C([H])([H])[H])C([H])([H])C([H])([H])C2([H])[H]

$$$$
6:1:1
     RDKit          3D

 38 40  0  0  1  0  0  0  0  0999 V2000
    3.5200    2.9272    5.3435 C   0  0  0  0  0  0  0  0  0  0  0  0
    3.3438    2.0053    4.1472 C   0  0  0  0  0  0  0  0  0  0  0  0
    2.1885    1.5817    3.5878 C   0  0  0  0  0  0  0  0  0  0  0  0
    2.2187    0.6418    2.3990 C   0  0  0  0  0  0  0  0  0  0  0  0
    1.2850   -0.5690    2.6030 C   0  0  0  0  0  0  0  0  0  0  0  0
    0.3206   -0.4273    3.8052 C   0  0  0  0  0  0  0  0  0  0  0  0
   -0.1692    1.0077    4.0116 C   0  0  0  0  0  0  0  0  0  0  0  0
   -1.4991    1.1870    4.1797 C   0  0  0  0  0  0  0  0  0  0  0  0
   -2.2136    2.3400    4.3934 O   0  0  0  0  0  0  0  0  0  0  0  0
   -1.6557    3.3976    5.1624 C   0  0  1  0  0  0  0  0  0  0  0  0
   -1.2788    3.0159    6.6184 C   0  0  2  0  0  0  0  0  0  0  0  0
   -2.3787    2.2211    7.3269 C   0  0  0  0  0  0  0  0  0  0  0  0
   -2.3281    2.6820    8.7814 C   0  0  0  0  0  0  0  0  0  0  0  0
   -1.7641    3.9741    8.7038 O   0  0  0  0  0  0  0  0  0  0  0  0
   -1.1422    4.2185    7.5582 C   0  0  0  0  0  0  0  0  0  0  0  0
   -0.5601    5.2639    7.2702 O   0  0  0  0  0  0  0  0  0  0  0  0
   -0.5449    4.1000    4.3916 C   0  0  0  0  0  0  0  0  0  0  0  0
   -0.6894    5.2918    4.1214 O   0  0  0  0  0  0  0  0  0  0  0  0
    0.6843    3.3921    4.0640 C   0  0  0  0  0  0  0  0  0  0  0  0
    0.8643    2.0553    3.9708 C   0  0  0  0  0  0  0  0  0  0  0  0
    4.2385    2.4853    6.0354 H   0  0  0  0  0  0  0  0  0  0  0  0
    2.5938    3.0879    5.8969 H   0  0  0  0  0  0  0  0  0  0  0  0
    3.9105    3.8950    5.0217 H   0  0  0  0  0  0  0  0  0  0  0  0
    4.2658    1.6531    3.7161 H   0  0  0  0  0  0  0  0  0  0  0  0
    1.8759    1.2114    1.5336 H   0  0  0  0  0  0  0  0  0  0  0  0
    3.2312    0.3157    2.1641 H   0  0  0  0  0  0  0  0  0  0  0  0
    0.7134   -0.7234    1.6884 H   0  0  0  0  0  0  0  0  0  0  0  0
    1.8787   -1.4724    2.7253 H   0  0  0  0  0  0  0  0  0  0  0  0
   -0.5166   -1.1170    3.6819 H   0  0  0  0  0  0  0  0  0  0  0  0
    0.8392   -0.7346    4.7159 H   0  0  0  0  0  0  0  0  0  0  0  0
   -2.1792    0.3469    4.1710 H   0  0  0  0  0  0  0  0  0  0  0  0
   -2.4664    4.1232    5.2286 H   0  0  0  0  0  0  0  0  0  0  0  0
   -0.3393    2.4604    6.6399 H   0  0  0  0  0  0  0  0  0  0  0  0
   -3.3550    2.4587    6.9026 H   0  0  0  0  0  0  0  0  0  0  0  0
   -2.2254    1.1491    7.2301 H   0  0  0  0  0  0  0  0  0  0  0  0
   -3.3155    2.7080    9.2408 H   0  0  0  0  0  0  0  0  0  0  0  0
   -1.6754    2.0494    9.3806 H   0  0  0  0  0  0  0  0  0  0  0  0
    1.5346    4.0334    3.8868 H   0  0  0  0  0  0  0  0  0  0  0  0
  1  2  1  0
  1 21  1  0
  1 22  1  0
  1 23  1  0
  2  3  2  3
  2 24  1  0
  3 20  1  0
  3  4  1  0
  4  5  1  0
  4 25  1  0
  4 26  1  0
  5  6  1  0
  5 27  1  0
  5 28  1  0
  6  7  1  0
  6 29  1  0
  6 30  1  0
  7 20  1  0
  7  8  2  0
  8  9  1  0
  8 31  1  0
  9 10  1  0
 10 11  1  0
 10 17  1  0
 10 32  1  1
 11 15  1  0
 11 12  1  0
 11 33  1  6
 12 13  1  0
 12 34  1  0
 12 35  1  0
 13 14  1  0
 13 36  1  0
 13 37  1  0
 14 15  1  0
 15 16  2  0
 17 18  2  0
 17 19  1  0
 19 20  2  0
 19 38  1  0
M  END
>  <i_m_ct_stereo_status>  (26) 
1

>  <s_m_source_file>  (26) 
/var/tmp/pbs.5076255.sched01/tmpnm8fzmj1/0q4giu30i.sdf

>  <i_m_source_file_index>  (26) 
11

>  <i_lp_mmshare_version>  (26) 
48012

>  <i_f3d_flags>  (26) 
0

>  <s_epik_input>  (26) 
W0NIMl0xW0NIMl1bQ0gyXS9DKD1bQ0hdXFtDSDNdKUMoQzE9Mik9W0NIXUMoPU8pW0NAQEhdKE9bQ0hdMilbQ0BASF0zW0NIMl1bQ0gyXU9DMz1P

>  <s_epik_cmdline>  (26) 
J2VwaWtfcHl0aG9uJywgJy1waHQnLCAnMi4wJywgJy1waCcsICc3LjAnLCAnLXRuJywgJzgnLCAnLW1hJywgJzIwMCcsICctaW1hZScsICc8aW5maWxlLm1hZT4nLCAnLW9tYWUnLCAnPG91dGZpbGUubWFlPic=

>  <r_lp_tautomer_probability>  (26) 
1

>  <r_epik_Ionization_Penalty>  (26) 
0

>  <r_epik_Ionization_Penalty_Charging>  (26) 
0

>  <r_epik_Ionization_Penalty_Neutral>  (26) 
0

>  <r_epik_State_Penalty>  (26) 
-0

>  <r_epik_Charging_Adjusted_Penalty>  (26) 
0

>  <i_epik_Tot_Q>  (26) 
0

>  <i_epik_Tot_abs_Q>  (26) 
0

>  <s_epik_Chemistry_Notes>  (26) 
This compound has an ester and may undergo hydrolysis at high or low pH.

>  <s_lp_Force_Field>  (26) 
OPLS3e

>  <r_lp_Energy>  (26) 
23.9181

>  <b_lp_Chiralities_Consistent>  (26) 
1

>  <s_lp_Variant>  (26) 
6:0-2

>  <s_i_glide_gridfile>  (26) 
pfpi4k_grid

>  <i_i_glide_lignum>  (26) 
11

>  <i_i_glide_rotatable_bonds>  (26) 
1

>  <r_i_docking_score>  (26) 
-2.6076

>  <r_i_glide_ligand_efficiency>  (26) 
-0.13038

>  <r_i_glide_ligand_efficiency_sa>  (26) 
-0.353906

>  <r_i_glide_ligand_efficiency_ln>  (26) 
-0.652596

>  <r_i_glide_gscore>  (26) 
-2.6076

>  <r_i_glide_lipo>  (26) 
-0.0255253

>  <r_i_glide_hbond>  (26) 
-0.0857454

>  <r_i_glide_metal>  (26) 
-0

>  <r_i_glide_rewards>  (26) 
-1.53878

>  <r_i_glide_evdw>  (26) 
-18.4191

>  <r_i_glide_ecoul>  (26) 
-1.49082

>  <r_i_glide_erotb>  (26) 
0.23861

>  <r_i_glide_esite>  (26) 
-0.0515743

>  <r_i_glide_emodel>  (26) 
-23.3962

>  <r_i_glide_energy>  (26) 
-19.9099

>  <r_i_glide_einternal>  (26) 
0.102499

>  <r_i_glide_intrahb_reward>  (26) 
-0

>  <i_i_glide_confnum>  (26) 
3

>  <i_i_glide_posenum>  (26) 
20

>  <r_i_glide_eff_state_penalty>  (26) 
0

>  <ligand_id>  (26) 
6

>  <original_smiles>  (26) 
CC=C1CCCC2=COC(C3CCOC3=O)C(=O)C=C12

>  <smiles>  (26) 
[H]C1=C2C(=C([H])C(=O)C([H])(C3([H])C(=O)OC([H])([H])C3([H])[H])O1)C(=C([H])C([H])([H])[H])C([H])([H])C([H])([H])C2([H])[H]

$$$$
6:1:2
     RDKit          3D

 38 40  0  0  1  0  0  0  0  0999 V2000
    2.0335    1.6928    8.3955 C   0  0  0  0  0  0  0  0  0  0  0  0
    0.6206    2.1356    8.7436 C   0  0  0  0  0  0  0  0  0  0  0  0
   -0.5084    1.9323    8.0288 C   0  0  0  0  0  0  0  0  0  0  0  0
   -1.8325    2.4789    8.5285 C   0  0  0  0  0  0  0  0  0  0  0  0
   -2.5910    3.2507    7.4309 C   0  0  0  0  0  0  0  0  0  0  0  0
   -2.0042    3.0698    6.0114 C   0  0  0  0  0  0  0  0  0  0  0  0
   -1.4513    1.6642    5.7706 C   0  0  0  0  0  0  0  0  0  0  0  0
   -1.8249    1.0448    4.6281 C   0  0  0  0  0  0  0  0  0  0  0  0
   -1.4964   -0.2028    4.1507 O   0  0  0  0  0  0  0  0  0  0  0  0
   -0.1900   -0.7241    4.3572 C   0  0  1  0  0  0  0  0  0  0  0  0
    0.9636    0.1420    3.7953 C   0  0  2  0  0  0  0  0  0  0  0  0
    0.6434    0.7597    2.4331 C   0  0  0  0  0  0  0  0  0  0  0  0
    1.9658    0.7436    1.6803 C   0  0  0  0  0  0  0  0  0  0  0  0
    2.6979   -0.3016    2.2840 O   0  0  0  0  0  0  0  0  0  0  0  0
    2.2165   -0.6720    3.4589 C   0  0  0  0  0  0  0  0  0  0  0  0
    2.6927   -1.5426    4.1902 O   0  0  0  0  0  0  0  0  0  0  0  0
   -0.0119   -1.1316    5.8098 C   0  0  0  0  0  0  0  0  0  0  0  0
    0.1486   -2.3251    6.0670 O   0  0  0  0  0  0  0  0  0  0  0  0
   -0.0257   -0.1224    6.8666 C   0  0  0  0  0  0  0  0  0  0  0  0
   -0.5879    1.1092    6.8242 C   0  0  0  0  0  0  0  0  0  0  0  0
    2.7128    2.5378    8.5180 H   0  0  0  0  0  0  0  0  0  0  0  0
    2.1307    1.3474    7.3649 H   0  0  0  0  0  0  0  0  0  0  0  0
    2.3561    0.8955    9.0681 H   0  0  0  0  0  0  0  0  0  0  0  0
    0.5414    2.6852    9.6694 H   0  0  0  0  0  0  0  0  0  0  0  0
   -2.4366    1.6256    8.8351 H   0  0  0  0  0  0  0  0  0  0  0  0
   -1.7069    3.0949    9.4205 H   0  0  0  0  0  0  0  0  0  0  0  0
   -3.6352    2.9424    7.4432 H   0  0  0  0  0  0  0  0  0  0  0  0
   -2.6065    4.3085    7.6796 H   0  0  0  0  0  0  0  0  0  0  0  0
   -2.7672    3.3290    5.2707 H   0  0  0  0  0  0  0  0  0  0  0  0
   -1.1829    3.7780    5.8704 H   0  0  0  0  0  0  0  0  0  0  0  0
   -2.4701    1.5385    3.9127 H   0  0  0  0  0  0  0  0  0  0  0  0
   -0.1954   -1.6565    3.7914 H   0  0  0  0  0  0  0  0  0  0  0  0
    1.2498    0.9219    4.4999 H   0  0  0  0  0  0  0  0  0  0  0  0
   -0.0864    0.1518    1.8951 H   0  0  0  0  0  0  0  0  0  0  0  0
    0.2387    1.7674    2.5234 H   0  0  0  0  0  0  0  0  0  0  0  0
    1.8182    0.5502    0.6196 H   0  0  0  0  0  0  0  0  0  0  0  0
    2.5081    1.6809    1.8024 H   0  0  0  0  0  0  0  0  0  0  0  0
    0.4850   -0.4111    7.7684 H   0  0  0  0  0  0  0  0  0  0  0  0
  1  2  1  0
  1 21  1  0
  1 22  1  0
  1 23  1  0
  2  3  2  3
  2 24  1  0
  3 20  1  0
  3  4  1  0
  4  5  1  0
  4 25  1  0
  4 26  1  0
  5  6  1  0
  5 27  1  0
  5 28  1  0
  6  7  1  0
  6 29  1  0
  6 30  1  0
  7 20  1  0
  7  8  2  0
  8  9  1  0
  8 31  1  0
  9 10  1  0
 10 11  1  0
 10 17  1  0
 10 32  1  6
 11 15  1  0
 11 12  1  0
 11 33  1  1
 12 13  1  0
 12 34  1  0
 12 35  1  0
 13 14  1  0
 13 36  1  0
 13 37  1  0
 14 15  1  0
 15 16  2  0
 17 18  2  0
 17 19  1  0
 19 20  2  0
 19 38  1  0
M  END
>  <i_m_ct_stereo_status>  (27) 
1

>  <s_m_source_file>  (27) 
/var/tmp/pbs.5076255.sched01/tmpnm8fzmj1/0q4giu30i.sdf

>  <i_m_source_file_index>  (27) 
11

>  <i_lp_mmshare_version>  (27) 
48012

>  <i_f3d_flags>  (27) 
0

>  <s_epik_input>  (27) 
W0NIMl0xW0NIMl1bQ0gyXS9DKD1bQ0hdXFtDSDNdKUMoQzE9Mik9W0NIXUMoPU8pW0NAQEhdKE9bQ0hdMilbQ0BASF0zW0NIMl1bQ0gyXU9DMz1P

>  <s_epik_cmdline>  (27) 
J2VwaWtfcHl0aG9uJywgJy1waHQnLCAnMi4wJywgJy1waCcsICc3LjAnLCAnLXRuJywgJzgnLCAnLW1hJywgJzIwMCcsICctaW1hZScsICc8aW5maWxlLm1hZT4nLCAnLW9tYWUnLCAnPG91dGZpbGUubWFlPic=

>  <r_lp_tautomer_probability>  (27) 
1

>  <r_epik_Ionization_Penalty>  (27) 
0

>  <r_epik_Ionization_Penalty_Charging>  (27) 
0

>  <r_epik_Ionization_Penalty_Neutral>  (27) 
0

>  <r_epik_State_Penalty>  (27) 
-0

>  <r_epik_Charging_Adjusted_Penalty>  (27) 
0

>  <i_epik_Tot_Q>  (27) 
0

>  <i_epik_Tot_abs_Q>  (27) 
0

>  <s_epik_Chemistry_Notes>  (27) 
This compound has an ester and may undergo hydrolysis at high or low pH.

>  <s_lp_Force_Field>  (27) 
OPLS3e

>  <r_lp_Energy>  (27) 
23.9181

>  <b_lp_Chiralities_Consistent>  (27) 
1

>  <s_lp_Variant>  (27) 
6:0-2

>  <s_i_glide_gridfile>  (27) 
pfpi4k_grid

>  <i_i_glide_lignum>  (27) 
11

>  <i_i_glide_rotatable_bonds>  (27) 
1

>  <r_i_docking_score>  (27) 
-2.58872

>  <r_i_glide_ligand_efficiency>  (27) 
-0.129436

>  <r_i_glide_ligand_efficiency_sa>  (27) 
-0.351344

>  <r_i_glide_ligand_efficiency_ln>  (27) 
-0.647872

>  <r_i_glide_gscore>  (27) 
-2.58872

>  <r_i_glide_lipo>  (27) 
-0.178736

>  <r_i_glide_hbond>  (27) 
0

>  <r_i_glide_metal>  (27) 
-0

>  <r_i_glide_rewards>  (27) 
-1.53878

>  <r_i_glide_evdw>  (27) 
-17.9579

>  <r_i_glide_ecoul>  (27) 
-1.25377

>  <r_i_glide_erotb>  (27) 
0.23861

>  <r_i_glide_esite>  (27) 
-0.0238544

>  <r_i_glide_emodel>  (27) 
-22.7113

>  <r_i_glide_energy>  (27) 
-19.2117

>  <r_i_glide_einternal>  (27) 
0.0117505

>  <r_i_glide_intrahb_reward>  (27) 
-0

>  <i_i_glide_confnum>  (27) 
3

>  <i_i_glide_posenum>  (27) 
24

>  <r_i_glide_eff_state_penalty>  (27) 
0

>  <ligand_id>  (27) 
6

>  <original_smiles>  (27) 
CC=C1CCCC2=COC(C3CCOC3=O)C(=O)C=C12

>  <smiles>  (27) 
[H]C1=C2C(=C([H])C(=O)C([H])(C3([H])C(=O)OC([H])([H])C3([H])[H])O1)C(=C([H])C([H])([H])[H])C([H])([H])C([H])([H])C2([H])[H]

$$$$
8:0:0
     RDKit          3D

 24 25  0  0  1  0  0  0  0  0999 V2000
   -8.7170  -10.0514   -9.3967 C   0  0  0  0  0  0  0  0  0  0  0  0
   -7.5164   -9.1088   -9.4793 C   0  0  0  0  0  0  0  0  0  0  0  0
   -7.4127   -8.2107   -8.3194 N   0  0  0  0  0  0  0  0  0  0  0  0
   -8.1969   -7.0766   -8.0473 C   0  0  0  0  0  0  0  0  0  0  0  0
   -9.0815   -6.8989   -8.9273 O   0  0  0  0  0  0  0  0  0  0  0  0
   -7.6696   -6.5722   -6.8991 C   0  0  0  0  0  0  0  0  0  0  0  0
   -6.6366   -7.3358   -6.4982 N   0  0  0  0  0  0  0  0  0  0  0  0
   -6.4494   -8.3397   -7.3633 C   0  0  0  0  0  0  0  0  0  0  0  0
   -5.5637   -9.1932   -7.3037 O   0  0  0  0  0  0  0  0  0  0  0  0
   -6.0379   -6.7873   -5.2973 C   0  0  0  0  0  0  0  0  0  0  0  0
   -6.9567   -5.5704   -5.0917 C   0  0  0  0  0  0  0  0  0  0  0  0
   -6.7255   -4.6732   -3.8992 C   0  0  0  0  0  0  0  0  0  0  0  0
   -7.9050   -5.4510   -6.0361 C   0  0  0  0  0  0  0  0  0  0  0  0
   -8.7568  -10.6917  -10.2734 H   0  0  0  0  0  0  0  0  0  0  0  0
   -9.6522   -9.4991   -9.3517 H   0  0  0  0  0  0  0  0  0  0  0  0
   -8.6616  -10.6925   -8.5177 H   0  0  0  0  0  0  0  0  0  0  0  0
   -6.6168   -9.7255   -9.5307 H   0  0  0  0  0  0  0  0  0  0  0  0
   -7.5290   -8.5204  -10.3927 H   0  0  0  0  0  0  0  0  0  0  0  0
   -6.1036   -7.5020   -4.4787 H   0  0  0  0  0  0  0  0  0  0  0  0
   -4.9969   -6.5108   -5.4739 H   0  0  0  0  0  0  0  0  0  0  0  0
   -5.7179   -4.2484   -3.9435 H   0  0  0  0  0  0  0  0  0  0  0  0
   -6.8153   -5.2491   -2.9703 H   0  0  0  0  0  0  0  0  0  0  0  0
   -7.4423   -3.8519   -3.8834 H   0  0  0  0  0  0  0  0  0  0  0  0
   -8.6676   -4.6977   -6.1184 H   0  0  0  0  0  0  0  0  0  0  0  0
  1  2  1  0
  1 14  1  0
  1 15  1  0
  1 16  1  0
  2  3  1  0
  2 17  1  0
  2 18  1  0
  3  8  1  0
  3  4  1  0
  4  5  1  0
  4  6  2  0
  6 13  1  0
  6  7  1  0
  7  8  1  0
  7 10  1  0
  8  9  2  0
 10 11  1  0
 10 19  1  0
 10 20  1  0
 11 12  1  0
 11 13  2  0
 12 21  1  0
 12 22  1  0
 12 23  1  0
 13 24  1  0
M  CHG  1   5  -1
M  END
>  <i_m_ct_stereo_status>  (28) 
1

>  <s_m_source_file>  (28) 
/var/tmp/pbs.5076255.sched01/tmpnm8fzmj1/0q4giu30i.sdf

>  <i_m_source_file_index>  (28) 
13

>  <i_lp_mmshare_version>  (28) 
48012

>  <i_f3d_flags>  (28) 
0

>  <s_epik_input>  (28) 
W0NIM11bQ0gyXW4oYzFbT0hdKWMoPU8pbihjMTIpW0NIMl1DKFtDSDNdKT1bQ0hdMg==

>  <s_epik_cmdline>  (28) 
J2VwaWtfcHl0aG9uJywgJy1waHQnLCAnMi4wJywgJy1waCcsICc3LjAnLCAnLXRuJywgJzgnLCAnLW1hJywgJzIwMCcsICctaW1hZScsICc8aW5maWxlLm1hZT4nLCAnLW9tYWUnLCAnPG91dGZpbGUubWFlPic=

>  <r_epik_Ionization_Penalty>  (28) 
1.48215e-09

>  <r_epik_Ionization_Penalty_Charging>  (28) 
1.48215e-09

>  <r_epik_Ionization_Penalty_Neutral>  (28) 
0

>  <r_epik_State_Penalty>  (28) 
0.000349879

>  <r_epik_Charging_Adjusted_Penalty>  (28) 
0.00034988

>  <i_epik_Tot_Q>  (28) 
-1

>  <i_epik_Tot_abs_Q>  (28) 
1

>  <s_lp_Force_Field>  (28) 
OPLS3e

>  <r_lp_Energy>  (28) 
9.14132

>  <b_lp_Chiralities_Consistent>  (28) 
1

>  <s_lp_Variant>  (28) 
8:0-1

>  <s_i_glide_gridfile>  (28) 
pfpi4k_grid

>  <i_i_glide_lignum>  (28) 
13

>  <i_i_glide_rotatable_bonds>  (28) 
1

>  <r_i_docking_score>  (28) 
-6.16342

>  <r_i_glide_ligand_efficiency>  (28) 
-0.474109

>  <r_i_glide_ligand_efficiency_sa>  (28) 
-1.11479

>  <r_i_glide_ligand_efficiency_ln>  (28) 
-1.72889

>  <r_i_glide_gscore>  (28) 
-6.16342

>  <r_i_glide_lipo>  (28) 
-1.78609

>  <r_i_glide_hbond>  (28) 
0

>  <r_i_glide_metal>  (28) 
-0

>  <r_i_glide_rewards>  (28) 
-3.43989

>  <r_i_glide_evdw>  (28) 
-19.5618

>  <r_i_glide_ecoul>  (28) 
0.271063

>  <r_i_glide_erotb>  (28) 
0

>  <r_i_glide_esite>  (28) 
0

>  <r_i_glide_emodel>  (28) 
-27.732

>  <r_i_glide_energy>  (28) 
-19.2908

>  <r_i_glide_einternal>  (28) 
0.450826

>  <r_i_glide_intrahb_reward>  (28) 
-0

>  <i_i_glide_confnum>  (28) 
2

>  <i_i_glide_posenum>  (28) 
12

>  <r_i_glide_eff_state_penalty>  (28) 
0

>  <ligand_id>  (28) 
8

>  <original_smiles>  (28) 
CCn1c(O)c2n(c1=O)CC(C)=C2

>  <smiles>  (28) 
[H]C1=C(C([H])([H])[H])C([H])([H])n2c1c([O-])n(C([H])([H])C([H])([H])[H])c2=O

$$$$
8:0:1
     RDKit          3D

 24 25  0  0  1  0  0  0  0  0999 V2000
   -9.2962   -9.3740   -9.8764 C   0  0  0  0  0  0  0  0  0  0  0  0
   -8.3693   -8.1656  -10.0446 C   0  0  0  0  0  0  0  0  0  0  0  0
   -8.1231   -7.4702   -8.7691 N   0  0  0  0  0  0  0  0  0  0  0  0
   -8.7560   -6.3053   -8.2901 C   0  0  0  0  0  0  0  0  0  0  0  0
   -9.6493   -5.8967   -9.0798 O   0  0  0  0  0  0  0  0  0  0  0  0
   -8.1283   -6.0404   -7.1125 C   0  0  0  0  0  0  0  0  0  0  0  0
   -7.1915   -6.9788   -6.8776 N   0  0  0  0  0  0  0  0  0  0  0  0
   -7.1607   -7.8594   -7.8856 C   0  0  0  0  0  0  0  0  0  0  0  0
   -6.3894   -8.8141   -7.9930 O   0  0  0  0  0  0  0  0  0  0  0  0
   -6.4915   -6.6963   -5.6395 C   0  0  0  0  0  0  0  0  0  0  0  0
   -7.2350   -5.4178   -5.2150 C   0  0  0  0  0  0  0  0  0  0  0  0
   -6.8447   -4.7405   -3.9204 C   0  0  0  0  0  0  0  0  0  0  0  0
   -8.1898   -5.0419   -6.0844 C   0  0  0  0  0  0  0  0  0  0  0  0
   -9.4645   -9.8575  -10.8340 H   0  0  0  0  0  0  0  0  0  0  0  0
  -10.2641   -9.0772   -9.4787 H   0  0  0  0  0  0  0  0  0  0  0  0
   -8.8720  -10.1202   -9.2063 H   0  0  0  0  0  0  0  0  0  0  0  0
   -7.4111   -8.5044  -10.4389 H   0  0  0  0  0  0  0  0  0  0  0  0
   -8.7596   -7.4844  -10.7954 H   0  0  0  0  0  0  0  0  0  0  0  0
   -6.6280   -7.5192   -4.9361 H   0  0  0  0  0  0  0  0  0  0  0  0
   -5.4302   -6.5233   -5.8299 H   0  0  0  0  0  0  0  0  0  0  0  0
   -5.7916   -4.4470   -3.9550 H   0  0  0  0  0  0  0  0  0  0  0  0
   -6.9818   -5.4284   -3.0804 H   0  0  0  0  0  0  0  0  0  0  0  0
   -7.4452   -3.8624   -3.7502 H   0  0  0  0  0  0  0  0  0  0  0  0
   -8.8497   -4.1940   -6.0231 H   0  0  0  0  0  0  0  0  0  0  0  0
  1  2  1  0
  1 14  1  0
  1 15  1  0
  1 16  1  0
  2  3  1  0
  2 17  1  0
  2 18  1  0
  3  8  1  0
  3  4  1  0
  4  5  1  0
  4  6  2  0
  6 13  1  0
  6  7  1  0
  7  8  1  0
  7 10  1  0
  8  9  2  0
 10 11  1  0
 10 19  1  0
 10 20  1  0
 11 12  1  0
 11 13  2  0
 12 21  1  0
 12 22  1  0
 12 23  1  0
 13 24  1  0
M  CHG  1   5  -1
M  END
>  <i_m_ct_stereo_status>  (29) 
1

>  <s_m_source_file>  (29) 
/var/tmp/pbs.5076255.sched01/tmpnm8fzmj1/0q4giu30i.sdf

>  <i_m_source_file_index>  (29) 
13

>  <i_lp_mmshare_version>  (29) 
48012

>  <i_f3d_flags>  (29) 
0

>  <s_epik_input>  (29) 
W0NIM11bQ0gyXW4oYzFbT0hdKWMoPU8pbihjMTIpW0NIMl1DKFtDSDNdKT1bQ0hdMg==

>  <s_epik_cmdline>  (29) 
J2VwaWtfcHl0aG9uJywgJy1waHQnLCAnMi4wJywgJy1waCcsICc3LjAnLCAnLXRuJywgJzgnLCAnLW1hJywgJzIwMCcsICctaW1hZScsICc8aW5maWxlLm1hZT4nLCAnLW9tYWUnLCAnPG91dGZpbGUubWFlPic=

>  <r_epik_Ionization_Penalty>  (29) 
1.48215e-09

>  <r_epik_Ionization_Penalty_Charging>  (29) 
1.48215e-09

>  <r_epik_Ionization_Penalty_Neutral>  (29) 
0

>  <r_epik_State_Penalty>  (29) 
0.000349879

>  <r_epik_Charging_Adjusted_Penalty>  (29) 
0.00034988

>  <i_epik_Tot_Q>  (29) 
-1

>  <i_epik_Tot_abs_Q>  (29) 
1

>  <s_lp_Force_Field>  (29) 
OPLS3e

>  <r_lp_Energy>  (29) 
9.14132

>  <b_lp_Chiralities_Consistent>  (29) 
1

>  <s_lp_Variant>  (29) 
8:0-1

>  <s_i_glide_gridfile>  (29) 
pfpi4k_grid

>  <i_i_glide_lignum>  (29) 
13

>  <i_i_glide_rotatable_bonds>  (29) 
1

>  <r_i_docking_score>  (29) 
-6.09679

>  <r_i_glide_ligand_efficiency>  (29) 
-0.468984

>  <r_i_glide_ligand_efficiency_sa>  (29) 
-1.10274

>  <r_i_glide_ligand_efficiency_ln>  (29) 
-1.7102

>  <r_i_glide_gscore>  (29) 
-6.09679

>  <r_i_glide_lipo>  (29) 
-1.79223

>  <r_i_glide_hbond>  (29) 
0

>  <r_i_glide_metal>  (29) 
-0

>  <r_i_glide_rewards>  (29) 
-3.45987

>  <r_i_glide_evdw>  (29) 
-19.0843

>  <r_i_glide_ecoul>  (29) 
0.730141

>  <r_i_glide_erotb>  (29) 
0

>  <r_i_glide_esite>  (29) 
0

>  <r_i_glide_emodel>  (29) 
-26.9624

>  <r_i_glide_energy>  (29) 
-18.3541

>  <r_i_glide_einternal>  (29) 
0.0522306

>  <r_i_glide_intrahb_reward>  (29) 
-0

>  <i_i_glide_confnum>  (29) 
2

>  <i_i_glide_posenum>  (29) 
3

>  <r_i_glide_eff_state_penalty>  (29) 
0

>  <ligand_id>  (29) 
8

>  <original_smiles>  (29) 
CCn1c(O)c2n(c1=O)CC(C)=C2

>  <smiles>  (29) 
[H]C1=C(C([H])([H])[H])C([H])([H])n2c1c([O-])n(C([H])([H])C([H])([H])[H])c2=O

$$$$
8:0:2
     RDKit          3D

 24 25  0  0  1  0  0  0  0  0999 V2000
   -8.2618   -8.6966  -10.3299 C   0  0  0  0  0  0  0  0  0  0  0  0
   -9.2683   -8.3117   -9.2383 C   0  0  0  0  0  0  0  0  0  0  0  0
   -8.6646   -7.4289   -8.2272 N   0  0  0  0  0  0  0  0  0  0  0  0
   -8.9540   -6.0635   -8.0083 C   0  0  0  0  0  0  0  0  0  0  0  0
   -9.8178   -5.6127   -8.7917 O   0  0  0  0  0  0  0  0  0  0  0  0
   -8.1343   -5.7091   -6.9811 C   0  0  0  0  0  0  0  0  0  0  0  0
   -7.4073   -6.7704   -6.5936 N   0  0  0  0  0  0  0  0  0  0  0  0
   -7.7182   -7.8404   -7.3387 C   0  0  0  0  0  0  0  0  0  0  0  0
   -7.2339   -8.9660   -7.2322 O   0  0  0  0  0  0  0  0  0  0  0  0
   -6.5222   -6.4096   -5.5066 C   0  0  0  0  0  0  0  0  0  0  0  0
   -6.8882   -4.9250   -5.3629 C   0  0  0  0  0  0  0  0  0  0  0  0
   -6.1849   -4.0880   -4.3215 C   0  0  0  0  0  0  0  0  0  0  0  0
   -7.8361   -4.5302   -6.2330 C   0  0  0  0  0  0  0  0  0  0  0  0
   -8.7247   -9.3522  -11.0618 H   0  0  0  0  0  0  0  0  0  0  0  0
   -7.4011   -9.2229   -9.9224 H   0  0  0  0  0  0  0  0  0  0  0  0
   -7.8970   -7.8143  -10.8496 H   0  0  0  0  0  0  0  0  0  0  0  0
  -10.1526   -7.8760   -9.6974 H   0  0  0  0  0  0  0  0  0  0  0  0
   -9.6272   -9.2141   -8.7399 H   0  0  0  0  0  0  0  0  0  0  0  0
   -6.7571   -6.9907   -4.6102 H   0  0  0  0  0  0  0  0  0  0  0  0
   -5.4814   -6.5671   -5.8047 H   0  0  0  0  0  0  0  0  0  0  0  0
   -5.1065   -4.1042   -4.5030 H   0  0  0  0  0  0  0  0  0  0  0  0
   -6.3809   -4.5031   -3.3303 H   0  0  0  0  0  0  0  0  0  0  0  0
   -6.5255   -3.0530   -4.3389 H   0  0  0  0  0  0  0  0  0  0  0  0
   -8.2649   -3.5456   -6.3532 H   0  0  0  0  0  0  0  0  0  0  0  0
  1  2  1  0
  1 14  1  0
  1 15  1  0
  1 16  1  0
  2  3  1  0
  2 17  1  0
  2 18  1  0
  3  8  1  0
  3  4  1  0
  4  5  1  0
  4  6  2  0
  6 13  1  0
  6  7  1  0
  7  8  1  0
  7 10  1  0
  8  9  2  0
 10 11  1  0
 10 19  1  0
 10 20  1  0
 11 12  1  0
 11 13  2  0
 12 21  1  0
 12 22  1  0
 12 23  1  0
 13 24  1  0
M  CHG  1   5  -1
M  END
>  <i_m_ct_stereo_status>  (30) 
1

>  <s_m_source_file>  (30) 
/var/tmp/pbs.5076255.sched01/tmpnm8fzmj1/0q4giu30i.sdf

>  <i_m_source_file_index>  (30) 
13

>  <i_lp_mmshare_version>  (30) 
48012

>  <i_f3d_flags>  (30) 
0

>  <s_epik_input>  (30) 
W0NIM11bQ0gyXW4oYzFbT0hdKWMoPU8pbihjMTIpW0NIMl1DKFtDSDNdKT1bQ0hdMg==

>  <s_epik_cmdline>  (30) 
J2VwaWtfcHl0aG9uJywgJy1waHQnLCAnMi4wJywgJy1waCcsICc3LjAnLCAnLXRuJywgJzgnLCAnLW1hJywgJzIwMCcsICctaW1hZScsICc8aW5maWxlLm1hZT4nLCAnLW9tYWUnLCAnPG91dGZpbGUubWFlPic=

>  <r_epik_Ionization_Penalty>  (30) 
1.48215e-09

>  <r_epik_Ionization_Penalty_Charging>  (30) 
1.48215e-09

>  <r_epik_Ionization_Penalty_Neutral>  (30) 
0

>  <r_epik_State_Penalty>  (30) 
0.000349879

>  <r_epik_Charging_Adjusted_Penalty>  (30) 
0.00034988

>  <i_epik_Tot_Q>  (30) 
-1

>  <i_epik_Tot_abs_Q>  (30) 
1

>  <s_lp_Force_Field>  (30) 
OPLS3e

>  <r_lp_Energy>  (30) 
9.14132

>  <b_lp_Chiralities_Consistent>  (30) 
1

>  <s_lp_Variant>  (30) 
8:0-1

>  <s_i_glide_gridfile>  (30) 
pfpi4k_grid

>  <i_i_glide_lignum>  (30) 
13

>  <i_i_glide_rotatable_bonds>  (30) 
1

>  <r_i_docking_score>  (30) 
-5.73489

>  <r_i_glide_ligand_efficiency>  (30) 
-0.441145

>  <r_i_glide_ligand_efficiency_sa>  (30) 
-1.03728

>  <r_i_glide_ligand_efficiency_ln>  (30) 
-1.60869

>  <r_i_glide_gscore>  (30) 
-5.73489

>  <r_i_glide_lipo>  (30) 
-1.70243

>  <r_i_glide_hbond>  (30) 
0

>  <r_i_glide_metal>  (30) 
-0

>  <r_i_glide_rewards>  (30) 
-3.21139

>  <r_i_glide_evdw>  (30) 
-19.4207

>  <r_i_glide_ecoul>  (30) 
0.999772

>  <r_i_glide_erotb>  (30) 
0

>  <r_i_glide_esite>  (30) 
0

>  <r_i_glide_emodel>  (30) 
-26.4069

>  <r_i_glide_energy>  (30) 
-18.4209

>  <r_i_glide_einternal>  (30) 
0.233404

>  <r_i_glide_intrahb_reward>  (30) 
-0

>  <i_i_glide_confnum>  (30) 
2

>  <i_i_glide_posenum>  (30) 
34

>  <r_i_glide_eff_state_penalty>  (30) 
0

>  <ligand_id>  (30) 
8

>  <original_smiles>  (30) 
CCn1c(O)c2n(c1=O)CC(C)=C2

>  <smiles>  (30) 
[H]C1=C(C([H])([H])[H])C([H])([H])n2c1c([O-])n(C([H])([H])C([H])([H])[H])c2=O

$$$$
9:0:0
     RDKit          3D

 51 56  0  0  1  0  0  0  0  0999 V2000
    0.3160   -7.6279    2.5212 C   0  0  0  0  0  0  0  0  0  0  0  0
    1.2195   -6.4294    2.7530 C   0  0  0  0  0  0  0  0  0  0  0  0
    2.1778   -6.0423    1.8942 C   0  0  0  0  0  0  0  0  0  0  0  0
    3.0752   -4.8305    2.1533 C   0  0  2  0  0  0  0  0  0  0  0  0
    2.3856   -3.7851    3.0161 C   0  0  0  0  0  0  0  0  0  0  0  0
    2.8825   -2.5454    3.0024 C   0  0  0  0  0  0  0  0  0  0  0  0
    4.1609   -2.2327    2.2524 C   0  0  1  0  0  0  0  0  0  0  0  0
    5.4108   -3.1754    2.7089 C   0  0  0  0  0  0  0  0  0  0  0  0
    6.1857   -4.2296    1.6848 C   0  0  0  0  0  0  0  0  0  0  0  0
    6.3029   -4.2011    0.0420 C   0  0  2  0  0  0  0  0  0  0  0  0
    7.1630   -3.0934   -0.5506 C   0  0  0  0  0  0  0  0  0  0  0  0
    6.3518   -1.9489   -0.6826 O   0  0  0  0  0  0  0  0  0  0  0  0
    5.6391   -1.6738    0.4738 C   0  0  1  0  0  0  0  0  0  0  0  0
    5.3742   -0.2841    0.5002 O   0  0  0  0  0  0  0  0  0  0  0  0
    4.2013   -2.5356    0.7600 C   0  0  1  0  0  0  0  0  0  0  0  0
    3.6197   -4.1383    0.8578 C   0  0  1  0  0  0  0  0  0  0  0  0
    4.1510   -5.0847   -0.0290 O   0  0  0  0  0  0  0  0  0  0  0  0
    4.9722   -4.4102   -0.8660 C   0  0  1  0  0  0  0  0  0  0  0  0
    4.2001   -3.2200   -1.4214 N   0  0  0  0  0  0  0  0  0  0  0  0
    4.1792   -2.7888   -2.6792 C   0  0  0  0  0  0  0  0  0  0  0  0
    4.6184   -3.3383   -3.6907 O   0  0  0  0  0  0  0  0  0  0  0  0
    3.5751   -1.3969   -2.6327 C   0  0  0  0  0  0  0  0  0  0  0  0
    3.6420   -1.0533   -1.2353 O   0  0  0  0  0  0  0  0  0  0  0  0
    3.4527   -2.2707   -0.5703 C   0  0  2  0  0  0  0  0  0  0  0  0
    1.1109   -4.1487    3.7614 C   0  0  0  0  0  0  0  0  0  0  0  0
    1.0108   -5.6543    4.0439 C   0  0  0  0  0  0  0  0  0  0  0  0
    0.4148   -8.3584    3.3264 H   0  0  0  0  0  0  0  0  0  0  0  0
    0.5568   -8.1170    1.5769 H   0  0  0  0  0  0  0  0  0  0  0  0
   -0.7243   -7.3030    2.4797 H   0  0  0  0  0  0  0  0  0  0  0  0
    2.3733   -6.6077    0.9913 H   0  0  0  0  0  0  0  0  0  0  0  0
    3.8741   -5.2666    2.7431 H   0  0  0  0  0  0  0  0  0  0  0  0
    2.4106   -1.7482    3.5542 H   0  0  0  0  0  0  0  0  0  0  0  0
    4.3672   -1.1944    2.5116 H   0  0  0  0  0  0  0  0  0  0  0  0
    6.1608   -2.4965    3.1058 H   0  0  0  0  0  0  0  0  0  0  0  0
    5.1403   -3.7206    3.6178 H   0  0  0  0  0  0  0  0  0  0  0  0
    7.2165   -4.2437    2.0382 H   0  0  0  0  0  0  0  0  0  0  0  0
    5.8589   -5.2400    1.9401 H   0  0  0  0  0  0  0  0  0  0  0  0
    6.8748   -5.1114   -0.1270 H   0  0  0  0  0  0  0  0  0  0  0  0
    8.0327   -2.8925    0.0805 H   0  0  0  0  0  0  0  0  0  0  0  0
    7.5367   -3.3726   -1.5374 H   0  0  0  0  0  0  0  0  0  0  0  0
    6.4274   -1.7215    1.2178 H   0  0  0  0  0  0  0  0  0  0  0  0
    4.7279   -0.1314   -0.1754 H   0  0  0  0  0  0  0  0  0  0  0  0
    2.6133   -4.1076    0.4462 H   0  0  0  0  0  0  0  0  0  0  0  0
    5.1905   -5.0545   -1.7171 H   0  0  0  0  0  0  0  0  0  0  0  0
    4.0939   -0.6872   -3.2796 H   0  0  0  0  0  0  0  0  0  0  0  0
    2.5347   -1.4509   -2.9576 H   0  0  0  0  0  0  0  0  0  0  0  0
    2.3856   -2.4837   -0.6167 H   0  0  0  0  0  0  0  0  0  0  0  0
    1.0048   -3.5567    4.6718 H   0  0  0  0  0  0  0  0  0  0  0  0
    0.2838   -3.8668    3.1171 H   0  0  0  0  0  0  0  0  0  0  0  0
    0.0485   -5.9002    4.4957 H   0  0  0  0  0  0  0  0  0  0  0  0
    1.7862   -5.9481    4.7569 H   0  0  0  0  0  0  0  0  0  0  0  0
  1  2  1  0
  1 27  1  0
  1 28  1  0
  1 29  1  0
  2 26  1  0
  2  3  2  0
  3  4  1  0
  3 30  1  0
  4 16  1  0
  4  5  1  0
  4 31  1  1
  5  6  2  0
  5 25  1  0
  6  7  1  0
  6 32  1  0
  7 15  1  0
  7  8  1  0
  7 33  1  6
  8  9  1  0
  8 34  1  0
  8 35  1  0
  9 10  1  0
  9 36  1  0
  9 37  1  0
 10 18  1  0
 10 11  1  0
 10 38  1  6
 11 12  1  0
 11 39  1  0
 11 40  1  0
 12 13  1  0
 13 14  1  0
 15 13  1  6
 13 41  1  1
 14 42  1  0
 15 24  1  0
 15 16  1  0
 16 17  1  0
 16 43  1  6
 17 18  1  0
 18 19  1  0
 18 44  1  6
 19 24  1  0
 19 20  1  0
 20 21  2  0
 20 22  1  0
 22 23  1  0
 22 45  1  0
 22 46  1  0
 23 24  1  0
 24 47  1  1
 25 26  1  0
 25 48  1  0
 25 49  1  0
 26 50  1  0
 26 51  1  0
M  END
>  <i_m_ct_stereo_status>  (31) 
1

>  <s_m_source_file>  (31) 
/var/tmp/pbs.5076255.sched01/tmpnm8fzmj1/0q4giu30i.sdf

>  <i_m_source_file_index>  (31) 
14

>  <i_lp_mmshare_version>  (31) 
48012

>  <i_f3d_flags>  (31) 
0

>  <s_epik_input>  (31) 
QzEyM1tDQEBIXTRbQ0hdPUM1W0NAQEhdKFtDSF09QyhbQ0gzXSlbQ0gyXVtDSDJdNSlbQ0BASF0yT1tDQEhdKFtDQEhdKFtDSDJdW0NIMl00KVtDSDJdT1tDQEhdMVtPSF0pTjZbQ0BASF0zT1tDSDJdQzY9Tw==

>  <s_epik_cmdline>  (31) 
J2VwaWtfcHl0aG9uJywgJy1waHQnLCAnMi4wJywgJy1waCcsICc3LjAnLCAnLXRuJywgJzgnLCAnLW1hJywgJzIwMCcsICctaW1hZScsICc8aW5maWxlLm1hZT4nLCAnLW9tYWUnLCAnPG91dGZpbGUubWFlPic=

>  <r_lp_tautomer_probability>  (31) 
1

>  <r_epik_Ionization_Penalty>  (31) 
1.11337e-06

>  <r_epik_Ionization_Penalty_Charging>  (31) 
0

>  <r_epik_Ionization_Penalty_Neutral>  (31) 
1.11337e-06

>  <r_epik_State_Penalty>  (31) 
-0

>  <r_epik_Charging_Adjusted_Penalty>  (31) 
0

>  <i_epik_Tot_Q>  (31) 
0

>  <i_epik_Tot_abs_Q>  (31) 
0

>  <s_epik_Chemistry_Notes>  (31) 
This compound contains an acetal/aminal-like group ( X-CH(R)-Y where X, Y are N, S, or O) that may be acid/base labile, releasing an aldehyde.

>  <s_lp_Force_Field>  (31) 
OPLS3e

>  <r_lp_Energy>  (31) 
232.511

>  <b_lp_Chiralities_Consistent>  (31) 
1

>  <s_lp_Variant>  (31) 
9:0-1

>  <s_i_glide_gridfile>  (31) 
pfpi4k_grid

>  <i_i_glide_lignum>  (31) 
14

>  <i_i_glide_rotatable_bonds>  (31) 
1

>  <r_i_docking_score>  (31) 
-4.00601

>  <r_i_glide_ligand_efficiency>  (31) 
-0.154077

>  <r_i_glide_ligand_efficiency_sa>  (31) 
-0.456453

>  <r_i_glide_ligand_efficiency_ln>  (31) 
-0.940797

>  <r_i_glide_gscore>  (31) 
-4.00601

>  <r_i_glide_lipo>  (31) 
-0.26789

>  <r_i_glide_hbond>  (31) 
-0.0953755

>  <r_i_glide_metal>  (31) 
-0

>  <r_i_glide_rewards>  (31) 
-1.60698

>  <r_i_glide_evdw>  (31) 
-28.8337

>  <r_i_glide_ecoul>  (31) 
-3.43232

>  <r_i_glide_erotb>  (31) 
0

>  <r_i_glide_esite>  (31) 
-0.0792297

>  <r_i_glide_emodel>  (31) 
-45.0182

>  <r_i_glide_energy>  (31) 
-32.266

>  <r_i_glide_einternal>  (31) 
3.86973e-05

>  <r_i_glide_intrahb_reward>  (31) 
-0.5

>  <i_i_glide_confnum>  (31) 
2

>  <i_i_glide_posenum>  (31) 
21

>  <r_i_glide_eff_state_penalty>  (31) 
0

>  <ligand_id>  (31) 
9

>  <original_smiles>  (31) 
CC1=CC2C(=CC3CCC4COC(O)C35C2OC4N2C(=O)COC25)CC1

>  <smiles>  (31) 
[H]OC1([H])OC([H])([H])C2([H])C3([H])OC4([H])C5([H])C([H])=C(C([H])([H])[H])C([H])([H])C([H])([H])C5=C([H])C([H])(C([H])([H])C2([H])[H])C14C1([H])OC([H])([H])C(=O)N31

$$$$
9:0:1
     RDKit          3D

 51 56  0  0  1  0  0  0  0  0999 V2000
    2.4916   -2.5388   -3.8184 C   0  0  0  0  0  0  0  0  0  0  0  0
    3.4003   -2.6922   -2.6175 C   0  0  0  0  0  0  0  0  0  0  0  0
    3.0647   -3.3831   -1.5155 C   0  0  0  0  0  0  0  0  0  0  0  0
    4.0111   -3.5459   -0.3285 C   0  0  2  0  0  0  0  0  0  0  0  0
    5.4698   -3.4835   -0.7539 C   0  0  0  0  0  0  0  0  0  0  0  0
    6.3814   -3.9568    0.0943 C   0  0  0  0  0  0  0  0  0  0  0  0
    5.9832   -4.4540    1.4715 C   0  0  1  0  0  0  0  0  0  0  0  0
    5.1794   -3.3370    2.3459 C   0  0  0  0  0  0  0  0  0  0  0  0
    3.6080   -3.5314    2.8507 C   0  0  0  0  0  0  0  0  0  0  0  0
    2.7406   -4.9143    3.1035 C   0  0  2  0  0  0  0  0  0  0  0  0
    3.1724   -5.7494    4.2957 C   0  0  0  0  0  0  0  0  0  0  0  0
    4.2128   -6.5903    3.8683 O   0  0  0  0  0  0  0  0  0  0  0  0
    5.2038   -5.9096    3.1787 C   0  0  1  0  0  0  0  0  0  0  0  0
    6.4137   -6.6191    3.3336 O   0  0  0  0  0  0  0  0  0  0  0  0
    4.9443   -5.5747    1.5338 C   0  0  1  0  0  0  0  0  0  0  0  0
    3.7879   -4.8545    0.5051 C   0  0  1  0  0  0  0  0  0  0  0  0
    2.4224   -5.0590    0.7934 O   0  0  0  0  0  0  0  0  0  0  0  0
    2.3821   -5.8935    1.8548 C   0  0  1  0  0  0  0  0  0  0  0  0
    3.2515   -7.1044    1.5172 N   0  0  0  0  0  0  0  0  0  0  0  0
    2.9629   -8.3780    1.7442 C   0  0  0  0  0  0  0  0  0  0  0  0
    1.8841   -8.8590    2.0863 O   0  0  0  0  0  0  0  0  0  0  0  0
    4.2654   -9.1466    1.5648 C   0  0  0  0  0  0  0  0  0  0  0  0
    5.2790   -8.1183    1.5703 O   0  0  0  0  0  0  0  0  0  0  0  0
    4.6382   -7.0043    1.0026 C   0  0  2  0  0  0  0  0  0  0  0  0
    5.8188   -2.9899   -2.1546 C   0  0  0  0  0  0  0  0  0  0  0  0
    4.7594   -2.0291   -2.7039 C   0  0  0  0  0  0  0  0  0  0  0  0
    2.2880   -1.4856   -4.0207 H   0  0  0  0  0  0  0  0  0  0  0  0
    1.5421   -3.0499   -3.6522 H   0  0  0  0  0  0  0  0  0  0  0  0
    2.9651   -2.9747   -4.6988 H   0  0  0  0  0  0  0  0  0  0  0  0
    2.0905   -3.8448   -1.4378 H   0  0  0  0  0  0  0  0  0  0  0  0
    3.7958   -2.6568    0.2549 H   0  0  0  0  0  0  0  0  0  0  0  0
    7.4293   -3.9834   -0.1669 H   0  0  0  0  0  0  0  0  0  0  0  0
    6.9306   -4.6924    1.9488 H   0  0  0  0  0  0  0  0  0  0  0  0
    5.7807   -3.1352    3.2341 H   0  0  0  0  0  0  0  0  0  0  0  0
    5.2542   -2.3680    1.8468 H   0  0  0  0  0  0  0  0  0  0  0  0
    3.5671   -2.9967    3.8010 H   0  0  0  0  0  0  0  0  0  0  0  0
    2.9807   -2.9021    2.2160 H   0  0  0  0  0  0  0  0  0  0  0  0
    1.7699   -4.5106    3.3941 H   0  0  0  0  0  0  0  0  0  0  0  0
    3.4878   -5.1160    5.1283 H   0  0  0  0  0  0  0  0  0  0  0  0
    2.3549   -6.3749    4.6553 H   0  0  0  0  0  0  0  0  0  0  0  0
    5.3946   -5.0811    3.8484 H   0  0  0  0  0  0  0  0  0  0  0  0
    6.3098   -7.4199    2.8334 H   0  0  0  0  0  0  0  0  0  0  0  0
    3.8175   -5.4422   -0.4104 H   0  0  0  0  0  0  0  0  0  0  0  0
    1.3612   -6.2610    1.9631 H   0  0  0  0  0  0  0  0  0  0  0  0
    4.4026   -9.9121    2.3294 H   0  0  0  0  0  0  0  0  0  0  0  0
    4.2407   -9.6425    0.5920 H   0  0  0  0  0  0  0  0  0  0  0  0
    4.6560   -7.1739   -0.0772 H   0  0  0  0  0  0  0  0  0  0  0  0
    6.8106   -2.5367   -2.1653 H   0  0  0  0  0  0  0  0  0  0  0  0
    5.8647   -3.8619   -2.8101 H   0  0  0  0  0  0  0  0  0  0  0  0
    4.9865   -1.7447   -3.7321 H   0  0  0  0  0  0  0  0  0  0  0  0
    4.7330   -1.1106   -2.1113 H   0  0  0  0  0  0  0  0  0  0  0  0
  1  2  1  0
  1 27  1  0
  1 28  1  0
  1 29  1  0
  2 26  1  0
  2  3  2  0
  3  4  1  0
  3 30  1  0
  4 16  1  0
  4  5  1  0
  4 31  1  1
  5  6  2  0
  5 25  1  0
  6  7  1  0
  6 32  1  0
  7 15  1  0
  7  8  1  0
  7 33  1  1
  8  9  1  0
  8 34  1  0
  8 35  1  0
  9 10  1  0
  9 36  1  0
  9 37  1  0
 10 18  1  0
 10 11  1  0
 10 38  1  1
 11 12  1  0
 11 39  1  0
 11 40  1  0
 12 13  1  0
 13 14  1  0
 15 13  1  1
 13 41  1  1
 14 42  1  0
 15 24  1  0
 15 16  1  0
 16 17  1  0
 16 43  1  6
 17 18  1  0
 18 19  1  0
 18 44  1  1
 19 24  1  0
 19 20  1  0
 20 21  2  0
 20 22  1  0
 22 23  1  0
 22 45  1  0
 22 46  1  0
 23 24  1  0
 24 47  1  6
 25 26  1  0
 25 48  1  0
 25 49  1  0
 26 50  1  0
 26 51  1  0
M  END
>  <i_m_ct_stereo_status>  (32) 
1

>  <s_m_source_file>  (32) 
/var/tmp/pbs.5076255.sched01/tmpnm8fzmj1/0q4giu30i.sdf

>  <i_m_source_file_index>  (32) 
14

>  <i_lp_mmshare_version>  (32) 
48012

>  <i_f3d_flags>  (32) 
0

>  <s_epik_input>  (32) 
QzEyM1tDQEBIXTRbQ0hdPUM1W0NAQEhdKFtDSF09QyhbQ0gzXSlbQ0gyXVtDSDJdNSlbQ0BASF0yT1tDQEhdKFtDQEhdKFtDSDJdW0NIMl00KVtDSDJdT1tDQEhdMVtPSF0pTjZbQ0BASF0zT1tDSDJdQzY9Tw==

>  <s_epik_cmdline>  (32) 
J2VwaWtfcHl0aG9uJywgJy1waHQnLCAnMi4wJywgJy1waCcsICc3LjAnLCAnLXRuJywgJzgnLCAnLW1hJywgJzIwMCcsICctaW1hZScsICc8aW5maWxlLm1hZT4nLCAnLW9tYWUnLCAnPG91dGZpbGUubWFlPic=

>  <r_lp_tautomer_probability>  (32) 
1

>  <r_epik_Ionization_Penalty>  (32) 
1.11337e-06

>  <r_epik_Ionization_Penalty_Charging>  (32) 
0

>  <r_epik_Ionization_Penalty_Neutral>  (32) 
1.11337e-06

>  <r_epik_State_Penalty>  (32) 
-0

>  <r_epik_Charging_Adjusted_Penalty>  (32) 
0

>  <i_epik_Tot_Q>  (32) 
0

>  <i_epik_Tot_abs_Q>  (32) 
0

>  <s_epik_Chemistry_Notes>  (32) 
This compound contains an acetal/aminal-like group ( X-CH(R)-Y where X, Y are N, S, or O) that may be acid/base labile, releasing an aldehyde.

>  <s_lp_Force_Field>  (32) 
OPLS3e

>  <r_lp_Energy>  (32) 
232.511

>  <b_lp_Chiralities_Consistent>  (32) 
1

>  <s_lp_Variant>  (32) 
9:0-1

>  <s_i_glide_gridfile>  (32) 
pfpi4k_grid

>  <i_i_glide_lignum>  (32) 
14

>  <i_i_glide_rotatable_bonds>  (32) 
1

>  <r_i_docking_score>  (32) 
-3.97644

>  <r_i_glide_ligand_efficiency>  (32) 
-0.15294

>  <r_i_glide_ligand_efficiency_sa>  (32) 
-0.453084

>  <r_i_glide_ligand_efficiency_ln>  (32) 
-0.933853

>  <r_i_glide_gscore>  (32) 
-3.97644

>  <r_i_glide_lipo>  (32) 
-0.852366

>  <r_i_glide_hbond>  (32) 
0

>  <r_i_glide_metal>  (32) 
-0

>  <r_i_glide_rewards>  (32) 
-1.67519

>  <r_i_glide_evdw>  (32) 
-30.2815

>  <r_i_glide_ecoul>  (32) 
0.652853

>  <r_i_glide_erotb>  (32) 
0

>  <r_i_glide_esite>  (32) 
-0.0327349

>  <r_i_glide_emodel>  (32) 
-42.3564

>  <r_i_glide_energy>  (32) 
-29.6286

>  <r_i_glide_einternal>  (32) 
0.000711445

>  <r_i_glide_intrahb_reward>  (32) 
-0.5

>  <i_i_glide_confnum>  (32) 
1

>  <i_i_glide_posenum>  (32) 
12

>  <r_i_glide_eff_state_penalty>  (32) 
0

>  <ligand_id>  (32) 
9

>  <original_smiles>  (32) 
CC1=CC2C(=CC3CCC4COC(O)C35C2OC4N2C(=O)COC25)CC1

>  <smiles>  (32) 
[H]OC1([H])OC([H])([H])C2([H])C3([H])OC4([H])C5([H])C([H])=C(C([H])([H])[H])C([H])([H])C([H])([H])C5=C([H])C([H])(C([H])([H])C2([H])[H])C14C1([H])OC([H])([H])C(=O)N31

$$$$
9:0:2
     RDKit          3D

 51 56  0  0  1  0  0  0  0  0999 V2000
    0.1972   -7.4330    2.6196 C   0  0  0  0  0  0  0  0  0  0  0  0
    1.1402   -6.2593    2.8312 C   0  0  0  0  0  0  0  0  0  0  0  0
    2.1059   -5.9174    1.9615 C   0  0  0  0  0  0  0  0  0  0  0  0
    3.0424   -4.7317    2.2009 C   0  0  2  0  0  0  0  0  0  0  0  0
    2.4083   -3.6584    3.0620 C   0  0  0  0  0  0  0  0  0  0  0  0
    2.9182   -2.4323    3.0114 C   0  0  0  0  0  0  0  0  0  0  0  0
    4.1945   -2.1674    2.2539 C   0  0  1  0  0  0  0  0  0  0  0  0
    5.4073   -3.1378    2.7267 C   0  0  0  0  0  0  0  0  0  0  0  0
    6.1637   -4.2298    1.7242 C   0  0  0  0  0  0  0  0  0  0  0  0
    6.2878   -4.2342    0.0806 C   0  0  2  0  0  0  0  0  0  0  0  0
    7.1768   -3.1608   -0.5338 C   0  0  0  0  0  0  0  0  0  0  0  0
    6.4105   -1.9898   -0.6767 O   0  0  0  0  0  0  0  0  0  0  0  0
    5.7075   -1.6985    0.4814 C   0  0  1  0  0  0  0  0  0  0  0  0
    5.5052   -0.2852    0.5416 O   0  0  0  0  0  0  0  0  0  0  0  0
    4.2351   -2.5008    0.7716 C   0  0  1  0  0  0  0  0  0  0  0  0
    3.6091   -4.0793    0.8922 C   0  0  1  0  0  0  0  0  0  0  0  0
    4.1115   -5.0538    0.0206 O   0  0  0  0  0  0  0  0  0  0  0  0
    4.9485   -4.4272   -0.8287 C   0  0  1  0  0  0  0  0  0  0  0  0
    4.2179   -3.2235   -1.3990 N   0  0  0  0  0  0  0  0  0  0  0  0
    4.2013   -2.8144   -2.6639 C   0  0  0  0  0  0  0  0  0  0  0  0
    4.6179   -3.3867   -3.6697 O   0  0  0  0  0  0  0  0  0  0  0  0
    3.6398   -1.4017   -2.6546 C   0  0  0  0  0  0  0  0  0  0  0  0
    3.7091   -1.0363   -1.2605 O   0  0  0  0  0  0  0  0  0  0  0  0
    3.5014   -2.2332   -0.5709 C   0  0  2  0  0  0  0  0  0  0  0  0
    1.1308   -3.9653    3.8096 C   0  0  0  0  0  0  0  0  0  0  0  0
    0.9581   -5.4550    4.1063 C   0  0  0  0  0  0  0  0  0  0  0  0
    0.2745   -8.1547    3.4357 H   0  0  0  0  0  0  0  0  0  0  0  0
    0.4181   -7.9489    1.6814 H   0  0  0  0  0  0  0  0  0  0  0  0
   -0.8343   -7.0802    2.5765 H   0  0  0  0  0  0  0  0  0  0  0  0
    2.2812   -6.5039    1.0682 H   0  0  0  0  0  0  0  0  0  0  0  0
    3.8301   -5.1919    2.7930 H   0  0  0  0  0  0  0  0  0  0  0  0
    2.4724   -1.6065    3.5449 H   0  0  0  0  0  0  0  0  0  0  0  0
    4.4347   -1.1382    2.4969 H   0  0  0  0  0  0  0  0  0  0  0  0
    6.1428   -2.4564    3.1313 H   0  0  0  0  0  0  0  0  0  0  0  0
    5.1238   -3.6696    3.6421 H   0  0  0  0  0  0  0  0  0  0  0  0
    7.1952   -4.2579    2.0768 H   0  0  0  0  0  0  0  0  0  0  0  0
    5.8178   -5.2294    1.9914 H   0  0  0  0  0  0  0  0  0  0  0  0
    6.8248   -5.1711   -0.0760 H   0  0  0  0  0  0  0  0  0  0  0  0
    8.0553   -2.9883    0.0923 H   0  0  0  0  0  0  0  0  0  0  0  0
    7.5418   -3.4561   -1.5196 H   0  0  0  0  0  0  0  0  0  0  0  0
    6.4943   -1.7720    1.2204 H   0  0  0  0  0  0  0  0  0  0  0  0
    6.3374    0.1399    0.6451 H   0  0  0  0  0  0  0  0  0  0  0  0
    2.5993   -4.0220    0.4855 H   0  0  0  0  0  0  0  0  0  0  0  0
    5.1423   -5.0980   -1.6645 H   0  0  0  0  0  0  0  0  0  0  0  0
    4.1805   -0.7163   -3.2996 H   0  0  0  0  0  0  0  0  0  0  0  0
    2.5961   -1.4326   -2.9770 H   0  0  0  0  0  0  0  0  0  0  0  0
    2.4284   -2.4159   -0.6091 H   0  0  0  0  0  0  0  0  0  0  0  0
    1.0229   -3.3477    4.7039 H   0  0  0  0  0  0  0  0  0  0  0  0
    0.3655   -3.6427    3.1180 H   0  0  0  0  0  0  0  0  0  0  0  0
   -0.0119   -5.6596    4.5621 H   0  0  0  0  0  0  0  0  0  0  0  0
    1.7188   -5.7762    4.8263 H   0  0  0  0  0  0  0  0  0  0  0  0
  1  2  1  0
  1 27  1  0
  1 28  1  0
  1 29  1  0
  2 26  1  0
  2  3  2  0
  3  4  1  0
  3 30  1  0
  4 16  1  0
  4  5  1  0
  4 31  1  1
  5  6  2  0
  5 25  1  0
  6  7  1  0
  6 32  1  0
  7 15  1  0
  7  8  1  0
  7 33  1  6
  8  9  1  0
  8 34  1  0
  8 35  1  0
  9 10  1  0
  9 36  1  0
  9 37  1  0
 10 18  1  0
 10 11  1  0
 10 38  1  1
 11 12  1  0
 11 39  1  0
 11 40  1  0
 12 13  1  0
 13 14  1  0
 15 13  1  6
 13 41  1  1
 14 42  1  0
 15 24  1  0
 15 16  1  0
 16 17  1  0
 16 43  1  6
 17 18  1  0
 18 19  1  0
 18 44  1  6
 19 24  1  0
 19 20  1  0
 20 21  2  0
 20 22  1  0
 22 23  1  0
 22 45  1  0
 22 46  1  0
 23 24  1  0
 24 47  1  1
 25 26  1  0
 25 48  1  0
 25 49  1  0
 26 50  1  0
 26 51  1  0
M  END
>  <i_m_ct_stereo_status>  (33) 
1

>  <s_m_source_file>  (33) 
/var/tmp/pbs.5076255.sched01/tmpnm8fzmj1/0q4giu30i.sdf

>  <i_m_source_file_index>  (33) 
14

>  <i_lp_mmshare_version>  (33) 
48012

>  <i_f3d_flags>  (33) 
0

>  <s_epik_input>  (33) 
QzEyM1tDQEBIXTRbQ0hdPUM1W0NAQEhdKFtDSF09QyhbQ0gzXSlbQ0gyXVtDSDJdNSlbQ0BASF0yT1tDQEhdKFtDQEhdKFtDSDJdW0NIMl00KVtDSDJdT1tDQEhdMVtPSF0pTjZbQ0BASF0zT1tDSDJdQzY9Tw==

>  <s_epik_cmdline>  (33) 
J2VwaWtfcHl0aG9uJywgJy1waHQnLCAnMi4wJywgJy1waCcsICc3LjAnLCAnLXRuJywgJzgnLCAnLW1hJywgJzIwMCcsICctaW1hZScsICc8aW5maWxlLm1hZT4nLCAnLW9tYWUnLCAnPG91dGZpbGUubWFlPic=

>  <r_lp_tautomer_probability>  (33) 
1

>  <r_epik_Ionization_Penalty>  (33) 
1.11337e-06

>  <r_epik_Ionization_Penalty_Charging>  (33) 
0

>  <r_epik_Ionization_Penalty_Neutral>  (33) 
1.11337e-06

>  <r_epik_State_Penalty>  (33) 
-0

>  <r_epik_Charging_Adjusted_Penalty>  (33) 
0

>  <i_epik_Tot_Q>  (33) 
0

>  <i_epik_Tot_abs_Q>  (33) 
0

>  <s_epik_Chemistry_Notes>  (33) 
This compound contains an acetal/aminal-like group ( X-CH(R)-Y where X, Y are N, S, or O) that may be acid/base labile, releasing an aldehyde.

>  <s_lp_Force_Field>  (33) 
OPLS3e

>  <r_lp_Energy>  (33) 
232.511

>  <b_lp_Chiralities_Consistent>  (33) 
1

>  <s_lp_Variant>  (33) 
9:0-1

>  <s_i_glide_gridfile>  (33) 
pfpi4k_grid

>  <i_i_glide_lignum>  (33) 
14

>  <i_i_glide_rotatable_bonds>  (33) 
1

>  <r_i_docking_score>  (33) 
-3.53698

>  <r_i_glide_ligand_efficiency>  (33) 
-0.136038

>  <r_i_glide_ligand_efficiency_sa>  (33) 
-0.403011

>  <r_i_glide_ligand_efficiency_ln>  (33) 
-0.830648

>  <r_i_glide_gscore>  (33) 
-3.53698

>  <r_i_glide_lipo>  (33) 
-0.29478

>  <r_i_glide_hbond>  (33) 
-0.101845

>  <r_i_glide_metal>  (33) 
-0

>  <r_i_glide_rewards>  (33) 
-1.10415

>  <r_i_glide_evdw>  (33) 
-29.2539

>  <r_i_glide_ecoul>  (33) 
-3.31287

>  <r_i_glide_erotb>  (33) 
0

>  <r_i_glide_esite>  (33) 
-0.0765844

>  <r_i_glide_emodel>  (33) 
-38.8853

>  <r_i_glide_energy>  (33) 
-32.5667

>  <r_i_glide_einternal>  (33) 
0.577399

>  <r_i_glide_intrahb_reward>  (33) 
-0

>  <i_i_glide_confnum>  (33) 
1

>  <i_i_glide_posenum>  (33) 
34

>  <r_i_glide_eff_state_penalty>  (33) 
0

>  <ligand_id>  (33) 
9

>  <original_smiles>  (33) 
CC1=CC2C(=CC3CCC4COC(O)C35C2OC4N2C(=O)COC25)CC1

>  <smiles>  (33) 
[H]OC1([H])OC([H])([H])C2([H])C3([H])OC4([H])C5([H])C([H])=C(C([H])([H])[H])C([H])([H])C([H])([H])C5=C([H])C([H])(C([H])([H])C2([H])[H])C14C1([H])OC([H])([H])C(=O)N31

$$$$
9:1:0
     RDKit          3D

 51 56  0  0  1  0  0  0  0  0999 V2000
    3.6086   -1.8161   -3.7148 C   0  0  0  0  0  0  0  0  0  0  0  0
    3.8856   -2.0327   -2.2380 C   0  0  0  0  0  0  0  0  0  0  0  0
    3.3231   -3.0097   -1.5082 C   0  0  0  0  0  0  0  0  0  0  0  0
    3.6198   -3.2147   -0.0339 C   0  0  2  0  0  0  0  0  0  0  0  0
    5.0209   -2.6314    0.4033 C   0  0  0  0  0  0  0  0  0  0  0  0
    5.5931   -2.9185    1.6268 C   0  0  0  0  0  0  0  0  0  0  0  0
    4.7673   -3.6816    2.6504 C   0  0  2  0  0  0  0  0  0  0  0  0
    5.1173   -4.6729    3.9110 C   0  0  0  0  0  0  0  0  0  0  0  0
    4.5766   -6.2676    4.0210 C   0  0  0  0  0  0  0  0  0  0  0  0
    3.3188   -6.9145    3.1498 C   0  0  2  0  0  0  0  0  0  0  0  0
    1.8289   -6.6806    3.3661 C   0  0  0  0  0  0  0  0  0  0  0  0
    1.4925   -5.5922    2.5089 O   0  0  0  0  0  0  0  0  0  0  0  0
    2.3826   -4.4665    2.4559 C   0  0  1  0  0  0  0  0  0  0  0  0
    2.2566   -3.7583    3.6771 O   0  0  0  0  0  0  0  0  0  0  0  0
    4.0182   -4.6370    1.8271 C   0  0  1  0  0  0  0  0  0  0  0  0
    3.6486   -4.7002    0.3833 C   0  0  1  0  0  0  0  0  0  0  0  0
    2.8502   -5.9607    0.5810 O   0  0  0  0  0  0  0  0  0  0  0  0
    3.4167   -7.0557    1.4707 C   0  0  1  0  0  0  0  0  0  0  0  0
    4.7734   -7.0322    1.1954 N   0  0  0  0  0  0  0  0  0  0  0  0
    5.7147   -7.9518    1.3928 C   0  0  0  0  0  0  0  0  0  0  0  0
    5.6134   -9.1630    1.3395 O   0  0  0  0  0  0  0  0  0  0  0  0
    6.9889   -7.1941    1.7268 C   0  0  0  0  0  0  0  0  0  0  0  0
    6.4831   -5.9010    2.1068 O   0  0  0  0  0  0  0  0  0  0  0  0
    5.2502   -5.7543    1.4216 C   0  0  2  0  0  0  0  0  0  0  0  0
    5.7978   -1.8609   -0.6450 C   0  0  0  0  0  0  0  0  0  0  0  0
    4.8682   -1.0802   -1.5836 C   0  0  0  0  0  0  0  0  0  0  0  0
    3.2035   -0.8197   -3.8971 H   0  0  0  0  0  0  0  0  0  0  0  0
    2.8876   -2.5516   -4.0827 H   0  0  0  0  0  0  0  0  0  0  0  0
    4.5261   -1.9299   -4.2861 H   0  0  0  0  0  0  0  0  0  0  0  0
    2.6022   -3.6822   -1.9552 H   0  0  0  0  0  0  0  0  0  0  0  0
    2.8722   -2.6160    0.4871 H   0  0  0  0  0  0  0  0  0  0  0  0
    6.5675   -2.5605    1.9158 H   0  0  0  0  0  0  0  0  0  0  0  0
    4.2227   -2.8300    3.0458 H   0  0  0  0  0  0  0  0  0  0  0  0
    6.1928   -4.6466    4.1147 H   0  0  0  0  0  0  0  0  0  0  0  0
    4.7143   -4.1667    4.7969 H   0  0  0  0  0  0  0  0  0  0  0  0
    5.4325   -6.9374    3.9379 H   0  0  0  0  0  0  0  0  0  0  0  0
    4.3750   -6.4237    5.0954 H   0  0  0  0  0  0  0  0  0  0  0  0
    3.2501   -5.9980    3.6595 H   0  0  0  0  0  0  0  0  0  0  0  0
    1.2529   -7.5428    3.0313 H   0  0  0  0  0  0  0  0  0  0  0  0
    1.5421   -6.4873    4.4034 H   0  0  0  0  0  0  0  0  0  0  0  0
    1.8304   -3.8369    1.7683 H   0  0  0  0  0  0  0  0  0  0  0  0
    1.3953   -3.3512    3.6818 H   0  0  0  0  0  0  0  0  0  0  0  0
    4.2631   -5.0527   -0.4451 H   0  0  0  0  0  0  0  0  0  0  0  0
    3.0064   -8.0186    1.1576 H   0  0  0  0  0  0  0  0  0  0  0  0
    7.5946   -7.6739    2.4976 H   0  0  0  0  0  0  0  0  0  0  0  0
    7.5963   -7.0932    0.8252 H   0  0  0  0  0  0  0  0  0  0  0  0
    5.8167   -5.4752    0.5302 H   0  0  0  0  0  0  0  0  0  0  0  0
    6.5187   -1.1935   -0.1658 H   0  0  0  0  0  0  0  0  0  0  0  0
    6.3670   -2.5782   -1.2415 H   0  0  0  0  0  0  0  0  0  0  0  0
    5.4261   -0.5310   -2.3390 H   0  0  0  0  0  0  0  0  0  0  0  0
    4.3017   -0.3359   -1.0211 H   0  0  0  0  0  0  0  0  0  0  0  0
  1  2  1  0
  1 27  1  0
  1 28  1  0
  1 29  1  0
  2 26  1  0
  2  3  2  0
  3  4  1  0
  3 30  1  0
  4 16  1  0
  4  5  1  0
  4 31  1  1
  5  6  2  0
  5 25  1  0
  6  7  1  0
  6 32  1  0
  7 15  1  0
  7  8  1  0
  7 33  1  1
  8  9  1  0
  8 34  1  0
  8 35  1  0
  9 10  1  0
  9 36  1  0
  9 37  1  0
 10 18  1  0
 10 11  1  0
 10 38  1  1
 11 12  1  0
 11 39  1  0
 11 40  1  0
 12 13  1  0
 13 14  1  0
 15 13  1  1
 13 41  1  6
 14 42  1  0
 15 24  1  0
 15 16  1  0
 16 17  1  0
 16 43  1  6
 17 18  1  0
 18 19  1  0
 18 44  1  6
 19 24  1  0
 19 20  1  0
 20 21  2  0
 20 22  1  0
 22 23  1  0
 22 45  1  0
 22 46  1  0
 23 24  1  0
 24 47  1  6
 25 26  1  0
 25 48  1  0
 25 49  1  0
 26 50  1  0
 26 51  1  0
M  END
>  <i_m_ct_stereo_status>  (34) 
1

>  <s_m_source_file>  (34) 
/var/tmp/pbs.5076255.sched01/tmpnm8fzmj1/0q4giu30i.sdf

>  <i_m_source_file_index>  (34) 
15

>  <i_lp_mmshare_version>  (34) 
48012

>  <i_f3d_flags>  (34) 
0

>  <s_epik_input>  (34) 
QzEyM1tDQEBIXTRbQ0hdPUM1W0NAQEhdKFtDSF09QyhbQ0gzXSlbQ0gyXVtDSDJdNSlbQ0BASF0yT1tDQEhdKFtDQEhdKFtDSDJdW0NIMl00KVtDSDJdT1tDQEhdMVtPSF0pTjZbQ0BASF0zT1tDSDJdQzY9Tw==

>  <s_epik_cmdline>  (34) 
J2VwaWtfcHl0aG9uJywgJy1waHQnLCAnMi4wJywgJy1waCcsICc3LjAnLCAnLXRuJywgJzgnLCAnLW1hJywgJzIwMCcsICctaW1hZScsICc8aW5maWxlLm1hZT4nLCAnLW9tYWUnLCAnPG91dGZpbGUubWFlPic=

>  <r_lp_tautomer_probability>  (34) 
1

>  <r_epik_Ionization_Penalty>  (34) 
1.11337e-06

>  <r_epik_Ionization_Penalty_Charging>  (34) 
0

>  <r_epik_Ionization_Penalty_Neutral>  (34) 
1.11337e-06

>  <r_epik_State_Penalty>  (34) 
-0

>  <r_epik_Charging_Adjusted_Penalty>  (34) 
0

>  <i_epik_Tot_Q>  (34) 
0

>  <i_epik_Tot_abs_Q>  (34) 
0

>  <s_epik_Chemistry_Notes>  (34) 
This compound contains an acetal/aminal-like group ( X-CH(R)-Y where X, Y are N, S, or O) that may be acid/base labile, releasing an aldehyde.

>  <s_lp_Force_Field>  (34) 
OPLS3e

>  <r_lp_Energy>  (34) 
373.809

>  <b_lp_Chiralities_Consistent>  (34) 
1

>  <s_lp_Variant>  (34) 
9:0-2

>  <s_i_glide_gridfile>  (34) 
pfpi4k_grid

>  <i_i_glide_lignum>  (34) 
15

>  <i_i_glide_rotatable_bonds>  (34) 
1

>  <r_i_docking_score>  (34) 
-3.54982

>  <r_i_glide_ligand_efficiency>  (34) 
-0.136532

>  <r_i_glide_ligand_efficiency_sa>  (34) 
-0.404474

>  <r_i_glide_ligand_efficiency_ln>  (34) 
-0.833664

>  <r_i_glide_gscore>  (34) 
-3.54982

>  <r_i_glide_lipo>  (34) 
-0.383639

>  <r_i_glide_hbond>  (34) 
0

>  <r_i_glide_metal>  (34) 
-0

>  <r_i_glide_rewards>  (34) 
-1.39578

>  <r_i_glide_evdw>  (34) 
-28.9613

>  <r_i_glide_ecoul>  (34) 
-2.09466

>  <r_i_glide_erotb>  (34) 
0

>  <r_i_glide_esite>  (34) 
-0.00813315

>  <r_i_glide_emodel>  (34) 
-36.7617

>  <r_i_glide_energy>  (34) 
-31.056

>  <r_i_glide_einternal>  (34) 
0.601527

>  <r_i_glide_intrahb_reward>  (34) 
-0

>  <i_i_glide_confnum>  (34) 
2

>  <i_i_glide_posenum>  (34) 
6

>  <r_i_glide_eff_state_penalty>  (34) 
0

>  <ligand_id>  (34) 
9

>  <original_smiles>  (34) 
CC1=CC2C(=CC3CCC4COC(O)C35C2OC4N2C(=O)COC25)CC1

>  <smiles>  (34) 
[H]OC1([H])OC([H])([H])C2([H])C3([H])OC4([H])C5([H])C([H])=C(C([H])([H])[H])C([H])([H])C([H])([H])C5=C([H])C([H])(C([H])([H])C2([H])[H])C14C1([H])OC([H])([H])C(=O)N31

$$$$
9:1:1
     RDKit          3D

 51 56  0  0  1  0  0  0  0  0999 V2000
    3.6581   -1.8689   -3.7510 C   0  0  0  0  0  0  0  0  0  0  0  0
    3.9136   -2.0807   -2.2698 C   0  0  0  0  0  0  0  0  0  0  0  0
    3.3604   -3.0732   -1.5531 C   0  0  0  0  0  0  0  0  0  0  0  0
    3.6381   -3.2869   -0.0751 C   0  0  2  0  0  0  0  0  0  0  0  0
    5.0135   -2.6667    0.3902 C   0  0  0  0  0  0  0  0  0  0  0  0
    5.5709   -2.9455    1.6225 C   0  0  0  0  0  0  0  0  0  0  0  0
    4.7476   -3.7383    2.6249 C   0  0  2  0  0  0  0  0  0  0  0  0
    5.1024   -4.7251    3.8883 C   0  0  0  0  0  0  0  0  0  0  0  0
    4.6082   -6.3370    3.9787 C   0  0  0  0  0  0  0  0  0  0  0  0
    3.3896   -7.0193    3.0788 C   0  0  2  0  0  0  0  0  0  0  0  0
    1.8892   -6.8350    3.2676 C   0  0  0  0  0  0  0  0  0  0  0  0
    1.5384   -5.7505    2.4140 O   0  0  0  0  0  0  0  0  0  0  0  0
    2.3907   -4.5952    2.3852 C   0  0  1  0  0  0  0  0  0  0  0  0
    2.2123   -3.8932    3.6026 O   0  0  0  0  0  0  0  0  0  0  0  0
    4.0428   -4.7102    1.7819 C   0  0  1  0  0  0  0  0  0  0  0  0
    3.7053   -4.7752    0.3300 C   0  0  1  0  0  0  0  0  0  0  0  0
    2.9433   -6.0614    0.5092 O   0  0  0  0  0  0  0  0  0  0  0  0
    3.5243   -7.1460    1.4013 C   0  0  1  0  0  0  0  0  0  0  0  0
    4.8842   -7.0795    1.1547 N   0  0  0  0  0  0  0  0  0  0  0  0
    5.8477   -7.9726    1.3674 C   0  0  0  0  0  0  0  0  0  0  0  0
    5.7849   -9.1860    1.3043 O   0  0  0  0  0  0  0  0  0  0  0  0
    7.0933   -7.1788    1.7272 C   0  0  0  0  0  0  0  0  0  0  0  0
    6.5404   -5.9027    2.1046 O   0  0  0  0  0  0  0  0  0  0  0  0
    5.3165   -5.7889    1.3960 C   0  0  2  0  0  0  0  0  0  0  0  0
    5.7886   -1.8688   -0.6388 C   0  0  0  0  0  0  0  0  0  0  0  0
    4.8587   -1.1088   -1.5929 C   0  0  0  0  0  0  0  0  0  0  0  0
    3.2265   -0.8849   -3.9389 H   0  0  0  0  0  0  0  0  0  0  0  0
    2.9676   -2.6247   -4.1348 H   0  0  0  0  0  0  0  0  0  0  0  0
    4.5900   -1.9536   -4.3040 H   0  0  0  0  0  0  0  0  0  0  0  0
    2.6708   -3.7656   -2.0176 H   0  0  0  0  0  0  0  0  0  0  0  0
    2.8621   -2.7197    0.4395 H   0  0  0  0  0  0  0  0  0  0  0  0
    6.5290   -2.5611    1.9321 H   0  0  0  0  0  0  0  0  0  0  0  0
    4.1714   -2.9034    3.0111 H   0  0  0  0  0  0  0  0  0  0  0  0
    6.1733   -4.6666    4.1087 H   0  0  0  0  0  0  0  0  0  0  0  0
    4.6786   -4.2348    4.7730 H   0  0  0  0  0  0  0  0  0  0  0  0
    5.4862   -6.9795    3.9089 H   0  0  0  0  0  0  0  0  0  0  0  0
    4.3923   -6.5083    5.0485 H   0  0  0  0  0  0  0  0  0  0  0  0
    3.2856   -6.1097    3.5909 H   0  0  0  0  0  0  0  0  0  0  0  0
    1.3442   -7.7098    2.9158 H   0  0  0  0  0  0  0  0  0  0  0  0
    1.5761   -6.6540    4.2996 H   0  0  0  0  0  0  0  0  0  0  0  0
    1.8170   -3.9855    1.6946 H   0  0  0  0  0  0  0  0  0  0  0  0
    2.6749   -4.3646    4.2874 H   0  0  0  0  0  0  0  0  0  0  0  0
    4.3472   -5.1042   -0.4879 H   0  0  0  0  0  0  0  0  0  0  0  0
    3.1498   -8.1187    1.0733 H   0  0  0  0  0  0  0  0  0  0  0  0
    7.6993   -7.6446    2.5060 H   0  0  0  0  0  0  0  0  0  0  0  0
    7.7113   -7.0563    0.8354 H   0  0  0  0  0  0  0  0  0  0  0  0
    5.8919   -5.4903    0.5161 H   0  0  0  0  0  0  0  0  0  0  0  0
    6.4805   -1.1832   -0.1423 H   0  0  0  0  0  0  0  0  0  0  0  0
    6.3899   -2.5659   -1.2282 H   0  0  0  0  0  0  0  0  0  0  0  0
    5.4229   -0.5419   -2.3310 H   0  0  0  0  0  0  0  0  0  0  0  0
    4.2599   -0.3838   -1.0394 H   0  0  0  0  0  0  0  0  0  0  0  0
  1  2  1  0
  1 27  1  0
  1 28  1  0
  1 29  1  0
  2 26  1  0
  2  3  2  0
  3  4  1  0
  3 30  1  0
  4 16  1  0
  4  5  1  0
  4 31  1  1
  5  6  2  0
  5 25  1  0
  6  7  1  0
  6 32  1  0
  7 15  1  0
  7  8  1  0
  7 33  1  1
  8  9  1  0
  8 34  1  0
  8 35  1  0
  9 10  1  0
  9 36  1  0
  9 37  1  0
 10 18  1  0
 10 11  1  0
 10 38  1  1
 11 12  1  0
 11 39  1  0
 11 40  1  0
 12 13  1  0
 13 14  1  0
 15 13  1  1
 13 41  1  6
 14 42  1  0
 15 24  1  0
 15 16  1  0
 16 17  1  0
 16 43  1  6
 17 18  1  0
 18 19  1  0
 18 44  1  6
 19 24  1  0
 19 20  1  0
 20 21  2  0
 20 22  1  0
 22 23  1  0
 22 45  1  0
 22 46  1  0
 23 24  1  0
 24 47  1  6
 25 26  1  0
 25 48  1  0
 25 49  1  0
 26 50  1  0
 26 51  1  0
M  END
>  <i_m_ct_stereo_status>  (35) 
1

>  <s_m_source_file>  (35) 
/var/tmp/pbs.5076255.sched01/tmpnm8fzmj1/0q4giu30i.sdf

>  <i_m_source_file_index>  (35) 
15

>  <i_lp_mmshare_version>  (35) 
48012

>  <i_f3d_flags>  (35) 
0

>  <s_epik_input>  (35) 
QzEyM1tDQEBIXTRbQ0hdPUM1W0NAQEhdKFtDSF09QyhbQ0gzXSlbQ0gyXVtDSDJdNSlbQ0BASF0yT1tDQEhdKFtDQEhdKFtDSDJdW0NIMl00KVtDSDJdT1tDQEhdMVtPSF0pTjZbQ0BASF0zT1tDSDJdQzY9Tw==

>  <s_epik_cmdline>  (35) 
J2VwaWtfcHl0aG9uJywgJy1waHQnLCAnMi4wJywgJy1waCcsICc3LjAnLCAnLXRuJywgJzgnLCAnLW1hJywgJzIwMCcsICctaW1hZScsICc8aW5maWxlLm1hZT4nLCAnLW9tYWUnLCAnPG91dGZpbGUubWFlPic=

>  <r_lp_tautomer_probability>  (35) 
1

>  <r_epik_Ionization_Penalty>  (35) 
1.11337e-06

>  <r_epik_Ionization_Penalty_Charging>  (35) 
0

>  <r_epik_Ionization_Penalty_Neutral>  (35) 
1.11337e-06

>  <r_epik_State_Penalty>  (35) 
-0

>  <r_epik_Charging_Adjusted_Penalty>  (35) 
0

>  <i_epik_Tot_Q>  (35) 
0

>  <i_epik_Tot_abs_Q>  (35) 
0

>  <s_epik_Chemistry_Notes>  (35) 
This compound contains an acetal/aminal-like group ( X-CH(R)-Y where X, Y are N, S, or O) that may be acid/base labile, releasing an aldehyde.

>  <s_lp_Force_Field>  (35) 
OPLS3e

>  <r_lp_Energy>  (35) 
373.809

>  <b_lp_Chiralities_Consistent>  (35) 
1

>  <s_lp_Variant>  (35) 
9:0-2

>  <s_i_glide_gridfile>  (35) 
pfpi4k_grid

>  <i_i_glide_lignum>  (35) 
15

>  <i_i_glide_rotatable_bonds>  (35) 
1

>  <r_i_docking_score>  (35) 
-3.33993

>  <r_i_glide_ligand_efficiency>  (35) 
-0.128459

>  <r_i_glide_ligand_efficiency_sa>  (35) 
-0.380559

>  <r_i_glide_ligand_efficiency_ln>  (35) 
-0.784372

>  <r_i_glide_gscore>  (35) 
-3.33993

>  <r_i_glide_lipo>  (35) 
-0.378025

>  <r_i_glide_hbond>  (35) 
0

>  <r_i_glide_metal>  (35) 
-0

>  <r_i_glide_rewards>  (35) 
-1.41709

>  <r_i_glide_evdw>  (35) 
-28.8778

>  <r_i_glide_ecoul>  (35) 
-0.612276

>  <r_i_glide_erotb>  (35) 
0

>  <r_i_glide_esite>  (35) 
-0.00908336

>  <r_i_glide_emodel>  (35) 
-35.2075

>  <r_i_glide_energy>  (35) 
-29.4901

>  <r_i_glide_einternal>  (35) 
0.00424452

>  <r_i_glide_intrahb_reward>  (35) 
-0

>  <i_i_glide_confnum>  (35) 
2

>  <i_i_glide_posenum>  (35) 
4

>  <r_i_glide_eff_state_penalty>  (35) 
0

>  <ligand_id>  (35) 
9

>  <original_smiles>  (35) 
CC1=CC2C(=CC3CCC4COC(O)C35C2OC4N2C(=O)COC25)CC1

>  <smiles>  (35) 
[H]OC1([H])OC([H])([H])C2([H])C3([H])OC4([H])C5([H])C([H])=C(C([H])([H])[H])C([H])([H])C([H])([H])C5=C([H])C([H])(C([H])([H])C2([H])[H])C14C1([H])OC([H])([H])C(=O)N31

$$$$
9:1:2
     RDKit          3D

 51 56  0  0  1  0  0  0  0  0999 V2000
    3.3325   -2.4750   -3.6096 C   0  0  0  0  0  0  0  0  0  0  0  0
    3.6538   -2.4355   -2.1266 C   0  0  0  0  0  0  0  0  0  0  0  0
    2.9997   -3.1618   -1.2060 C   0  0  0  0  0  0  0  0  0  0  0  0
    3.3289   -3.1203    0.2750 C   0  0  2  0  0  0  0  0  0  0  0  0
    4.8148   -2.6679    0.5605 C   0  0  0  0  0  0  0  0  0  0  0  0
    5.3995   -2.7931    1.8052 C   0  0  0  0  0  0  0  0  0  0  0  0
    4.5238   -3.2184    2.9728 C   0  0  2  0  0  0  0  0  0  0  0  0
    4.7962   -3.9854    4.3980 C   0  0  0  0  0  0  0  0  0  0  0  0
    4.0541   -5.4394    4.8309 C   0  0  0  0  0  0  0  0  0  0  0  0
    2.6829   -6.0631    4.1292 C   0  0  2  0  0  0  0  0  0  0  0  0
    1.2514   -5.5889    4.3356 C   0  0  0  0  0  0  0  0  0  0  0  0
    1.0275   -4.6526    3.2909 O   0  0  0  0  0  0  0  0  0  0  0  0
    2.0474   -3.6852    2.9939 C   0  0  1  0  0  0  0  0  0  0  0  0
    2.0662   -2.7392    4.0482 O   0  0  0  0  0  0  0  0  0  0  0  0
    3.6147   -4.1983    2.3696 C   0  0  1  0  0  0  0  0  0  0  0  0
    3.1723   -4.4873    0.9724 C   0  0  1  0  0  0  0  0  0  0  0  0
    2.2194   -5.5602    1.4285 O   0  0  0  0  0  0  0  0  0  0  0  0
    2.6781   -6.5327    2.5046 C   0  0  1  0  0  0  0  0  0  0  0  0
    4.0118   -6.7515    2.1998 N   0  0  0  0  0  0  0  0  0  0  0  0
    4.8269   -7.7415    2.5528 C   0  0  0  0  0  0  0  0  0  0  0  0
    4.5484   -8.9062    2.7672 O   0  0  0  0  0  0  0  0  0  0  0  0
    6.2066   -7.1235    2.7076 C   0  0  0  0  0  0  0  0  0  0  0  0
    5.8971   -5.7228    2.8454 O   0  0  0  0  0  0  0  0  0  0  0  0
    4.6660   -5.5350    2.1667 C   0  0  2  0  0  0  0  0  0  0  0  0
    5.6394   -2.2328   -0.6342 C   0  0  0  0  0  0  0  0  0  0  0  0
    4.7860   -1.5244   -1.6952 C   0  0  0  0  0  0  0  0  0  0  0  0
    3.0559   -1.4871   -3.9806 H   0  0  0  0  0  0  0  0  0  0  0  0
    2.5020   -3.1590   -3.8058 H   0  0  0  0  0  0  0  0  0  0  0  0
    4.1955   -2.8321   -4.1660 H   0  0  0  0  0  0  0  0  0  0  0  0
    2.1762   -3.7973   -1.5011 H   0  0  0  0  0  0  0  0  0  0  0  0
    2.6897   -2.3380    0.6849 H   0  0  0  0  0  0  0  0  0  0  0  0
    6.4256   -2.5288    1.9997 H   0  0  0  0  0  0  0  0  0  0  0  0
    4.1169   -2.2377    3.1985 H   0  0  0  0  0  0  0  0  0  0  0  0
    5.8740   -4.0691    4.5666 H   0  0  0  0  0  0  0  0  0  0  0  0
    4.5158   -3.2647    5.1759 H   0  0  0  0  0  0  0  0  0  0  0  0
    4.8093   -6.2252    4.8639 H   0  0  0  0  0  0  0  0  0  0  0  0
    3.8863   -5.3557    5.9199 H   0  0  0  0  0  0  0  0  0  0  0  0
    2.7649   -5.0676    4.4510 H   0  0  0  0  0  0  0  0  0  0  0  0
    0.5459   -6.4046    4.1889 H   0  0  0  0  0  0  0  0  0  0  0  0
    1.0442   -5.1539    5.3176 H   0  0  0  0  0  0  0  0  0  0  0  0
    1.5369   -3.1308    2.2135 H   0  0  0  0  0  0  0  0  0  0  0  0
    2.3898   -3.1716    4.8316 H   0  0  0  0  0  0  0  0  0  0  0  0
    3.6976   -5.0753    0.2182 H   0  0  0  0  0  0  0  0  0  0  0  0
    2.1271   -7.4695    2.3946 H   0  0  0  0  0  0  0  0  0  0  0  0
    6.7722   -7.5277    3.5502 H   0  0  0  0  0  0  0  0  0  0  0  0
    6.7790   -7.2863    1.7941 H   0  0  0  0  0  0  0  0  0  0  0  0
    5.2255   -5.5144    1.2273 H   0  0  0  0  0  0  0  0  0  0  0  0
    6.4684   -1.5976   -0.3127 H   0  0  0  0  0  0  0  0  0  0  0  0
    6.0749   -3.1262   -1.0890 H   0  0  0  0  0  0  0  0  0  0  0  0
    5.3883   -1.2302   -2.5536 H   0  0  0  0  0  0  0  0  0  0  0  0
    4.3477   -0.6116   -1.2862 H   0  0  0  0  0  0  0  0  0  0  0  0
  1  2  1  0
  1 27  1  0
  1 28  1  0
  1 29  1  0
  2 26  1  0
  2  3  2  0
  3  4  1  0
  3 30  1  0
  4 16  1  0
  4  5  1  0
  4 31  1  1
  5  6  2  0
  5 25  1  0
  6  7  1  0
  6 32  1  0
  7 15  1  0
  7  8  1  0
  7 33  1  1
  8  9  1  0
  8 34  1  0
  8 35  1  0
  9 10  1  0
  9 36  1  0
  9 37  1  0
 10 18  1  0
 10 11  1  0
 10 38  1  1
 11 12  1  0
 11 39  1  0
 11 40  1  0
 12 13  1  0
 13 14  1  0
 15 13  1  1
 13 41  1  6
 14 42  1  0
 15 24  1  0
 15 16  1  0
 16 17  1  0
 16 43  1  6
 17 18  1  0
 18 19  1  0
 18 44  1  1
 19 24  1  0
 19 20  1  0
 20 21  2  0
 20 22  1  0
 22 23  1  0
 22 45  1  0
 22 46  1  0
 23 24  1  0
 24 47  1  6
 25 26  1  0
 25 48  1  0
 25 49  1  0
 26 50  1  0
 26 51  1  0
M  END
>  <i_m_ct_stereo_status>  (36) 
1

>  <s_m_source_file>  (36) 
/var/tmp/pbs.5076255.sched01/tmpnm8fzmj1/0q4giu30i.sdf

>  <i_m_source_file_index>  (36) 
15

>  <i_lp_mmshare_version>  (36) 
48012

>  <i_f3d_flags>  (36) 
0

>  <s_epik_input>  (36) 
QzEyM1tDQEBIXTRbQ0hdPUM1W0NAQEhdKFtDSF09QyhbQ0gzXSlbQ0gyXVtDSDJdNSlbQ0BASF0yT1tDQEhdKFtDQEhdKFtDSDJdW0NIMl00KVtDSDJdT1tDQEhdMVtPSF0pTjZbQ0BASF0zT1tDSDJdQzY9Tw==

>  <s_epik_cmdline>  (36) 
J2VwaWtfcHl0aG9uJywgJy1waHQnLCAnMi4wJywgJy1waCcsICc3LjAnLCAnLXRuJywgJzgnLCAnLW1hJywgJzIwMCcsICctaW1hZScsICc8aW5maWxlLm1hZT4nLCAnLW9tYWUnLCAnPG91dGZpbGUubWFlPic=

>  <r_lp_tautomer_probability>  (36) 
1

>  <r_epik_Ionization_Penalty>  (36) 
1.11337e-06

>  <r_epik_Ionization_Penalty_Charging>  (36) 
0

>  <r_epik_Ionization_Penalty_Neutral>  (36) 
1.11337e-06

>  <r_epik_State_Penalty>  (36) 
-0

>  <r_epik_Charging_Adjusted_Penalty>  (36) 
0

>  <i_epik_Tot_Q>  (36) 
0

>  <i_epik_Tot_abs_Q>  (36) 
0

>  <s_epik_Chemistry_Notes>  (36) 
This compound contains an acetal/aminal-like group ( X-CH(R)-Y where X, Y are N, S, or O) that may be acid/base labile, releasing an aldehyde.

>  <s_lp_Force_Field>  (36) 
OPLS3e

>  <r_lp_Energy>  (36) 
373.809

>  <b_lp_Chiralities_Consistent>  (36) 
1

>  <s_lp_Variant>  (36) 
9:0-2

>  <s_i_glide_gridfile>  (36) 
pfpi4k_grid

>  <i_i_glide_lignum>  (36) 
15

>  <i_i_glide_rotatable_bonds>  (36) 
1

>  <r_i_docking_score>  (36) 
-2.58419

>  <r_i_glide_ligand_efficiency>  (36) 
-0.099392

>  <r_i_glide_ligand_efficiency_sa>  (36) 
-0.294448

>  <r_i_glide_ligand_efficiency_ln>  (36) 
-0.606889

>  <r_i_glide_gscore>  (36) 
-2.58419

>  <r_i_glide_lipo>  (36) 
-0.386198

>  <r_i_glide_hbond>  (36) 
0

>  <r_i_glide_metal>  (36) 
-0

>  <r_i_glide_rewards>  (36) 
-0.989214

>  <r_i_glide_evdw>  (36) 
-25.0126

>  <r_i_glide_ecoul>  (36) 
0.32411

>  <r_i_glide_erotb>  (36) 
0

>  <r_i_glide_esite>  (36) 
-0.00676533

>  <r_i_glide_emodel>  (36) 
-28.9993

>  <r_i_glide_energy>  (36) 
-24.6885

>  <r_i_glide_einternal>  (36) 
0.0595477

>  <r_i_glide_intrahb_reward>  (36) 
-0

>  <i_i_glide_confnum>  (36) 
2

>  <i_i_glide_posenum>  (36) 
23

>  <r_i_glide_eff_state_penalty>  (36) 
0

>  <ligand_id>  (36) 
9

>  <original_smiles>  (36) 
CC1=CC2C(=CC3CCC4COC(O)C35C2OC4N2C(=O)COC25)CC1

>  <smiles>  (36) 
[H]OC1([H])OC([H])([H])C2([H])C3([H])OC4([H])C5([H])C([H])=C(C([H])([H])[H])C([H])([H])C([H])([H])C5=C([H])C([H])(C([H])([H])C2([H])[H])C14C1([H])OC([H])([H])C(=O)N31

$$$$
10:0:0
     RDKit          3D

 47 51  0  0  1  0  0  0  0  0999 V2000
    8.2750   -3.3901    0.6730 C   0  0  0  0  0  0  0  0  0  0  0  0
    7.0180   -3.1942    1.2959 O   0  0  0  0  0  0  0  0  0  0  0  0
    5.9182   -3.0620    0.4693 C   0  0  2  0  0  0  0  0  0  0  0  0
    5.8909   -1.7464   -0.0625 O   0  0  0  0  0  0  0  0  0  0  0  0
    4.8893   -1.3094   -0.9677 C   0  0  1  0  0  0  0  0  0  0  0  0
    5.2500   -1.1182   -2.3144 O   0  0  0  0  0  0  0  0  0  0  0  0
    4.0418   -1.1637   -3.0482 C   0  0  1  0  0  0  0  0  0  0  0  0
    3.8181    0.1327   -3.8131 C   0  0  0  0  0  0  0  0  0  0  0  0
    4.0098   -2.3926   -3.9748 C   0  0  0  0  0  0  0  0  0  0  0  0
    3.4575   -3.6061   -3.2214 C   0  0  0  0  0  0  0  0  0  0  0  0
    4.0042   -3.5368   -1.7896 C   0  0  2  0  0  0  0  0  0  0  0  0
    3.5285   -4.5312   -0.7213 C   0  0  0  0  0  0  0  0  0  0  0  0
    3.3979   -3.7081    0.5622 C   0  0  1  0  0  0  0  0  0  0  0  0
    4.6841   -3.4537    1.3686 C   0  0  2  0  0  0  0  0  0  0  0  0
    4.3323   -2.5109    2.5622 C   0  0  1  0  0  0  0  0  0  0  0  0
    5.3983   -2.3787    3.6365 C   0  0  0  0  0  0  0  0  0  0  0  0
    3.7988   -1.1435    2.1262 C   0  0  0  0  0  0  0  0  0  0  0  0
    2.6312   -1.2902    1.1427 C   0  0  0  0  0  0  0  0  0  0  0  0
    2.8127   -2.4008    0.0847 C   0  0  1  0  0  0  0  0  0  0  0  0
    3.6539   -2.1486   -1.1683 C   0  0  1  0  0  0  0  0  0  0  0  0
    3.0096   -1.3488   -2.1434 O   0  0  0  0  0  0  0  0  0  0  0  0
    9.0431   -3.4544    1.4476 H   0  0  0  0  0  0  0  0  0  0  0  0
    8.5521   -2.5699    0.0049 H   0  0  0  0  0  0  0  0  0  0  0  0
    8.2793   -4.3379    0.1317 H   0  0  0  0  0  0  0  0  0  0  0  0
    6.1062   -3.8075   -0.2958 H   0  0  0  0  0  0  0  0  0  0  0  0
    4.5902   -0.3285   -0.6079 H   0  0  0  0  0  0  0  0  0  0  0  0
    3.8926    0.9600   -3.1154 H   0  0  0  0  0  0  0  0  0  0  0  0
    2.8259    0.1445   -4.2701 H   0  0  0  0  0  0  0  0  0  0  0  0
    4.5630    0.2498   -4.5995 H   0  0  0  0  0  0  0  0  0  0  0  0
    3.3787   -2.1888   -4.8371 H   0  0  0  0  0  0  0  0  0  0  0  0
    5.0105   -2.6093   -4.3127 H   0  0  0  0  0  0  0  0  0  0  0  0
    2.3665   -3.5988   -3.2090 H   0  0  0  0  0  0  0  0  0  0  0  0
    3.8193   -4.4644   -3.7873 H   0  0  0  0  0  0  0  0  0  0  0  0
    5.0753   -3.6374   -1.9630 H   0  0  0  0  0  0  0  0  0  0  0  0
    2.5100   -4.8641   -0.9057 H   0  0  0  0  0  0  0  0  0  0  0  0
    4.1835   -5.3946   -0.6118 H   0  0  0  0  0  0  0  0  0  0  0  0
    2.6812   -4.2017    1.2164 H   0  0  0  0  0  0  0  0  0  0  0  0
    4.9442   -4.4269    1.8019 H   0  0  0  0  0  0  0  0  0  0  0  0
    3.5066   -3.0012    3.0773 H   0  0  0  0  0  0  0  0  0  0  0  0
    6.1701   -1.7147    3.2570 H   0  0  0  0  0  0  0  0  0  0  0  0
    5.7959   -3.3628    3.8833 H   0  0  0  0  0  0  0  0  0  0  0  0
    4.9907   -1.9457    4.5529 H   0  0  0  0  0  0  0  0  0  0  0  0
    3.4715   -0.5778    3.0004 H   0  0  0  0  0  0  0  0  0  0  0  0
    4.5989   -0.5609    1.6752 H   0  0  0  0  0  0  0  0  0  0  0  0
    1.7359   -1.5234    1.7207 H   0  0  0  0  0  0  0  0  0  0  0  0
    2.4365   -0.3290    0.6665 H   0  0  0  0  0  0  0  0  0  0  0  0
    1.8223   -2.6566   -0.2664 H   0  0  0  0  0  0  0  0  0  0  0  0
  1  2  1  0
  1 22  1  0
  1 23  1  0
  1 24  1  0
  2  3  1  0
  3 14  1  0
  3  4  1  0
  3 25  1  6
  4  5  1  0
  5 20  1  0
  5  6  1  0
  5 26  1  1
  6  7  1  0
  7 21  1  0
  7  8  1  6
  7  9  1  0
  8 27  1  0
  8 28  1  0
  8 29  1  0
  9 10  1  0
  9 30  1  0
  9 31  1  0
 10 11  1  0
 10 32  1  0
 10 33  1  0
 11 20  1  0
 11 12  1  0
 11 34  1  6
 12 13  1  0
 12 35  1  0
 12 36  1  0
 13 19  1  0
 13 14  1  0
 13 37  1  1
 14 15  1  0
 14 38  1  1
 15 16  1  0
 15 17  1  0
 15 39  1  1
 16 40  1  0
 16 41  1  0
 16 42  1  0
 17 18  1  0
 17 43  1  0
 17 44  1  0
 18 19  1  0
 18 45  1  0
 18 46  1  0
 19 20  1  0
 19 47  1  6
 20 21  1  6
M  END
>  <i_m_ct_stereo_status>  (37) 
1

>  <s_m_source_file>  (37) 
/var/tmp/pbs.5076255.sched01/tmpnm8fzmj1/0q4giu30i.sdf

>  <i_m_source_file_index>  (37) 
18

>  <i_lp_mmshare_version>  (37) 
48012

>  <i_f3d_flags>  (37) 
2

>  <s_epik_input>  (37) 
W0NIM11bQ0BIXTFbQ0gyXVtDSDJdW0NASF0yW0NAQEhdKFtDQEBIXTFbQ0BIXShPW0NIM10pT1tDQEhdM1tDQF0yNDUpW0NIMl1bQ0hdNFtDSDJdW0NIMl1bQ0BAXShPMykoTzUpW0NIM10=

>  <s_epik_cmdline>  (37) 
J2VwaWtfcHl0aG9uJywgJy1waHQnLCAnMi4wJywgJy1waCcsICc3LjAnLCAnLXRuJywgJzgnLCAnLW1hJywgJzIwMCcsICctaW1hZScsICc8aW5maWxlLm1hZT4nLCAnLW9tYWUnLCAnPG91dGZpbGUubWFlPic=

>  <r_lp_tautomer_probability>  (37) 
1

>  <r_epik_Ionization_Penalty>  (37) 
1.36294e-12

>  <r_epik_Ionization_Penalty_Charging>  (37) 
0

>  <r_epik_Ionization_Penalty_Neutral>  (37) 
1.36294e-12

>  <r_epik_State_Penalty>  (37) 
-0

>  <r_epik_Charging_Adjusted_Penalty>  (37) 
0

>  <i_epik_Tot_Q>  (37) 
0

>  <i_epik_Tot_abs_Q>  (37) 
0

>  <s_epik_Chemistry_Notes>  (37) 
This compound contains an acetal/aminal-like group ( X-CH(R)-Y where X, Y are N, S, or O) that may be acid/base labile, releasing an aldehyde.

>  <s_lp_Force_Field>  (37) 
OPLS3e

>  <r_lp_Energy>  (37) 
54.1146

>  <b_lp_Chiralities_Consistent>  (37) 
0

>  <s_lp_Variant>  (37) 
10:0-1

>  <s_i_glide_gridfile>  (37) 
pfpi4k_grid

>  <i_i_glide_lignum>  (37) 
18

>  <i_i_glide_rotatable_bonds>  (37) 
1

>  <r_i_docking_score>  (37) 
-2.71873

>  <r_i_glide_ligand_efficiency>  (37) 
-0.129463

>  <r_i_glide_ligand_efficiency_sa>  (37) 
-0.357179

>  <r_i_glide_ligand_efficiency_ln>  (37) 
-0.672199

>  <r_i_glide_gscore>  (37) 
-2.71873

>  <r_i_glide_lipo>  (37) 
-0.344278

>  <r_i_glide_hbond>  (37) 
0

>  <r_i_glide_metal>  (37) 
-0

>  <r_i_glide_rewards>  (37) 
-1.56616

>  <r_i_glide_evdw>  (37) 
-14.6977

>  <r_i_glide_ecoul>  (37) 
-0.223182

>  <r_i_glide_erotb>  (37) 
0

>  <r_i_glide_esite>  (37) 
-0.0399263

>  <r_i_glide_emodel>  (37) 
-14.6495

>  <r_i_glide_energy>  (37) 
-14.9209

>  <r_i_glide_einternal>  (37) 
0.618791

>  <r_i_glide_intrahb_reward>  (37) 
-0

>  <i_i_glide_confnum>  (37) 
2

>  <i_i_glide_posenum>  (37) 
29

>  <r_i_glide_eff_state_penalty>  (37) 
0

>  <ligand_id>  (37) 
10

>  <original_smiles>  (37) 
COC1OC2OC3(C)CCC4CC5C1C(C)CCC5C42O3

>  <smiles>  (37) 
[H]C([H])([H])OC1([H])OC2([H])OC3(C([H])([H])[H])OC24C([H])(C([H])([H])C3([H])[H])C([H])([H])C2([H])C1([H])C([H])(C([H])([H])[H])C([H])([H])C([H])([H])C24[H]

$$$$
11:0:0
     RDKit          3D

 60 65  0  0  1  0  0  0  0  0999 V2000
    3.5235   -0.5705   -4.0454 C   0  0  0  0  0  0  0  0  0  0  0  0
    3.5740   -1.8186   -3.1991 C   0  0  0  0  0  0  0  0  0  0  0  0
    2.2448   -2.5473   -3.1667 C   0  0  0  0  0  0  0  0  0  0  0  0
    4.8710   -2.5913   -3.1753 C   0  0  2  0  0  0  0  0  0  0  0  0
    4.8867   -4.0696   -3.0450 C   0  0  0  0  0  0  0  0  0  0  0  0
    5.2859   -4.4729   -1.5973 C   0  0  0  0  0  0  0  0  0  0  0  0
    4.3983   -3.8502   -0.5585 C   0  0  0  0  0  0  0  0  0  0  0  0
    4.0555   -2.5625   -0.7496 C   0  0  0  0  0  0  0  0  0  0  0  0
    3.4145   -1.8424    0.3375 C   0  0  0  0  0  0  0  0  0  0  0  0
    3.3338   -0.6081    0.3361 O   0  0  0  0  0  0  0  0  0  0  0  0
    2.9680   -2.5984    1.5923 C   0  0  1  0  0  0  0  0  0  0  0  0
    1.7701   -1.9593    1.9989 O   0  0  0  0  0  0  0  0  0  0  0  0
    2.6308   -4.0736    1.1835 C   0  0  2  0  0  0  0  0  0  0  0  0
    2.0535   -4.8222    2.4213 C   0  0  1  0  0  0  0  0  0  0  0  0
    1.5477   -6.1062    2.1042 O   0  0  0  0  0  0  0  0  0  0  0  0
    3.1016   -4.8822    3.5411 C   0  0  0  0  0  0  0  0  0  0  0  0
    4.3765   -4.1080    3.1064 C   0  0  1  0  0  0  0  0  0  0  0  0
    5.0118   -4.7921    1.8426 C   0  0  2  0  0  0  0  0  0  0  0  0
    5.3934   -6.2659    2.1779 C   0  0  0  0  0  0  0  0  0  0  0  0
    6.3733   -4.0934    1.5873 C   0  0  0  0  0  0  0  0  0  0  0  0
    6.3399   -2.5550    1.4697 C   0  0  0  0  0  0  0  0  0  0  0  0
    5.4081   -1.8913    2.4968 C   0  0  1  0  0  0  0  0  0  0  0  0
    5.3199   -0.5055    2.2121 O   0  0  0  0  0  0  0  0  0  0  0  0
    4.0404   -2.6054    2.7785 C   0  0  1  0  0  0  0  0  0  0  0  0
    3.4793   -1.9138    4.0568 C   0  0  0  0  0  0  0  0  0  0  0  0
    3.9564   -4.7030    0.6495 C   0  0  2  0  0  0  0  0  0  0  0  0
    3.6212   -5.9880    0.1470 O   0  0  0  0  0  0  0  0  0  0  0  0
    4.4459   -1.7897   -1.9653 C   0  0  2  0  0  0  0  0  0  0  0  0
    3.2081   -0.7864   -5.0632 H   0  0  0  0  0  0  0  0  0  0  0  0
    4.5115   -0.1181   -4.0896 H   0  0  0  0  0  0  0  0  0  0  0  0
    2.8473    0.1491   -3.5997 H   0  0  0  0  0  0  0  0  0  0  0  0
    2.2858   -3.4466   -2.5672 H   0  0  0  0  0  0  0  0  0  0  0  0
    1.9120   -2.8198   -4.1594 H   0  0  0  0  0  0  0  0  0  0  0  0
    1.5464   -1.8667   -2.7238 H   0  0  0  0  0  0  0  0  0  0  0  0
    5.6524   -2.2524   -3.8111 H   0  0  0  0  0  0  0  0  0  0  0  0
    3.9054   -4.4091   -3.3635 H   0  0  0  0  0  0  0  0  0  0  0  0
    5.5130   -4.5073   -3.8118 H   0  0  0  0  0  0  0  0  0  0  0  0
    5.2918   -5.5492   -1.4680 H   0  0  0  0  0  0  0  0  0  0  0  0
    6.3005   -4.1155   -1.3886 H   0  0  0  0  0  0  0  0  0  0  0  0
    1.4005   -1.5858    1.2037 H   0  0  0  0  0  0  0  0  0  0  0  0
    1.8974   -4.0852    0.3733 H   0  0  0  0  0  0  0  0  0  0  0  0
    1.1974   -4.2676    2.7994 H   0  0  0  0  0  0  0  0  0  0  0  0
    2.2753   -6.6349    1.8028 H   0  0  0  0  0  0  0  0  0  0  0  0
    2.6779   -4.4704    4.4557 H   0  0  0  0  0  0  0  0  0  0  0  0
    3.3382   -5.9094    3.8102 H   0  0  0  0  0  0  0  0  0  0  0  0
    5.0830   -4.1373    3.9371 H   0  0  0  0  0  0  0  0  0  0  0  0
    5.9851   -6.7065    1.3761 H   0  0  0  0  0  0  0  0  0  0  0  0
    4.5355   -6.9225    2.3264 H   0  0  0  0  0  0  0  0  0  0  0  0
    5.9929   -6.3232    3.0870 H   0  0  0  0  0  0  0  0  0  0  0  0
    6.9932   -4.3489    2.4460 H   0  0  0  0  0  0  0  0  0  0  0  0
    6.8883   -4.5397    0.7361 H   0  0  0  0  0  0  0  0  0  0  0  0
    7.3426   -2.1762    1.6469 H   0  0  0  0  0  0  0  0  0  0  0  0
    6.1386   -2.2358    0.4531 H   0  0  0  0  0  0  0  0  0  0  0  0
    5.9290   -1.9370    3.4440 H   0  0  0  0  0  0  0  0  0  0  0  0
    4.7494   -0.3792    1.4591 H   0  0  0  0  0  0  0  0  0  0  0  0
    4.1632   -2.0301    4.8943 H   0  0  0  0  0  0  0  0  0  0  0  0
    2.5170   -2.3103    4.3787 H   0  0  0  0  0  0  0  0  0  0  0  0
    3.3327   -0.8450    3.9016 H   0  0  0  0  0  0  0  0  0  0  0  0
    3.4256   -5.8747   -0.7777 H   0  0  0  0  0  0  0  0  0  0  0  0
    5.0992   -0.9464   -1.7551 H   0  0  0  0  0  0  0  0  0  0  0  0
  1  2  1  0
  1 29  1  0
  1 30  1  0
  1 31  1  0
  2 28  1  0
  2  3  1  0
  2  4  1  0
  3 32  1  0
  3 33  1  0
  3 34  1  0
  4 28  1  0
  4  5  1  0
  4 35  1  6
  5  6  1  0
  5 36  1  0
  5 37  1  0
  6  7  1  0
  6 38  1  0
  6 39  1  0
  7 26  1  0
  7  8  2  0
  8  9  1  0
  8 28  1  0
  9 10  2  0
  9 11  1  0
 11 24  1  0
 11 12  1  1
 11 13  1  0
 12 40  1  0
 13 26  1  0
 13 14  1  0
 13 41  1  6
 14 15  1  0
 14 16  1  0
 14 42  1  1
 15 43  1  0
 16 17  1  0
 16 44  1  0
 16 45  1  0
 17 24  1  0
 17 18  1  0
 17 46  1  1
 18 19  1  1
 18 20  1  0
 18 26  1  0
 19 47  1  0
 19 48  1  0
 19 49  1  0
 20 21  1  0
 20 50  1  0
 20 51  1  0
 21 22  1  0
 21 52  1  0
 21 53  1  0
 22 23  1  0
 22 24  1  0
 22 54  1  1
 23 55  1  0
 24 25  1  1
 25 56  1  0
 25 57  1  0
 25 58  1  0
 26 27  1  6
 27 59  1  0
 28 60  1  1
M  END
>  <i_m_ct_stereo_status>  (38) 
1

>  <s_m_source_file>  (38) 
/var/tmp/pbs.5076255.sched01/tmpnm8fzmj1/0q4giu30i.sdf

>  <i_m_source_file_index>  (38) 
19

>  <i_lp_mmshare_version>  (38) 
48012

>  <i_f3d_flags>  (38) 
0

>  <s_epik_input>  (38) 
W0NIM11DMShbQ0gzXSlbQ0BIXShbQ0gyXVtDSDJdMilbQ0BASF0xQyhDMz1PKT1DMltDQF0oW09IXSkoW0NAQEhdNFtDQF0zNVtPSF0pW0NAXTYoW0NIM10pW0NASF0oW0NIMl1bQ0BASF00W09IXSlbQ0BAXTUoW0NIM10pW0NASF0oW09IXSlbQ0gyXVtDSDJdNg==

>  <s_epik_cmdline>  (38) 
J2VwaWtfcHl0aG9uJywgJy1waHQnLCAnMi4wJywgJy1waCcsICc3LjAnLCAnLXRuJywgJzgnLCAnLW1hJywgJzIwMCcsICctaW1hZScsICc8aW5maWxlLm1hZT4nLCAnLW9tYWUnLCAnPG91dGZpbGUubWFlPic=

>  <r_lp_tautomer_probability>  (38) 
1

>  <r_epik_Ionization_Penalty>  (38) 
3.6572e-07

>  <r_epik_Ionization_Penalty_Charging>  (38) 
0

>  <r_epik_Ionization_Penalty_Neutral>  (38) 
3.6572e-07

>  <r_epik_State_Penalty>  (38) 
-0

>  <r_epik_Charging_Adjusted_Penalty>  (38) 
0

>  <i_epik_Tot_Q>  (38) 
0

>  <i_epik_Tot_abs_Q>  (38) 
0

>  <s_lp_Force_Field>  (38) 
OPLS3e

>  <r_lp_Energy>  (38) 
81.1948

>  <b_lp_Chiralities_Consistent>  (38) 
1

>  <s_lp_Variant>  (38) 
11:0-1

>  <s_i_glide_gridfile>  (38) 
pfpi4k_grid

>  <i_i_glide_lignum>  (38) 
19

>  <i_i_glide_rotatable_bonds>  (38) 
4

>  <r_i_docking_score>  (38) 
-4.01061

>  <r_i_glide_ligand_efficiency>  (38) 
-0.143236

>  <r_i_glide_ligand_efficiency_sa>  (38) 
-0.434949

>  <r_i_glide_ligand_efficiency_ln>  (38) 
-0.925766

>  <r_i_glide_gscore>  (38) 
-4.01061

>  <r_i_glide_lipo>  (38) 
-0.837442

>  <r_i_glide_hbond>  (38) 
0

>  <r_i_glide_metal>  (38) 
-0

>  <r_i_glide_rewards>  (38) 
-1.76025

>  <r_i_glide_evdw>  (38) 
-9.83005

>  <r_i_glide_ecoul>  (38) 
-5.7484

>  <r_i_glide_erotb>  (38) 
0

>  <r_i_glide_esite>  (38) 
-0.0591559

>  <r_i_glide_emodel>  (38) 
-23.3955

>  <r_i_glide_energy>  (38) 
-15.5784

>  <r_i_glide_einternal>  (38) 
3.81167

>  <r_i_glide_intrahb_reward>  (38) 
-1

>  <i_i_glide_confnum>  (38) 
1

>  <i_i_glide_posenum>  (38) 
38

>  <r_i_glide_eff_state_penalty>  (38) 
0

>  <ligand_id>  (38) 
11

>  <original_smiles>  (38) 
CC1(C)C2CCC3=C(C(=O)C4(O)C5C(O)CC6C(C)(CCC(O)C64C)C35O)C21

>  <smiles>  (38) 
[H]OC1([H])C([H])([H])C2([H])C3(C([H])([H])[H])C([H])([H])C([H])([H])C([H])(O[H])C2(C([H])([H])[H])C2(O[H])C(=O)C4=C(C([H])([H])C([H])([H])C5([H])C4([H])C5(C([H])([H])[H])C([H])([H])[H])C3(O[H])C12[H]

$$$$
11:0:1
     RDKit          3D

 60 65  0  0  1  0  0  0  0  0999 V2000
    3.4417   -0.4113   -3.9158 C   0  0  0  0  0  0  0  0  0  0  0  0
    3.5316   -1.7016   -3.1152 C   0  0  0  0  0  0  0  0  0  0  0  0
    2.2199   -2.4843   -3.0687 C   0  0  0  0  0  0  0  0  0  0  0  0
    4.8025   -2.4502   -3.1244 C   0  0  2  0  0  0  0  0  0  0  0  0
    4.8343   -3.9125   -3.0807 C   0  0  0  0  0  0  0  0  0  0  0  0
    5.2821   -4.3443   -1.6534 C   0  0  0  0  0  0  0  0  0  0  0  0
    4.4298   -3.7454   -0.5634 C   0  0  0  0  0  0  0  0  0  0  0  0
    4.0641   -2.4718   -0.6755 C   0  0  0  0  0  0  0  0  0  0  0  0
    3.4298   -1.7620    0.4385 C   0  0  0  0  0  0  0  0  0  0  0  0
    3.2457   -0.5299    0.4864 O   0  0  0  0  0  0  0  0  0  0  0  0
    3.0556   -2.6099    1.6773 C   0  0  1  0  0  0  0  0  0  0  0  0
    1.8603   -2.0528    2.1663 O   0  0  0  0  0  0  0  0  0  0  0  0
    2.7368   -4.0739    1.2226 C   0  0  2  0  0  0  0  0  0  0  0  0
    2.2081   -4.8745    2.4551 C   0  0  1  0  0  0  0  0  0  0  0  0
    1.6861   -6.1332    2.1097 O   0  0  0  0  0  0  0  0  0  0  0  0
    3.2951   -4.9746    3.5295 C   0  0  0  0  0  0  0  0  0  0  0  0
    4.5430   -4.1822    3.0784 C   0  0  1  0  0  0  0  0  0  0  0  0
    5.1325   -4.8200    1.7671 C   0  0  2  0  0  0  0  0  0  0  0  0
    5.5386   -6.3084    2.0323 C   0  0  0  0  0  0  0  0  0  0  0  0
    6.4741   -4.1059    1.4641 C   0  0  0  0  0  0  0  0  0  0  0  0
    6.3841   -2.5687    1.3900 C   0  0  0  0  0  0  0  0  0  0  0  0
    5.5166   -1.9538    2.4878 C   0  0  1  0  0  0  0  0  0  0  0  0
    5.4512   -0.5639    2.2880 O   0  0  0  0  0  0  0  0  0  0  0  0
    4.1664   -2.6699    2.8130 C   0  0  1  0  0  0  0  0  0  0  0  0
    3.6842   -2.0215    4.1424 C   0  0  0  0  0  0  0  0  0  0  0  0
    4.0462   -4.6734    0.6287 C   0  0  2  0  0  0  0  0  0  0  0  0
    3.7186   -5.9561    0.0765 O   0  0  0  0  0  0  0  0  0  0  0  0
    4.4284   -1.6662   -1.9072 C   0  0  2  0  0  0  0  0  0  0  0  0
    3.0851   -0.5862   -4.9287 H   0  0  0  0  0  0  0  0  0  0  0  0
    4.4146    0.0651   -3.9717 H   0  0  0  0  0  0  0  0  0  0  0  0
    2.7755    0.2833   -3.4235 H   0  0  0  0  0  0  0  0  0  0  0  0
    2.3382   -3.4384   -2.5308 H   0  0  0  0  0  0  0  0  0  0  0  0
    1.7987   -2.6172   -4.0756 H   0  0  0  0  0  0  0  0  0  0  0  0
    1.6317   -1.9465   -2.3601 H   0  0  0  0  0  0  0  0  0  0  0  0
    5.4204   -2.0584   -3.9111 H   0  0  0  0  0  0  0  0  0  0  0  0
    3.8373   -4.2498   -3.3596 H   0  0  0  0  0  0  0  0  0  0  0  0
    5.4350   -4.3118   -3.8785 H   0  0  0  0  0  0  0  0  0  0  0  0
    5.2954   -5.4247   -1.5425 H   0  0  0  0  0  0  0  0  0  0  0  0
    6.3052   -3.9895   -1.4918 H   0  0  0  0  0  0  0  0  0  0  0  0
    1.4392   -1.6748    1.3944 H   0  0  0  0  0  0  0  0  0  0  0  0
    1.9881   -4.0693    0.4388 H   0  0  0  0  0  0  0  0  0  0  0  0
    1.3682   -4.3322    2.8867 H   0  0  0  0  0  0  0  0  0  0  0  0
    2.4188   -6.6570    1.7632 H   0  0  0  0  0  0  0  0  0  0  0  0
    2.9136   -4.5941    4.4758 H   0  0  0  0  0  0  0  0  0  0  0  0
    3.5505   -6.0121    3.7470 H   0  0  0  0  0  0  0  0  0  0  0  0
    5.2885   -4.2311    3.8666 H   0  0  0  0  0  0  0  0  0  0  0  0
    6.0984   -6.7130    1.1856 H   0  0  0  0  0  0  0  0  0  0  0  0
    4.6855   -6.9714    2.1889 H   0  0  0  0  0  0  0  0  0  0  0  0
    6.1748   -6.3936    2.9113 H   0  0  0  0  0  0  0  0  0  0  0  0
    7.1406   -4.4062    2.2623 H   0  0  0  0  0  0  0  0  0  0  0  0
    6.9506   -4.5138    0.5735 H   0  0  0  0  0  0  0  0  0  0  0  0
    7.3671   -2.1365    1.5408 H   0  0  0  0  0  0  0  0  0  0  0  0
    6.1719   -2.2022    0.3963 H   0  0  0  0  0  0  0  0  0  0  0  0
    6.0856   -2.0599    3.3981 H   0  0  0  0  0  0  0  0  0  0  0  0
    6.3525   -0.2403    2.2223 H   0  0  0  0  0  0  0  0  0  0  0  0
    4.4157   -2.1718    4.9367 H   0  0  0  0  0  0  0  0  0  0  0  0
    2.7373   -2.4302    4.4944 H   0  0  0  0  0  0  0  0  0  0  0  0
    3.5456   -0.9435    4.0252 H   0  0  0  0  0  0  0  0  0  0  0  0
    3.4416   -5.8333   -0.7950 H   0  0  0  0  0  0  0  0  0  0  0  0
    5.1011   -0.8537   -1.6724 H   0  0  0  0  0  0  0  0  0  0  0  0
  1  2  1  0
  1 29  1  0
  1 30  1  0
  1 31  1  0
  2 28  1  0
  2  3  1  0
  2  4  1  0
  3 32  1  0
  3 33  1  0
  3 34  1  0
  4 28  1  0
  4  5  1  0
  4 35  1  6
  5  6  1  0
  5 36  1  0
  5 37  1  0
  6  7  1  0
  6 38  1  0
  6 39  1  0
  7 26  1  0
  7  8  2  0
  8  9  1  0
  8 28  1  0
  9 10  2  0
  9 11  1  0
 11 24  1  0
 11 12  1  1
 11 13  1  0
 12 40  1  0
 13 26  1  0
 13 14  1  0
 13 41  1  6
 14 15  1  0
 14 16  1  0
 14 42  1  1
 15 43  1  0
 16 17  1  0
 16 44  1  0
 16 45  1  0
 17 24  1  0
 17 18  1  0
 17 46  1  1
 18 19  1  1
 18 20  1  0
 18 26  1  0
 19 47  1  0
 19 48  1  0
 19 49  1  0
 20 21  1  0
 20 50  1  0
 20 51  1  0
 21 22  1  0
 21 52  1  0
 21 53  1  0
 22 23  1  0
 22 24  1  0
 22 54  1  1
 23 55  1  0
 24 25  1  1
 25 56  1  0
 25 57  1  0
 25 58  1  0
 26 27  1  6
 27 59  1  0
 28 60  1  1
M  END
>  <i_m_ct_stereo_status>  (39) 
1

>  <s_m_source_file>  (39) 
/var/tmp/pbs.5076255.sched01/tmpnm8fzmj1/0q4giu30i.sdf

>  <i_m_source_file_index>  (39) 
19

>  <i_lp_mmshare_version>  (39) 
48012

>  <i_f3d_flags>  (39) 
0

>  <s_epik_input>  (39) 
W0NIM11DMShbQ0gzXSlbQ0BIXShbQ0gyXVtDSDJdMilbQ0BASF0xQyhDMz1PKT1DMltDQF0oW09IXSkoW0NAQEhdNFtDQF0zNVtPSF0pW0NAXTYoW0NIM10pW0NASF0oW0NIMl1bQ0BASF00W09IXSlbQ0BAXTUoW0NIM10pW0NASF0oW09IXSlbQ0gyXVtDSDJdNg==

>  <s_epik_cmdline>  (39) 
J2VwaWtfcHl0aG9uJywgJy1waHQnLCAnMi4wJywgJy1waCcsICc3LjAnLCAnLXRuJywgJzgnLCAnLW1hJywgJzIwMCcsICctaW1hZScsICc8aW5maWxlLm1hZT4nLCAnLW9tYWUnLCAnPG91dGZpbGUubWFlPic=

>  <r_lp_tautomer_probability>  (39) 
1

>  <r_epik_Ionization_Penalty>  (39) 
3.6572e-07

>  <r_epik_Ionization_Penalty_Charging>  (39) 
0

>  <r_epik_Ionization_Penalty_Neutral>  (39) 
3.6572e-07

>  <r_epik_State_Penalty>  (39) 
-0

>  <r_epik_Charging_Adjusted_Penalty>  (39) 
0

>  <i_epik_Tot_Q>  (39) 
0

>  <i_epik_Tot_abs_Q>  (39) 
0

>  <s_lp_Force_Field>  (39) 
OPLS3e

>  <r_lp_Energy>  (39) 
81.1948

>  <b_lp_Chiralities_Consistent>  (39) 
1

>  <s_lp_Variant>  (39) 
11:0-1

>  <s_i_glide_gridfile>  (39) 
pfpi4k_grid

>  <i_i_glide_lignum>  (39) 
19

>  <i_i_glide_rotatable_bonds>  (39) 
4

>  <r_i_docking_score>  (39) 
-3.86138

>  <r_i_glide_ligand_efficiency>  (39) 
-0.137906

>  <r_i_glide_ligand_efficiency_sa>  (39) 
-0.418765

>  <r_i_glide_ligand_efficiency_ln>  (39) 
-0.89132

>  <r_i_glide_gscore>  (39) 
-3.86138

>  <r_i_glide_lipo>  (39) 
-0.812326

>  <r_i_glide_hbond>  (39) 
0

>  <r_i_glide_metal>  (39) 
-0

>  <r_i_glide_rewards>  (39) 
-1.26025

>  <r_i_glide_evdw>  (39) 
-17.7763

>  <r_i_glide_ecoul>  (39) 
-5.61762

>  <r_i_glide_erotb>  (39) 
0

>  <r_i_glide_esite>  (39) 
-0.0573499

>  <r_i_glide_emodel>  (39) 
-25.6603

>  <r_i_glide_energy>  (39) 
-23.3939

>  <r_i_glide_einternal>  (39) 
3.73665

>  <r_i_glide_intrahb_reward>  (39) 
-0.5

>  <i_i_glide_confnum>  (39) 
1

>  <i_i_glide_posenum>  (39) 
34

>  <r_i_glide_eff_state_penalty>  (39) 
0

>  <ligand_id>  (39) 
11

>  <original_smiles>  (39) 
CC1(C)C2CCC3=C(C(=O)C4(O)C5C(O)CC6C(C)(CCC(O)C64C)C35O)C21

>  <smiles>  (39) 
[H]OC1([H])C([H])([H])C2([H])C3(C([H])([H])[H])C([H])([H])C([H])([H])C([H])(O[H])C2(C([H])([H])[H])C2(O[H])C(=O)C4=C(C([H])([H])C([H])([H])C5([H])C4([H])C5(C([H])([H])[H])C([H])([H])[H])C3(O[H])C12[H]

$$$$
11:0:2
     RDKit          3D

 60 65  0  0  1  0  0  0  0  0999 V2000
    2.8614   -0.2810   -3.9801 C   0  0  0  0  0  0  0  0  0  0  0  0
    3.2309   -1.5643   -3.2660 C   0  0  0  0  0  0  0  0  0  0  0  0
    2.0645   -2.5177   -3.0270 C   0  0  0  0  0  0  0  0  0  0  0  0
    4.5836   -2.0927   -3.5099 C   0  0  2  0  0  0  0  0  0  0  0  0
    4.8239   -3.5882   -3.4824 C   0  0  0  0  0  0  0  0  0  0  0  0
    5.5004   -3.9403   -2.1644 C   0  0  0  0  0  0  0  0  0  0  0  0
    4.7255   -3.5047   -0.9324 C   0  0  0  0  0  0  0  0  0  0  0  0
    4.1572   -2.2861   -0.9325 C   0  0  0  0  0  0  0  0  0  0  0  0
    3.4914   -1.7769    0.2780 C   0  0  0  0  0  0  0  0  0  0  0  0
    3.0351   -0.6428    0.3750 O   0  0  0  0  0  0  0  0  0  0  0  0
    3.4495   -2.7038    1.5161 C   0  0  1  0  0  0  0  0  0  0  0  0
    2.2439   -2.3618    2.1754 O   0  0  0  0  0  0  0  0  0  0  0  0
    3.3084   -4.1753    1.0173 C   0  0  2  0  0  0  0  0  0  0  0  0
    3.0722   -5.1004    2.2529 C   0  0  1  0  0  0  0  0  0  0  0  0
    2.7461   -6.4340    1.9181 O   0  0  0  0  0  0  0  0  0  0  0  0
    4.2846   -5.0477    3.1963 C   0  0  0  0  0  0  0  0  0  0  0  0
    5.3365   -4.0442    2.6499 C   0  0  1  0  0  0  0  0  0  0  0  0
    5.8614   -4.5198    1.2469 C   0  0  2  0  0  0  0  0  0  0  0  0
    6.5242   -5.9247    1.3878 C   0  0  0  0  0  0  0  0  0  0  0  0
    7.0557   -3.5922    0.8660 C   0  0  0  0  0  0  0  0  0  0  0  0
    6.7810   -2.0783    0.8869 C   0  0  0  0  0  0  0  0  0  0  0  0
    5.8905   -1.6520    2.0666 C   0  0  1  0  0  0  0  0  0  0  0  0
    5.5654   -0.2933    1.9246 O   0  0  0  0  0  0  0  0  0  0  0  0
    4.7108   -2.5981    2.5039 C   0  0  1  0  0  0  0  0  0  0  0  0
    4.2875   -2.0934    3.9186 C   0  0  0  0  0  0  0  0  0  0  0  0
    4.6171   -4.5275    0.2390 C   0  0  2  0  0  0  0  0  0  0  0  0
    4.4345   -5.8317   -0.3294 O   0  0  0  0  0  0  0  0  0  0  0  0
    4.2479   -1.4140   -2.1660 C   0  0  2  0  0  0  0  0  0  0  0  0
    2.3661   -0.4622   -4.9388 H   0  0  0  0  0  0  0  0  0  0  0  0
    3.7246    0.3591   -4.1380 H   0  0  0  0  0  0  0  0  0  0  0  0
    2.1978    0.2958   -3.3514 H   0  0  0  0  0  0  0  0  0  0  0  0
    2.3600   -3.4729   -2.5655 H   0  0  0  0  0  0  0  0  0  0  0  0
    1.5144   -2.7071   -3.9614 H   0  0  0  0  0  0  0  0  0  0  0  0
    1.4484   -1.9720   -2.3261 H   0  0  0  0  0  0  0  0  0  0  0  0
    5.0336   -1.5462   -4.3328 H   0  0  0  0  0  0  0  0  0  0  0  0
    3.9045   -4.1816   -3.5934 H   0  0  0  0  0  0  0  0  0  0  0  0
    5.4215   -3.8754   -4.3432 H   0  0  0  0  0  0  0  0  0  0  0  0
    5.5437   -5.0179   -2.1410 H   0  0  0  0  0  0  0  0  0  0  0  0
    6.5029   -3.4910   -2.1627 H   0  0  0  0  0  0  0  0  0  0  0  0
    2.2663   -1.4223    2.2582 H   0  0  0  0  0  0  0  0  0  0  0  0
    2.4549   -4.2621    0.3510 H   0  0  0  0  0  0  0  0  0  0  0  0
    2.2026   -4.7474    2.8086 H   0  0  0  0  0  0  0  0  0  0  0  0
    3.4821   -6.7963    1.4246 H   0  0  0  0  0  0  0  0  0  0  0  0
    3.9633   -4.7727    4.1984 H   0  0  0  0  0  0  0  0  0  0  0  0
    4.7257   -6.0344    3.3387 H   0  0  0  0  0  0  0  0  0  0  0  0
    6.1631   -4.0211    3.3597 H   0  0  0  0  0  0  0  0  0  0  0  0
    7.0342   -6.2150    0.4717 H   0  0  0  0  0  0  0  0  0  0  0  0
    5.8163   -6.7222    1.6074 H   0  0  0  0  0  0  0  0  0  0  0  0
    7.2674   -5.9440    2.1857 H   0  0  0  0  0  0  0  0  0  0  0  0
    7.8612   -3.7790    1.5811 H   0  0  0  0  0  0  0  0  0  0  0  0
    7.4752   -3.8712   -0.0964 H   0  0  0  0  0  0  0  0  0  0  0  0
    7.7417   -1.5645    0.9868 H   0  0  0  0  0  0  0  0  0  0  0  0
    6.4166   -1.7063   -0.0647 H   0  0  0  0  0  0  0  0  0  0  0  0
    6.5853   -1.6201    2.8825 H   0  0  0  0  0  0  0  0  0  0  0  0
    6.3907    0.1595    1.8211 H   0  0  0  0  0  0  0  0  0  0  0  0
    5.1147   -2.1500    4.6222 H   0  0  0  0  0  0  0  0  0  0  0  0
    3.4706   -2.6694    4.3515 H   0  0  0  0  0  0  0  0  0  0  0  0
    3.9525   -1.0581    3.8905 H   0  0  0  0  0  0  0  0  0  0  0  0
    3.8278   -5.7669   -1.0511 H   0  0  0  0  0  0  0  0  0  0  0  0
    4.7508   -0.4761   -1.9908 H   0  0  0  0  0  0  0  0  0  0  0  0
  1  2  1  0
  1 29  1  0
  1 30  1  0
  1 31  1  0
  2 28  1  0
  2  3  1  0
  2  4  1  0
  3 32  1  0
  3 33  1  0
  3 34  1  0
  4 28  1  0
  4  5  1  0
  4 35  1  6
  5  6  1  0
  5 36  1  0
  5 37  1  0
  6  7  1  0
  6 38  1  0
  6 39  1  0
  7 26  1  0
  7  8  2  0
  8  9  1  0
  8 28  1  0
  9 10  2  0
  9 11  1  0
 11 24  1  0
 11 12  1  1
 11 13  1  0
 12 40  1  0
 13 26  1  0
 13 14  1  0
 13 41  1  6
 14 15  1  0
 14 16  1  0
 14 42  1  1
 15 43  1  0
 16 17  1  0
 16 44  1  0
 16 45  1  0
 17 24  1  0
 17 18  1  0
 17 46  1  1
 18 19  1  1
 18 20  1  0
 18 26  1  0
 19 47  1  0
 19 48  1  0
 19 49  1  0
 20 21  1  0
 20 50  1  0
 20 51  1  0
 21 22  1  0
 21 52  1  0
 21 53  1  0
 22 23  1  0
 22 24  1  0
 22 54  1  1
 23 55  1  0
 24 25  1  1
 25 56  1  0
 25 57  1  0
 25 58  1  0
 26 27  1  6
 27 59  1  0
 28 60  1  1
M  END
>  <i_m_ct_stereo_status>  (40) 
1

>  <s_m_source_file>  (40) 
/var/tmp/pbs.5076255.sched01/tmpnm8fzmj1/0q4giu30i.sdf

>  <i_m_source_file_index>  (40) 
19

>  <i_lp_mmshare_version>  (40) 
48012

>  <i_f3d_flags>  (40) 
0

>  <s_epik_input>  (40) 
W0NIM11DMShbQ0gzXSlbQ0BIXShbQ0gyXVtDSDJdMilbQ0BASF0xQyhDMz1PKT1DMltDQF0oW09IXSkoW0NAQEhdNFtDQF0zNVtPSF0pW0NAXTYoW0NIM10pW0NASF0oW0NIMl1bQ0BASF00W09IXSlbQ0BAXTUoW0NIM10pW0NASF0oW09IXSlbQ0gyXVtDSDJdNg==

>  <s_epik_cmdline>  (40) 
J2VwaWtfcHl0aG9uJywgJy1waHQnLCAnMi4wJywgJy1waCcsICc3LjAnLCAnLXRuJywgJzgnLCAnLW1hJywgJzIwMCcsICctaW1hZScsICc8aW5maWxlLm1hZT4nLCAnLW9tYWUnLCAnPG91dGZpbGUubWFlPic=

>  <r_lp_tautomer_probability>  (40) 
1

>  <r_epik_Ionization_Penalty>  (40) 
3.6572e-07

>  <r_epik_Ionization_Penalty_Charging>  (40) 
0

>  <r_epik_Ionization_Penalty_Neutral>  (40) 
3.6572e-07

>  <r_epik_State_Penalty>  (40) 
-0

>  <r_epik_Charging_Adjusted_Penalty>  (40) 
0

>  <i_epik_Tot_Q>  (40) 
0

>  <i_epik_Tot_abs_Q>  (40) 
0

>  <s_lp_Force_Field>  (40) 
OPLS3e

>  <r_lp_Energy>  (40) 
81.1948

>  <b_lp_Chiralities_Consistent>  (40) 
1

>  <s_lp_Variant>  (40) 
11:0-1

>  <s_i_glide_gridfile>  (40) 
pfpi4k_grid

>  <i_i_glide_lignum>  (40) 
19

>  <i_i_glide_rotatable_bonds>  (40) 
4

>  <r_i_docking_score>  (40) 
-3.72297

>  <r_i_glide_ligand_efficiency>  (40) 
-0.132963

>  <r_i_glide_ligand_efficiency_sa>  (40) 
-0.403755

>  <r_i_glide_ligand_efficiency_ln>  (40) 
-0.859371

>  <r_i_glide_gscore>  (40) 
-3.72297

>  <r_i_glide_lipo>  (40) 
-1.14312

>  <r_i_glide_hbond>  (40) 
0

>  <r_i_glide_metal>  (40) 
-0

>  <r_i_glide_rewards>  (40) 
-1.26025

>  <r_i_glide_evdw>  (40) 
-13.8271

>  <r_i_glide_ecoul>  (40) 
-3.79273

>  <r_i_glide_erotb>  (40) 
0

>  <r_i_glide_esite>  (40) 
-0.0593363

>  <r_i_glide_emodel>  (40) 
-21.4008

>  <r_i_glide_energy>  (40) 
-17.6198

>  <r_i_glide_einternal>  (40) 
2.39129

>  <r_i_glide_intrahb_reward>  (40) 
-0.5

>  <i_i_glide_confnum>  (40) 
2

>  <i_i_glide_posenum>  (40) 
23

>  <r_i_glide_eff_state_penalty>  (40) 
0

>  <ligand_id>  (40) 
11

>  <original_smiles>  (40) 
CC1(C)C2CCC3=C(C(=O)C4(O)C5C(O)CC6C(C)(CCC(O)C64C)C35O)C21

>  <smiles>  (40) 
[H]OC1([H])C([H])([H])C2([H])C3(C([H])([H])[H])C([H])([H])C([H])([H])C([H])(O[H])C2(C([H])([H])[H])C2(O[H])C(=O)C4=C(C([H])([H])C([H])([H])C5([H])C4([H])C5(C([H])([H])[H])C([H])([H])[H])C3(O[H])C12[H]

$$$$
13:0:0
     RDKit          3D

 71 77  0  0  1  0  0  0  0  0999 V2000
    3.4494   -8.3980    1.8360 C   0  0  0  0  0  0  0  0  0  0  0  0
    2.0426   -8.2666    1.5944 O   0  0  0  0  0  0  0  0  0  0  0  0
    1.3621   -7.1102    2.0918 C   0  0  2  0  0  0  0  0  0  0  0  0
    0.6665   -6.3480    1.0815 O   0  0  0  0  0  0  0  0  0  0  0  0
    1.9501   -5.8515    1.5023 C   0  0  1  0  0  0  0  0  0  0  0  0
    1.9855   -4.5867    2.3344 C   0  0  0  0  0  0  0  0  0  0  0  0
    2.8562   -4.7262    3.6112 C   0  0  2  0  0  0  0  0  0  0  0  0
    2.1186   -5.4364    4.8051 C   0  0  1  0  0  0  0  0  0  0  0  0
    0.9802   -4.5803    5.3915 C   0  0  0  0  0  0  0  0  0  0  0  0
    1.1008   -3.0690    5.1285 C   0  0  0  0  0  0  0  0  0  0  0  0
    2.5569   -2.5724    5.1103 C   0  0  1  0  0  0  0  0  0  0  0  0
    3.4756   -3.3835    4.1334 C   0  0  2  0  0  0  0  0  0  0  0  0
    4.3293   -2.5499    3.1280 C   0  0  0  0  0  0  0  0  0  0  0  0
    3.9959   -1.0415    3.1318 C   0  0  1  0  0  0  0  0  0  0  0  0
    2.5379   -0.8438    2.6624 C   0  0  0  0  0  0  0  0  0  0  0  0
    1.8707   -0.2884    3.9288 C   0  0  1  0  0  0  0  0  0  0  0  0
    2.6355   -1.0158    5.0451 C   0  0  2  0  0  0  0  0  0  0  0  0
    3.9630   -0.4511    4.5653 C   0  0  1  0  0  0  0  0  0  0  0  0
    5.3751   -0.8559    5.6383 S   0  0  0  0  0  0  0  0  0  0  0  0
    6.5978    0.3239    5.0039 C   0  0  0  0  0  0  0  0  0  0  0  0
    3.6950    0.9552    4.5028 O   0  0  0  0  0  0  0  0  0  0  0  0
    2.3289    1.1716    4.1598 C   0  0  0  0  0  0  0  0  0  0  0  0
    2.2787    2.1092    2.9348 C   0  0  0  0  0  0  0  0  0  0  0  0
    1.6055    1.8661    5.3349 C   0  0  0  0  0  0  0  0  0  0  0  0
    1.7011   -6.9175    4.5859 C   0  0  1  0  0  0  0  0  0  0  0  0
    1.1381   -7.6799    5.7804 C   0  0  0  0  0  0  0  0  0  0  0  0
    0.4599   -8.9239    5.1759 C   0  0  1  0  0  0  0  0  0  0  0  0
   -0.5400   -9.3364    6.0804 O   0  0  0  0  0  0  0  0  0  0  0  0
   -0.0184   -8.5293    3.7605 C   0  0  1  0  0  0  0  0  0  0  0  0
   -1.5433   -8.4703    3.5165 C   0  0  0  0  0  0  0  0  0  0  0  0
    0.6925   -7.1876    3.4549 C   0  0  2  0  0  0  0  0  0  0  0  0
    3.8038   -9.3373    1.3950 H   0  0  0  0  0  0  0  0  0  0  0  0
    3.6811   -8.4476    2.9073 H   0  0  0  0  0  0  0  0  0  0  0  0
    4.0472   -7.5920    1.4005 H   0  0  0  0  0  0  0  0  0  0  0  0
    2.6962   -5.9237    0.7170 H   0  0  0  0  0  0  0  0  0  0  0  0
    2.3713   -3.8314    1.6575 H   0  0  0  0  0  0  0  0  0  0  0  0
    0.9733   -4.2954    2.5738 H   0  0  0  0  0  0  0  0  0  0  0  0
    3.7019   -5.3479    3.3284 H   0  0  0  0  0  0  0  0  0  0  0  0
    2.8730   -5.4911    5.5946 H   0  0  0  0  0  0  0  0  0  0  0  0
    0.0000   -4.9221    5.0512 H   0  0  0  0  0  0  0  0  0  0  0  0
    0.9839   -4.7358    6.4693 H   0  0  0  0  0  0  0  0  0  0  0  0
    0.6351   -2.8306    4.1731 H   0  0  0  0  0  0  0  0  0  0  0  0
    0.5376   -2.5312    5.8931 H   0  0  0  0  0  0  0  0  0  0  0  0
    2.9467   -2.8094    6.1027 H   0  0  0  0  0  0  0  0  0  0  0  0
    4.2560   -3.7356    4.8066 H   0  0  0  0  0  0  0  0  0  0  0  0
    5.3868   -2.6699    3.3737 H   0  0  0  0  0  0  0  0  0  0  0  0
    4.2567   -2.9385    2.1136 H   0  0  0  0  0  0  0  0  0  0  0  0
    4.6920   -0.4903    2.4965 H   0  0  0  0  0  0  0  0  0  0  0  0
    2.4494   -0.2006    1.7894 H   0  0  0  0  0  0  0  0  0  0  0  0
    2.0617   -1.7795    2.3790 H   0  0  0  0  0  0  0  0  0  0  0  0
    0.7879   -0.4105    3.9409 H   0  0  0  0  0  0  0  0  0  0  0  0
    2.3777   -0.6401    6.0337 H   0  0  0  0  0  0  0  0  0  0  0  0
    7.5203    0.2518    5.5794 H   0  0  0  0  0  0  0  0  0  0  0  0
    6.2149    1.3363    5.1099 H   0  0  0  0  0  0  0  0  0  0  0  0
    6.8248    0.1470    3.9520 H   0  0  0  0  0  0  0  0  0  0  0  0
    1.2930    2.1191    2.4676 H   0  0  0  0  0  0  0  0  0  0  0  0
    3.0135    1.8362    2.1795 H   0  0  0  0  0  0  0  0  0  0  0  0
    2.5192    3.1335    3.2213 H   0  0  0  0  0  0  0  0  0  0  0  0
    0.5412    1.9781    5.1234 H   0  0  0  0  0  0  0  0  0  0  0  0
    2.0126    2.8646    5.5011 H   0  0  0  0  0  0  0  0  0  0  0  0
    1.6991    1.3370    6.2817 H   0  0  0  0  0  0  0  0  0  0  0  0
    2.6211   -7.4478    4.3757 H   0  0  0  0  0  0  0  0  0  0  0  0
    1.9434   -7.9702    6.4516 H   0  0  0  0  0  0  0  0  0  0  0  0
    0.4215   -7.0981    6.3583 H   0  0  0  0  0  0  0  0  0  0  0  0
    1.1817   -9.7358    5.0709 H   0  0  0  0  0  0  0  0  0  0  0  0
   -1.1043  -10.0206    5.6822 H   0  0  0  0  0  0  0  0  0  0  0  0
    0.3544   -9.2831    3.0690 H   0  0  0  0  0  0  0  0  0  0  0  0
   -2.0404   -7.7494    4.1632 H   0  0  0  0  0  0  0  0  0  0  0  0
   -2.0099   -9.4391    3.6788 H   0  0  0  0  0  0  0  0  0  0  0  0
   -1.7652   -8.1952    2.4854 H   0  0  0  0  0  0  0  0  0  0  0  0
   -0.0783   -6.4158    3.4755 H   0  0  0  0  0  0  0  0  0  0  0  0
  1  2  1  0
  1 32  1  0
  1 33  1  0
  1 34  1  0
  3  2  1  6
  3  5  1  0
  3 31  1  0
  3  4  1  0
  4  5  1  0
  5  6  1  0
  5 35  1  6
  6  7  1  0
  6 36  1  0
  6 37  1  0
  7 12  1  0
  7  8  1  0
  7 38  1  6
  8  9  1  0
  8 25  1  0
  8 39  1  1
  9 10  1  0
  9 40  1  0
  9 41  1  0
 10 11  1  0
 10 42  1  0
 10 43  1  0
 11 17  1  0
 11 12  1  0
 11 44  1  1
 12 13  1  0
 12 45  1  1
 13 14  1  0
 13 46  1  0
 13 47  1  0
 14 18  1  0
 14 15  1  0
 14 48  1  6
 15 16  1  0
 15 49  1  0
 15 50  1  0
 16 22  1  0
 16 17  1  0
 16 51  1  6
 17 18  1  0
 17 52  1  1
 18 19  1  1
 18 21  1  0
 19 20  1  0
 20 53  1  0
 20 54  1  0
 20 55  1  0
 21 22  1  0
 22 23  1  0
 22 24  1  0
 23 56  1  0
 23 57  1  0
 23 58  1  0
 24 59  1  0
 24 60  1  0
 24 61  1  0
 25 31  1  0
 25 26  1  0
 25 62  1  6
 26 27  1  0
 26 63  1  0
 26 64  1  0
 27 28  1  0
 27 29  1  0
 27 65  1  6
 28 66  1  0
 29 30  1  0
 29 31  1  0
 29 67  1  6
 30 68  1  0
 30 69  1  0
 30 70  1  0
 31 71  1  6
M  END
>  <i_m_ct_stereo_status>  (41) 
1

>  <s_m_source_file>  (41) 
/var/tmp/pbs.5076255.sched01/tmpnm8fzmj1/0q4giu30i.sdf

>  <i_m_source_file_index>  (41) 
21

>  <i_lp_mmshare_version>  (41) 
48012

>  <i_f3d_flags>  (41) 
0

>  <s_epik_input>  (41) 
W0NIM11PW0NAQF0xMltDQEBIXShPMSlbQ0gyXVtDQEBIXTNbQ0BIXShbQ0BASF00W0NAQEhdMltDQEhdKFtDSDNdKVtDQEBIXShbQ0gyXTQpW09IXSlbQ0gyXVtDSDJdW0NASF01W0NAQEhdM1tDSDJdW0NAQEhdNltDQF03KFNbQ0gzXSlbQ0BIXTVbQ0BIXShbQ0gyXTYpQyhPNykoW0NIM10pW0NIM10=

>  <s_epik_cmdline>  (41) 
J2VwaWtfcHl0aG9uJywgJy1waHQnLCAnMi4wJywgJy1waCcsICc3LjAnLCAnLXRuJywgJzgnLCAnLW1hJywgJzIwMCcsICctaW1hZScsICc8aW5maWxlLm1hZT4nLCAnLW9tYWUnLCAnPG91dGZpbGUubWFlPic=

>  <r_lp_tautomer_probability>  (41) 
1

>  <r_epik_Ionization_Penalty>  (41) 
8.7821e-07

>  <r_epik_Ionization_Penalty_Charging>  (41) 
0

>  <r_epik_Ionization_Penalty_Neutral>  (41) 
8.7821e-07

>  <r_epik_State_Penalty>  (41) 
-0

>  <r_epik_Charging_Adjusted_Penalty>  (41) 
0

>  <i_epik_Tot_Q>  (41) 
0

>  <i_epik_Tot_abs_Q>  (41) 
0

>  <s_lp_Force_Field>  (41) 
OPLS3e

>  <r_lp_Energy>  (41) 
73.7202

>  <b_lp_Chiralities_Consistent>  (41) 
1

>  <s_lp_Variant>  (41) 
13:0-1

>  <s_i_glide_gridfile>  (41) 
pfpi4k_grid

>  <i_i_glide_lignum>  (41) 
21

>  <i_i_glide_rotatable_bonds>  (41) 
3

>  <r_i_docking_score>  (41) 
-2.96165

>  <r_i_glide_ligand_efficiency>  (41) 
-0.0955372

>  <r_i_glide_ligand_efficiency_sa>  (41) 
-0.300119

>  <r_i_glide_ligand_efficiency_ln>  (41) 
-0.667943

>  <r_i_glide_gscore>  (41) 
-2.96165

>  <r_i_glide_lipo>  (41) 
-0.205524

>  <r_i_glide_hbond>  (41) 
-0.32

>  <r_i_glide_metal>  (41) 
-0

>  <r_i_glide_rewards>  (41) 
-0.35005

>  <r_i_glide_evdw>  (41) 
-18.4139

>  <r_i_glide_ecoul>  (41) 
-7.53485

>  <r_i_glide_erotb>  (41) 
0

>  <r_i_glide_esite>  (41) 
-0.0351583

>  <r_i_glide_emodel>  (41) 
-29.306

>  <r_i_glide_energy>  (41) 
-25.9487

>  <r_i_glide_einternal>  (41) 
2.87202

>  <r_i_glide_intrahb_reward>  (41) 
-0

>  <i_i_glide_confnum>  (41) 
1

>  <i_i_glide_posenum>  (41) 
12

>  <r_i_glide_eff_state_penalty>  (41) 
0

>  <ligand_id>  (41) 
13

>  <original_smiles>  (41) 
COC12OC1CC1C(CCC3C1CC1CC4C3C1(SC)OC4(C)C)C1CC(O)C(C)C12

>  <smiles>  (41) 
[H]OC1([H])C([H])([H])C2([H])C3([H])C([H])([H])C([H])([H])C4([H])C([H])(C([H])([H])C5([H])C([H])([H])C6([H])C4([H])C5(SC([H])([H])[H])OC6(C([H])([H])[H])C([H])([H])[H])C3([H])C([H])([H])C3([H])OC3(OC([H])([H])[H])C2([H])C1([H])C([H])([H])[H]

$$$$
13:0:1
     RDKit          3D

 71 77  0  0  1  0  0  0  0  0999 V2000
    5.4829    0.2430    3.8400 C   0  0  0  0  0  0  0  0  0  0  0  0
    5.7804   -0.8019    2.9262 O   0  0  0  0  0  0  0  0  0  0  0  0
    4.7305   -1.5674    2.3539 C   0  0  2  0  0  0  0  0  0  0  0  0
    3.4109   -1.0371    2.5098 O   0  0  0  0  0  0  0  0  0  0  0  0
    3.7879   -2.1314    3.3852 C   0  0  1  0  0  0  0  0  0  0  0  0
    3.1404   -3.4795    3.1746 C   0  0  0  0  0  0  0  0  0  0  0  0
    4.1852   -4.6281    3.2288 C   0  0  2  0  0  0  0  0  0  0  0  0
    4.9560   -4.8164    1.8860 C   0  0  1  0  0  0  0  0  0  0  0  0
    4.0382   -5.3755    0.7676 C   0  0  0  0  0  0  0  0  0  0  0  0
    2.7855   -6.1088    1.2694 C   0  0  0  0  0  0  0  0  0  0  0  0
    3.0184   -6.8965    2.5604 C   0  0  1  0  0  0  0  0  0  0  0  0
    3.6347   -6.0138    3.7004 C   0  0  2  0  0  0  0  0  0  0  0  0
    2.9157   -6.0641    5.0834 C   0  0  0  0  0  0  0  0  0  0  0  0
    1.5897   -6.8542    5.0585 C   0  0  1  0  0  0  0  0  0  0  0  0
    0.5867   -6.1256    4.1362 C   0  0  0  0  0  0  0  0  0  0  0  0
    0.4026   -7.1531    3.0130 C   0  0  1  0  0  0  0  0  0  0  0  0
    1.7921   -7.7910    2.9161 C   0  0  2  0  0  0  0  0  0  0  0  0
    1.7358   -8.2361    4.3691 C   0  0  1  0  0  0  0  0  0  0  0  0
    3.1434   -9.2389    4.9319 S   0  0  0  0  0  0  0  0  0  0  0  0
    2.9528  -10.6953    3.8589 C   0  0  0  0  0  0  0  0  0  0  0  0
    0.4758   -8.9029    4.4876 O   0  0  0  0  0  0  0  0  0  0  0  0
   -0.4337   -8.3441    3.5429 C   0  0  0  0  0  0  0  0  0  0  0  0
   -1.7216   -7.9888    4.2881 C   0  0  0  0  0  0  0  0  0  0  0  0
   -0.7894   -9.3869    2.4667 C   0  0  0  0  0  0  0  0  0  0  0  0
    5.8354   -3.6154    1.4230 C   0  0  1  0  0  0  0  0  0  0  0  0
    6.7150   -3.8687    0.1999 C   0  0  0  0  0  0  0  0  0  0  0  0
    7.1148   -2.4707   -0.2911 C   0  0  1  0  0  0  0  0  0  0  0  0
    7.3768   -2.4539   -1.6769 O   0  0  0  0  0  0  0  0  0  0  0  0
    5.9713   -1.5152    0.0994 C   0  0  1  0  0  0  0  0  0  0  0  0
    5.1561   -0.8869   -1.0469 C   0  0  0  0  0  0  0  0  0  0  0  0
    5.0836   -2.3173    1.0818 C   0  0  2  0  0  0  0  0  0  0  0  0
    6.3975    0.7919    4.0610 H   0  0  0  0  0  0  0  0  0  0  0  0
    5.0945   -0.1109    4.7894 H   0  0  0  0  0  0  0  0  0  0  0  0
    4.7586    0.9367    3.4155 H   0  0  0  0  0  0  0  0  0  0  0  0
    3.8686   -1.8405    4.4282 H   0  0  0  0  0  0  0  0  0  0  0  0
    2.4227   -3.5635    3.9855 H   0  0  0  0  0  0  0  0  0  0  0  0
    2.5528   -3.4605    2.2588 H   0  0  0  0  0  0  0  0  0  0  0  0
    4.9100   -4.3400    3.9910 H   0  0  0  0  0  0  0  0  0  0  0  0
    5.6768   -5.6108    2.0896 H   0  0  0  0  0  0  0  0  0  0  0  0
    3.7348   -4.5940    0.0692 H   0  0  0  0  0  0  0  0  0  0  0  0
    4.6277   -6.0728    0.1780 H   0  0  0  0  0  0  0  0  0  0  0  0
    1.9778   -5.4007    1.4226 H   0  0  0  0  0  0  0  0  0  0  0  0
    2.4473   -6.7840    0.4769 H   0  0  0  0  0  0  0  0  0  0  0  0
    3.8009   -7.6219    2.3219 H   0  0  0  0  0  0  0  0  0  0  0  0
    4.5448   -6.5664    3.9308 H   0  0  0  0  0  0  0  0  0  0  0  0
    3.5794   -6.5354    5.8105 H   0  0  0  0  0  0  0  0  0  0  0  0
    2.7478   -5.0674    5.4905 H   0  0  0  0  0  0  0  0  0  0  0  0
    1.1914   -6.9642    6.0720 H   0  0  0  0  0  0  0  0  0  0  0  0
   -0.3326   -5.8446    4.6446 H   0  0  0  0  0  0  0  0  0  0  0  0
    0.9917   -5.2027    3.7253 H   0  0  0  0  0  0  0  0  0  0  0  0
    0.0231   -6.7377    2.0802 H   0  0  0  0  0  0  0  0  0  0  0  0
    1.7837   -8.6203    2.2146 H   0  0  0  0  0  0  0  0  0  0  0  0
    3.7477  -11.4148    4.0589 H   0  0  0  0  0  0  0  0  0  0  0  0
    3.0044  -10.4250    2.8012 H   0  0  0  0  0  0  0  0  0  0  0  0
    1.9914  -11.1800    4.0472 H   0  0  0  0  0  0  0  0  0  0  0  0
   -2.3640   -7.3236    3.7111 H   0  0  0  0  0  0  0  0  0  0  0  0
   -1.4910   -7.5401    5.2507 H   0  0  0  0  0  0  0  0  0  0  0  0
   -2.2820   -8.8981    4.4940 H   0  0  0  0  0  0  0  0  0  0  0  0
   -1.4245   -8.9448    1.6954 H   0  0  0  0  0  0  0  0  0  0  0  0
   -1.3324  -10.2329    2.8912 H   0  0  0  0  0  0  0  0  0  0  0  0
    0.0892   -9.8091    1.9889 H   0  0  0  0  0  0  0  0  0  0  0  0
    6.5163   -3.3540    2.2292 H   0  0  0  0  0  0  0  0  0  0  0  0
    7.5789   -4.4837    0.4442 H   0  0  0  0  0  0  0  0  0  0  0  0
    6.1548   -4.3842   -0.5789 H   0  0  0  0  0  0  0  0  0  0  0  0
    8.0292   -2.1611    0.2205 H   0  0  0  0  0  0  0  0  0  0  0  0
    8.1054   -3.0220   -1.8768 H   0  0  0  0  0  0  0  0  0  0  0  0
    6.4368   -0.6830    0.6270 H   0  0  0  0  0  0  0  0  0  0  0  0
    4.6400   -1.6312   -1.6535 H   0  0  0  0  0  0  0  0  0  0  0  0
    5.7758   -0.2915   -1.7126 H   0  0  0  0  0  0  0  0  0  0  0  0
    4.4012   -0.2221   -0.6372 H   0  0  0  0  0  0  0  0  0  0  0  0
    4.1572   -2.5638    0.5676 H   0  0  0  0  0  0  0  0  0  0  0  0
  1  2  1  0
  1 32  1  0
  1 33  1  0
  1 34  1  0
  3  2  1  1
  3  5  1  0
  3 31  1  0
  3  4  1  0
  4  5  1  0
  5  6  1  0
  5 35  1  1
  6  7  1  0
  6 36  1  0
  6 37  1  0
  7 12  1  0
  7  8  1  0
  7 38  1  1
  8  9  1  0
  8 25  1  0
  8 39  1  1
  9 10  1  0
  9 40  1  0
  9 41  1  0
 10 11  1  0
 10 42  1  0
 10 43  1  0
 11 17  1  0
 11 12  1  0
 11 44  1  6
 12 13  1  0
 12 45  1  1
 13 14  1  0
 13 46  1  0
 13 47  1  0
 14 18  1  0
 14 15  1  0
 14 48  1  1
 15 16  1  0
 15 49  1  0
 15 50  1  0
 16 22  1  0
 16 17  1  0
 16 51  1  6
 17 18  1  0
 17 52  1  6
 18 19  1  1
 18 21  1  0
 19 20  1  0
 20 53  1  0
 20 54  1  0
 20 55  1  0
 21 22  1  0
 22 23  1  0
 22 24  1  0
 23 56  1  0
 23 57  1  0
 23 58  1  0
 24 59  1  0
 24 60  1  0
 24 61  1  0
 25 31  1  0
 25 26  1  0
 25 62  1  1
 26 27  1  0
 26 63  1  0
 26 64  1  0
 27 28  1  0
 27 29  1  0
 27 65  1  1
 28 66  1  0
 29 30  1  0
 29 31  1  0
 29 67  1  1
 30 68  1  0
 30 69  1  0
 30 70  1  0
 31 71  1  6
M  END
>  <i_m_ct_stereo_status>  (42) 
1

>  <s_m_source_file>  (42) 
/var/tmp/pbs.5076255.sched01/tmpnm8fzmj1/0q4giu30i.sdf

>  <i_m_source_file_index>  (42) 
21

>  <i_lp_mmshare_version>  (42) 
48012

>  <i_f3d_flags>  (42) 
0

>  <s_epik_input>  (42) 
W0NIM11PW0NAQF0xMltDQEBIXShPMSlbQ0gyXVtDQEBIXTNbQ0BIXShbQ0BASF00W0NAQEhdMltDQEhdKFtDSDNdKVtDQEBIXShbQ0gyXTQpW09IXSlbQ0gyXVtDSDJdW0NASF01W0NAQEhdM1tDSDJdW0NAQEhdNltDQF03KFNbQ0gzXSlbQ0BIXTVbQ0BIXShbQ0gyXTYpQyhPNykoW0NIM10pW0NIM10=

>  <s_epik_cmdline>  (42) 
J2VwaWtfcHl0aG9uJywgJy1waHQnLCAnMi4wJywgJy1waCcsICc3LjAnLCAnLXRuJywgJzgnLCAnLW1hJywgJzIwMCcsICctaW1hZScsICc8aW5maWxlLm1hZT4nLCAnLW9tYWUnLCAnPG91dGZpbGUubWFlPic=

>  <r_lp_tautomer_probability>  (42) 
1

>  <r_epik_Ionization_Penalty>  (42) 
8.7821e-07

>  <r_epik_Ionization_Penalty_Charging>  (42) 
0

>  <r_epik_Ionization_Penalty_Neutral>  (42) 
8.7821e-07

>  <r_epik_State_Penalty>  (42) 
-0

>  <r_epik_Charging_Adjusted_Penalty>  (42) 
0

>  <i_epik_Tot_Q>  (42) 
0

>  <i_epik_Tot_abs_Q>  (42) 
0

>  <s_lp_Force_Field>  (42) 
OPLS3e

>  <r_lp_Energy>  (42) 
73.7202

>  <b_lp_Chiralities_Consistent>  (42) 
1

>  <s_lp_Variant>  (42) 
13:0-1

>  <s_i_glide_gridfile>  (42) 
pfpi4k_grid

>  <i_i_glide_lignum>  (42) 
21

>  <i_i_glide_rotatable_bonds>  (42) 
3

>  <r_i_docking_score>  (42) 
-2.69661

>  <r_i_glide_ligand_efficiency>  (42) 
-0.0869874

>  <r_i_glide_ligand_efficiency_sa>  (42) 
-0.273261

>  <r_i_glide_ligand_efficiency_ln>  (42) 
-0.608168

>  <r_i_glide_gscore>  (42) 
-2.69661

>  <r_i_glide_lipo>  (42) 
-0.554587

>  <r_i_glide_hbond>  (42) 
-0.16

>  <r_i_glide_metal>  (42) 
-0

>  <r_i_glide_rewards>  (42) 
-0.429783

>  <r_i_glide_evdw>  (42) 
-22.9054

>  <r_i_glide_ecoul>  (42) 
-2.71313

>  <r_i_glide_erotb>  (42) 
0

>  <r_i_glide_esite>  (42) 
0

>  <r_i_glide_emodel>  (42) 
-28.3265

>  <r_i_glide_energy>  (42) 
-25.6185

>  <r_i_glide_einternal>  (42) 
3.46963

>  <r_i_glide_intrahb_reward>  (42) 
-0

>  <i_i_glide_confnum>  (42) 
2

>  <i_i_glide_posenum>  (42) 
2

>  <r_i_glide_eff_state_penalty>  (42) 
0

>  <ligand_id>  (42) 
13

>  <original_smiles>  (42) 
COC12OC1CC1C(CCC3C1CC1CC4C3C1(SC)OC4(C)C)C1CC(O)C(C)C12

>  <smiles>  (42) 
[H]OC1([H])C([H])([H])C2([H])C3([H])C([H])([H])C([H])([H])C4([H])C([H])(C([H])([H])C5([H])C([H])([H])C6([H])C4([H])C5(SC([H])([H])[H])OC6(C([H])([H])[H])C([H])([H])[H])C3([H])C([H])([H])C3([H])OC3(OC([H])([H])[H])C2([H])C1([H])C([H])([H])[H]

$$$$
13:0:2
     RDKit          3D

 71 77  0  0  1  0  0  0  0  0999 V2000
    5.4487   -0.1547    3.5558 C   0  0  0  0  0  0  0  0  0  0  0  0
    4.8046    0.0035    2.2908 O   0  0  0  0  0  0  0  0  0  0  0  0
    4.1163   -1.0966    1.7536 C   0  0  2  0  0  0  0  0  0  0  0  0
    2.7255   -0.8327    1.4602 O   0  0  0  0  0  0  0  0  0  0  0  0
    3.0250   -1.5697    2.6682 C   0  0  1  0  0  0  0  0  0  0  0  0
    2.6473   -3.0353    2.6787 C   0  0  0  0  0  0  0  0  0  0  0  0
    3.8230   -3.9404    3.1792 C   0  0  2  0  0  0  0  0  0  0  0  0
    4.8715   -4.2862    2.0585 C   0  0  1  0  0  0  0  0  0  0  0  0
    4.3046   -5.2198    0.9821 C   0  0  0  0  0  0  0  0  0  0  0  0
    3.0983   -6.0596    1.4252 C   0  0  0  0  0  0  0  0  0  0  0  0
    3.1689   -6.4775    2.9019 C   0  0  1  0  0  0  0  0  0  0  0  0
    3.3878   -5.2731    3.8794 C   0  0  2  0  0  0  0  0  0  0  0  0
    2.4204   -5.1613    5.0914 C   0  0  0  0  0  0  0  0  0  0  0  0
    1.2678   -6.1818    5.0373 C   0  0  1  0  0  0  0  0  0  0  0  0
    0.3843   -5.8740    3.8134 C   0  0  0  0  0  0  0  0  0  0  0  0
    0.5841   -7.1282    2.9531 C   0  0  1  0  0  0  0  0  0  0  0  0
    2.0405   -7.4942    3.2516 C   0  0  2  0  0  0  0  0  0  0  0  0
    1.7455   -7.6242    4.7408 C   0  0  1  0  0  0  0  0  0  0  0  0
    3.1338   -8.1996    5.7644 S   0  0  0  0  0  0  0  0  0  0  0  0
    3.3616   -9.8662    5.0819 C   0  0  0  0  0  0  0  0  0  0  0  0
    0.5950   -8.4737    4.8024 O   0  0  0  0  0  0  0  0  0  0  0  0
   -0.1648   -8.3169    3.6018 C   0  0  0  0  0  0  0  0  0  0  0  0
   -1.6297   -8.0639    4.0047 C   0  0  0  0  0  0  0  0  0  0  0  0
   -0.1160   -9.6077    2.7576 C   0  0  0  0  0  0  0  0  0  0  0  0
    5.6732   -3.0847    1.4797 C   0  0  1  0  0  0  0  0  0  0  0  0
    6.7934   -3.4149    0.4892 C   0  0  0  0  0  0  0  0  0  0  0  0
    7.0816   -2.0715   -0.1991 C   0  0  1  0  0  0  0  0  0  0  0  0
    7.6170   -2.2735   -1.4857 O   0  0  0  0  0  0  0  0  0  0  0  0
    5.7697   -1.2707   -0.2367 C   0  0  1  0  0  0  0  0  0  0  0  0
    5.1224   -1.0542   -1.6336 C   0  0  0  0  0  0  0  0  0  0  0  0
    4.8245   -2.0001    0.7536 C   0  0  2  0  0  0  0  0  0  0  0  0
    5.9542    0.7751    3.8428 H   0  0  0  0  0  0  0  0  0  0  0  0
    6.1805   -0.9368    3.4431 H   0  0  0  0  0  0  0  0  0  0  0  0
    4.7837   -0.4050    4.3823 H   0  0  0  0  0  0  0  0  0  0  0  0
    2.7786   -1.0196    3.5538 H   0  0  0  0  0  0  0  0  0  0  0  0
    1.7909   -3.0932    3.3573 H   0  0  0  0  0  0  0  0  0  0  0  0
    2.2750   -3.3216    1.6996 H   0  0  0  0  0  0  0  0  0  0  0  0
    4.3274   -3.3625    3.9399 H   0  0  0  0  0  0  0  0  0  0  0  0
    5.6323   -4.8780    2.5762 H   0  0  0  0  0  0  0  0  0  0  0  0
    4.0385   -4.6746    0.0708 H   0  0  0  0  0  0  0  0  0  0  0  0
    5.0976   -5.9047    0.6924 H   0  0  0  0  0  0  0  0  0  0  0  0
    2.1809   -5.5008    1.2651 H   0  0  0  0  0  0  0  0  0  0  0  0
    3.0411   -6.9549    0.8050 H   0  0  0  0  0  0  0  0  0  0  0  0
    4.0830   -7.0667    2.9971 H   0  0  0  0  0  0  0  0  0  0  0  0
    4.2997   -5.5698    4.3932 H   0  0  0  0  0  0  0  0  0  0  0  0
    2.9785   -5.3305    6.0140 H   0  0  0  0  0  0  0  0  0  0  0  0
    2.0180   -4.1557    5.2087 H   0  0  0  0  0  0  0  0  0  0  0  0
    0.6794   -6.1531    5.9578 H   0  0  0  0  0  0  0  0  0  0  0  0
   -0.6420   -5.6915    4.1118 H   0  0  0  0  0  0  0  0  0  0  0  0
    0.7116   -4.9899    3.2705 H   0  0  0  0  0  0  0  0  0  0  0  0
    0.3511   -6.9955    1.8970 H   0  0  0  0  0  0  0  0  0  0  0  0
    2.3068   -8.4401    2.7796 H   0  0  0  0  0  0  0  0  0  0  0  0
    4.1903  -10.3656    5.5842 H   0  0  0  0  0  0  0  0  0  0  0  0
    3.5852   -9.8338    4.0149 H   0  0  0  0  0  0  0  0  0  0  0  0
    2.4567  -10.4594    5.2306 H   0  0  0  0  0  0  0  0  0  0  0  0
   -2.2179   -7.6726    3.1743 H   0  0  0  0  0  0  0  0  0  0  0  0
   -1.7085   -7.3883    4.8541 H   0  0  0  0  0  0  0  0  0  0  0  0
   -2.0909   -8.9967    4.3260 H   0  0  0  0  0  0  0  0  0  0  0  0
   -0.6724   -9.4658    1.8318 H   0  0  0  0  0  0  0  0  0  0  0  0
   -0.5807  -10.4360    3.2900 H   0  0  0  0  0  0  0  0  0  0  0  0
    0.8859   -9.9375    2.4906 H   0  0  0  0  0  0  0  0  0  0  0  0
    6.1800   -2.6269    2.2964 H   0  0  0  0  0  0  0  0  0  0  0  0
    7.6626   -3.7708    1.0401 H   0  0  0  0  0  0  0  0  0  0  0  0
    6.5417   -4.1734   -0.2407 H   0  0  0  0  0  0  0  0  0  0  0  0
    7.8040   -1.5057    0.3830 H   0  0  0  0  0  0  0  0  0  0  0  0
    8.4406   -2.7345   -1.4246 H   0  0  0  0  0  0  0  0  0  0  0  0
    5.9631   -0.2822    0.1559 H   0  0  0  0  0  0  0  0  0  0  0  0
    4.8636   -1.9893   -2.1256 H   0  0  0  0  0  0  0  0  0  0  0  0
    5.7822   -0.5078   -2.2985 H   0  0  0  0  0  0  0  0  0  0  0  0
    4.2196   -0.4627   -1.5462 H   0  0  0  0  0  0  0  0  0  0  0  0
    4.0703   -2.4852    0.1429 H   0  0  0  0  0  0  0  0  0  0  0  0
  1  2  1  0
  1 32  1  0
  1 33  1  0
  1 34  1  0
  3  2  1  1
  3  5  1  0
  3 31  1  0
  3  4  1  0
  4  5  1  0
  5  6  1  0
  5 35  1  1
  6  7  1  0
  6 36  1  0
  6 37  1  0
  7 12  1  0
  7  8  1  0
  7 38  1  1
  8  9  1  0
  8 25  1  0
  8 39  1  1
  9 10  1  0
  9 40  1  0
  9 41  1  0
 10 11  1  0
 10 42  1  0
 10 43  1  0
 11 17  1  0
 11 12  1  0
 11 44  1  6
 12 13  1  0
 12 45  1  1
 13 14  1  0
 13 46  1  0
 13 47  1  0
 14 18  1  0
 14 15  1  0
 14 48  1  1
 15 16  1  0
 15 49  1  0
 15 50  1  0
 16 22  1  0
 16 17  1  0
 16 51  1  6
 17 18  1  0
 17 52  1  6
 18 19  1  1
 18 21  1  0
 19 20  1  0
 20 53  1  0
 20 54  1  0
 20 55  1  0
 21 22  1  0
 22 23  1  0
 22 24  1  0
 23 56  1  0
 23 57  1  0
 23 58  1  0
 24 59  1  0
 24 60  1  0
 24 61  1  0
 25 31  1  0
 25 26  1  0
 25 62  1  1
 26 27  1  0
 26 63  1  0
 26 64  1  0
 27 28  1  0
 27 29  1  0
 27 65  1  1
 28 66  1  0
 29 30  1  0
 29 31  1  0
 29 67  1  1
 30 68  1  0
 30 69  1  0
 30 70  1  0
 31 71  1  6
M  END
>  <i_m_ct_stereo_status>  (43) 
1

>  <s_m_source_file>  (43) 
/var/tmp/pbs.5076255.sched01/tmpnm8fzmj1/0q4giu30i.sdf

>  <i_m_source_file_index>  (43) 
21

>  <i_lp_mmshare_version>  (43) 
48012

>  <i_f3d_flags>  (43) 
0

>  <s_epik_input>  (43) 
W0NIM11PW0NAQF0xMltDQEBIXShPMSlbQ0gyXVtDQEBIXTNbQ0BIXShbQ0BASF00W0NAQEhdMltDQEhdKFtDSDNdKVtDQEBIXShbQ0gyXTQpW09IXSlbQ0gyXVtDSDJdW0NASF01W0NAQEhdM1tDSDJdW0NAQEhdNltDQF03KFNbQ0gzXSlbQ0BIXTVbQ0BIXShbQ0gyXTYpQyhPNykoW0NIM10pW0NIM10=

>  <s_epik_cmdline>  (43) 
J2VwaWtfcHl0aG9uJywgJy1waHQnLCAnMi4wJywgJy1waCcsICc3LjAnLCAnLXRuJywgJzgnLCAnLW1hJywgJzIwMCcsICctaW1hZScsICc8aW5maWxlLm1hZT4nLCAnLW9tYWUnLCAnPG91dGZpbGUubWFlPic=

>  <r_lp_tautomer_probability>  (43) 
1

>  <r_epik_Ionization_Penalty>  (43) 
8.7821e-07

>  <r_epik_Ionization_Penalty_Charging>  (43) 
0

>  <r_epik_Ionization_Penalty_Neutral>  (43) 
8.7821e-07

>  <r_epik_State_Penalty>  (43) 
-0

>  <r_epik_Charging_Adjusted_Penalty>  (43) 
0

>  <i_epik_Tot_Q>  (43) 
0

>  <i_epik_Tot_abs_Q>  (43) 
0

>  <s_lp_Force_Field>  (43) 
OPLS3e

>  <r_lp_Energy>  (43) 
73.7202

>  <b_lp_Chiralities_Consistent>  (43) 
1

>  <s_lp_Variant>  (43) 
13:0-1

>  <s_i_glide_gridfile>  (43) 
pfpi4k_grid

>  <i_i_glide_lignum>  (43) 
21

>  <i_i_glide_rotatable_bonds>  (43) 
3

>  <r_i_docking_score>  (43) 
-2.67305

>  <r_i_glide_ligand_efficiency>  (43) 
-0.0862273

>  <r_i_glide_ligand_efficiency_sa>  (43) 
-0.270873

>  <r_i_glide_ligand_efficiency_ln>  (43) 
-0.602854

>  <r_i_glide_gscore>  (43) 
-2.67305

>  <r_i_glide_lipo>  (43) 
-0.415065

>  <r_i_glide_hbond>  (43) 
-0.259998

>  <r_i_glide_metal>  (43) 
-0

>  <r_i_glide_rewards>  (43) 
-0.369236

>  <r_i_glide_evdw>  (43) 
-22.1525

>  <r_i_glide_ecoul>  (43) 
-3.47415

>  <r_i_glide_erotb>  (43) 
0

>  <r_i_glide_esite>  (43) 
0

>  <r_i_glide_emodel>  (43) 
-28.4449

>  <r_i_glide_energy>  (43) 
-25.6267

>  <r_i_glide_einternal>  (43) 
2.93381

>  <r_i_glide_intrahb_reward>  (43) 
-0

>  <i_i_glide_confnum>  (43) 
1

>  <i_i_glide_posenum>  (43) 
31

>  <r_i_glide_eff_state_penalty>  (43) 
0

>  <ligand_id>  (43) 
13

>  <original_smiles>  (43) 
COC12OC1CC1C(CCC3C1CC1CC4C3C1(SC)OC4(C)C)C1CC(O)C(C)C12

>  <smiles>  (43) 
[H]OC1([H])C([H])([H])C2([H])C3([H])C([H])([H])C([H])([H])C4([H])C([H])(C([H])([H])C5([H])C([H])([H])C6([H])C4([H])C5(SC([H])([H])[H])OC6(C([H])([H])[H])C([H])([H])[H])C3([H])C([H])([H])C3([H])OC3(OC([H])([H])[H])C2([H])C1([H])C([H])([H])[H]

$$$$
16:0:0
     RDKit          3D

 44 49  0  0  1  0  0  0  0  0999 V2000
    4.1041   -1.5415   -3.9863 C   0  0  0  0  0  0  0  0  0  0  0  0
    4.2404   -0.6385   -2.7931 C   0  0  0  0  0  0  0  0  0  0  0  0
    4.7841   -1.0197   -1.6198 C   0  0  0  0  0  0  0  0  0  0  0  0
    5.3166   -2.3577   -1.2469 C   0  0  1  0  0  0  0  0  0  0  0  0
    6.7357   -2.4396   -1.5230 O   0  0  0  0  0  0  0  0  0  0  0  0
    7.6644   -2.3096   -0.4092 C   0  0  0  0  0  0  0  0  0  0  0  0
    7.4680   -3.4163    0.6200 C   0  0  0  0  0  0  0  0  0  0  0  0
    8.3051   -4.4957    0.9520 C   0  0  0  0  0  0  0  0  0  0  0  0
    7.7144   -5.7674    1.2474 C   0  0  0  0  0  0  0  0  0  0  0  0
    6.3317   -5.9813    1.0051 C   0  0  0  0  0  0  0  0  0  0  0  0
    5.5260   -4.8991    0.6217 C   0  0  0  0  0  0  0  0  0  0  0  0
    6.1093   -3.6576    0.6408 C   0  0  0  0  0  0  0  0  0  0  0  0
    5.0815   -2.7879    0.0856 C   0  0  1  0  0  0  0  0  0  0  0  0
    4.0249   -2.2949    1.0688 C   0  0  0  0  0  0  0  0  0  0  0  0
    3.3501   -3.5071    1.7434 C   0  0  0  0  0  0  0  0  0  0  0  0
    3.0871   -4.6577    0.8314 N   0  0  0  0  0  0  0  0  0  0  0  0
    2.8257   -5.9198    1.5478 C   0  0  0  0  0  0  0  0  0  0  0  0
    1.3638   -6.0473    1.9116 C   0  0  0  0  0  0  0  0  0  0  0  0
    0.7548   -7.3718    2.2950 C   0  0  0  0  0  0  0  0  0  0  0  0
    0.4241   -6.7503    0.9626 C   0  0  0  0  0  0  0  0  0  0  0  0
    4.2664   -4.8072    0.0201 N   0  0  0  0  0  0  0  0  0  0  0  0
    4.4264   -3.6662   -0.9631 C   0  0  2  0  0  0  0  0  0  0  0  0
    3.0490   -1.7305   -4.1844 H   0  0  0  0  0  0  0  0  0  0  0  0
    4.6076   -2.4946   -3.8138 H   0  0  0  0  0  0  0  0  0  0  0  0
    4.5564   -1.0555   -4.8490 H   0  0  0  0  0  0  0  0  0  0  0  0
    3.8762    0.3762   -2.9060 H   0  0  0  0  0  0  0  0  0  0  0  0
    4.8387   -0.2857   -0.8359 H   0  0  0  0  0  0  0  0  0  0  0  0
    8.6609   -2.4125   -0.8219 H   0  0  0  0  0  0  0  0  0  0  0  0
    7.6049   -1.3474    0.0961 H   0  0  0  0  0  0  0  0  0  0  0  0
    9.3806   -4.4054    0.9492 H   0  0  0  0  0  0  0  0  0  0  0  0
    8.3350   -6.5835    1.5786 H   0  0  0  0  0  0  0  0  0  0  0  0
    5.9114   -6.9773    1.0818 H   0  0  0  0  0  0  0  0  0  0  0  0
    4.4340   -1.5778    1.7879 H   0  0  0  0  0  0  0  0  0  0  0  0
    3.2525   -1.8050    0.4813 H   0  0  0  0  0  0  0  0  0  0  0  0
    4.0169   -3.8521    2.5257 H   0  0  0  0  0  0  0  0  0  0  0  0
    2.4286   -3.2065    2.2356 H   0  0  0  0  0  0  0  0  0  0  0  0
    3.1116   -6.7876    0.9505 H   0  0  0  0  0  0  0  0  0  0  0  0
    3.4104   -5.9542    2.4701 H   0  0  0  0  0  0  0  0  0  0  0  0
    0.9732   -5.1830    2.4392 H   0  0  0  0  0  0  0  0  0  0  0  0
    1.4301   -8.2243    2.3163 H   0  0  0  0  0  0  0  0  0  0  0  0
   -0.0246   -7.3641    3.0575 H   0  0  0  0  0  0  0  0  0  0  0  0
   -0.5819   -6.3567    0.8277 H   0  0  0  0  0  0  0  0  0  0  0  0
    0.8750   -7.1850    0.0796 H   0  0  0  0  0  0  0  0  0  0  0  0
    3.4168   -3.4824   -1.3211 H   0  0  0  0  0  0  0  0  0  0  0  0
  1  2  1  0
  1 23  1  0
  1 24  1  0
  1 25  1  0
  2  3  2  3
  2 26  1  0
  3  4  1  0
  3 27  1  0
  4 13  1  0
  4 22  1  0
  4  5  1  6
  5  6  1  0
  6  7  1  0
  6 28  1  0
  6 29  1  0
  7 12  2  0
  7  8  1  0
  8  9  2  0
  8 30  1  0
  9 10  1  0
  9 31  1  0
 10 11  2  0
 10 32  1  0
 11 21  1  0
 11 12  1  0
 12 13  1  0
 13 22  1  0
 13 14  1  1
 14 15  1  0
 14 33  1  0
 14 34  1  0
 15 16  1  0
 15 35  1  0
 15 36  1  0
 16 17  1  0
 16 21  1  0
 17 18  1  0
 17 37  1  0
 17 38  1  0
 18 20  1  0
 18 19  1  0
 18 39  1  0
 19 20  1  0
 19 40  1  0
 19 41  1  0
 20 42  1  0
 20 43  1  0
 21 22  1  0
 22 44  1  1
M  END
>  <i_m_ct_stereo_status>  (44) 
1

>  <s_m_source_file>  (44) 
/var/tmp/pbs.5076255.sched01/tmpnm8fzmj1/0q4giu30i.sdf

>  <i_m_source_file_index>  (44) 
24

>  <i_lp_mmshare_version>  (44) 
48012

>  <i_f3d_flags>  (44) 
0

>  <s_epik_input>  (44) 
W0NIM10vW0NIXT1bQ0hdXFtDQEBdMShbQ0BAXTIzNClbQ0BIXTROKE4oW0NIMl1bQ0gyXTMpW0NIMl1bQ0hdNVtDSDJdW0NIMl01KWM2YzJjKFtDSDJdTzEpW2NIXVtjSF1bY0hdNg==

>  <s_epik_cmdline>  (44) 
J2VwaWtfcHl0aG9uJywgJy1waHQnLCAnMi4wJywgJy1waCcsICc3LjAnLCAnLXRuJywgJzgnLCAnLW1hJywgJzIwMCcsICctaW1hZScsICc8aW5maWxlLm1hZT4nLCAnLW9tYWUnLCAnPG91dGZpbGUubWFlPic=

>  <r_epik_Ionization_Penalty>  (44) 
0.0493107

>  <r_epik_Ionization_Penalty_Charging>  (44) 
0

>  <r_epik_Ionization_Penalty_Neutral>  (44) 
0.0493107

>  <r_epik_State_Penalty>  (44) 
0.0421002

>  <r_epik_Charging_Adjusted_Penalty>  (44) 
0.0421002

>  <i_epik_Tot_Q>  (44) 
0

>  <i_epik_Tot_abs_Q>  (44) 
0

>  <s_lp_Force_Field>  (44) 
OPLS3e

>  <r_lp_Energy>  (44) 
145.286

>  <b_lp_Chiralities_Consistent>  (44) 
1

>  <s_lp_Variant>  (44) 
16:0-1

>  <s_i_glide_gridfile>  (44) 
pfpi4k_grid

>  <i_i_glide_lignum>  (44) 
24

>  <i_i_glide_rotatable_bonds>  (44) 
3

>  <r_i_docking_score>  (44) 
-3.02428

>  <r_i_glide_ligand_efficiency>  (44) 
-0.137467

>  <r_i_glide_ligand_efficiency_sa>  (44) 
-0.385189

>  <r_i_glide_ligand_efficiency_ln>  (44) 
-0.739245

>  <r_i_glide_gscore>  (44) 
-3.02428

>  <r_i_glide_lipo>  (44) 
-0.689282

>  <r_i_glide_hbond>  (44) 
-0.133573

>  <r_i_glide_metal>  (44) 
-0

>  <r_i_glide_rewards>  (44) 
-1.40188

>  <r_i_glide_evdw>  (44) 
-26.2589

>  <r_i_glide_ecoul>  (44) 
-0.755616

>  <r_i_glide_erotb>  (44) 
0.633048

>  <r_i_glide_esite>  (44) 
-0.00630336

>  <r_i_glide_emodel>  (44) 
-29.806

>  <r_i_glide_energy>  (44) 
-27.0146

>  <r_i_glide_einternal>  (44) 
3.36728

>  <r_i_glide_intrahb_reward>  (44) 
-0

>  <i_i_glide_confnum>  (44) 
4

>  <i_i_glide_posenum>  (44) 
40

>  <r_i_glide_eff_state_penalty>  (44) 
0

>  <ligand_id>  (44) 
16

>  <original_smiles>  (44) 
CC=CC12OCc3cccc4c3C13CCN(CC1CC1)N4C23

>  <smiles>  (44) 
[H]C(=C([H])C12OC([H])([H])c3c([H])c([H])c([H])c4c3C13C([H])([H])C([H])([H])N(C([H])([H])C1([H])C([H])([H])C1([H])[H])N4C23[H])C([H])([H])[H]

$$$$
16:0:1
     RDKit          3D

 44 49  0  0  1  0  0  0  0  0999 V2000
    4.2402   -2.3538    1.8723 C   0  0  0  0  0  0  0  0  0  0  0  0
    3.7492   -2.7483    0.4878 C   0  0  0  0  0  0  0  0  0  0  0  0
    4.0372   -3.8651   -0.2243 C   0  0  0  0  0  0  0  0  0  0  0  0
    4.9054   -5.0240    0.1908 C   0  0  1  0  0  0  0  0  0  0  0  0
    6.3131   -4.7249    0.0582 O   0  0  0  0  0  0  0  0  0  0  0  0
    7.0574   -4.4134    1.2655 C   0  0  0  0  0  0  0  0  0  0  0  0
    7.0512   -5.5803    2.2522 C   0  0  0  0  0  0  0  0  0  0  0  0
    8.1246   -6.3847    2.6498 C   0  0  0  0  0  0  0  0  0  0  0  0
    7.9146   -7.8002    2.7881 C   0  0  0  0  0  0  0  0  0  0  0  0
    6.7107   -8.3922    2.3403 C   0  0  0  0  0  0  0  0  0  0  0  0
    5.6650   -7.5672    1.9046 C   0  0  0  0  0  0  0  0  0  0  0  0
    5.8343   -6.2170    2.0786 C   0  0  0  0  0  0  0  0  0  0  0  0
    4.6631   -5.6537    1.4293 C   0  0  1  0  0  0  0  0  0  0  0  0
    3.3965   -5.5955    2.2695 C   0  0  0  0  0  0  0  0  0  0  0  0
    3.0475   -7.0067    2.7627 C   0  0  0  0  0  0  0  0  0  0  0  0
    3.2682   -8.0884    1.7595 N   0  0  0  0  0  0  0  0  0  0  0  0
    3.3171   -9.4273    2.3806 C   0  0  0  0  0  0  0  0  0  0  0  0
    1.9272  -10.0023    2.5672 C   0  0  0  0  0  0  0  0  0  0  0  0
    1.2318  -10.0183    3.9137 C   0  0  0  0  0  0  0  0  0  0  0  0
    1.6931  -11.3114    3.2884 C   0  0  0  0  0  0  0  0  0  0  0  0
    4.5325   -7.8019    1.1189 N   0  0  0  0  0  0  0  0  0  0  0  0
    4.4409   -6.5646    0.2425 C   0  0  2  0  0  0  0  0  0  0  0  0
    4.9084   -1.4925    1.8129 H   0  0  0  0  0  0  0  0  0  0  0  0
    4.7614   -3.1577    2.3784 H   0  0  0  0  0  0  0  0  0  0  0  0
    3.4096   -2.0920    2.5276 H   0  0  0  0  0  0  0  0  0  0  0  0
    3.0970   -2.0176    0.0357 H   0  0  0  0  0  0  0  0  0  0  0  0
    3.5683   -3.9400   -1.2045 H   0  0  0  0  0  0  0  0  0  0  0  0
    8.0776   -4.2192    0.9576 H   0  0  0  0  0  0  0  0  0  0  0  0
    6.7449   -3.5119    1.7775 H   0  0  0  0  0  0  0  0  0  0  0  0
    9.1283   -6.0035    2.7674 H   0  0  0  0  0  0  0  0  0  0  0  0
    8.7119   -8.4248    3.1447 H   0  0  0  0  0  0  0  0  0  0  0  0
    6.5958   -9.4683    2.2909 H   0  0  0  0  0  0  0  0  0  0  0  0
    3.4685   -4.8680    3.0858 H   0  0  0  0  0  0  0  0  0  0  0  0
    2.6065   -5.2921    1.5892 H   0  0  0  0  0  0  0  0  0  0  0  0
    3.6994   -7.2085    3.6027 H   0  0  0  0  0  0  0  0  0  0  0  0
    2.0290   -7.0304    3.1416 H   0  0  0  0  0  0  0  0  0  0  0  0
    3.8885  -10.1278    1.7685 H   0  0  0  0  0  0  0  0  0  0  0  0
    3.8084   -9.3654    3.3513 H   0  0  0  0  0  0  0  0  0  0  0  0
    1.2964   -9.8292    1.7031 H   0  0  0  0  0  0  0  0  0  0  0  0
    1.7785   -9.6448    4.7771 H   0  0  0  0  0  0  0  0  0  0  0  0
    0.1566   -9.8379    3.9284 H   0  0  0  0  0  0  0  0  0  0  0  0
    0.9237  -11.9680    2.8809 H   0  0  0  0  0  0  0  0  0  0  0  0
    2.5703  -11.8097    3.6971 H   0  0  0  0  0  0  0  0  0  0  0  0
    3.4743   -6.6509   -0.2491 H   0  0  0  0  0  0  0  0  0  0  0  0
  1  2  1  0
  1 23  1  0
  1 24  1  0
  1 25  1  0
  2  3  2  3
  2 26  1  0
  3  4  1  0
  3 27  1  0
  4 13  1  0
  4 22  1  0
  4  5  1  1
  5  6  1  0
  6  7  1  0
  6 28  1  0
  6 29  1  0
  7 12  2  0
  7  8  1  0
  8  9  2  0
  8 30  1  0
  9 10  1  0
  9 31  1  0
 10 11  2  0
 10 32  1  0
 11 21  1  0
 11 12  1  0
 12 13  1  0
 13 22  1  0
 13 14  1  1
 14 15  1  0
 14 33  1  0
 14 34  1  0
 15 16  1  0
 15 35  1  0
 15 36  1  0
 16 17  1  0
 16 21  1  0
 17 18  1  0
 17 37  1  0
 17 38  1  0
 18 20  1  0
 18 19  1  0
 18 39  1  0
 19 20  1  0
 19 40  1  0
 19 41  1  0
 20 42  1  0
 20 43  1  0
 21 22  1  0
 22 44  1  6
M  END
>  <i_m_ct_stereo_status>  (45) 
1

>  <s_m_source_file>  (45) 
/var/tmp/pbs.5076255.sched01/tmpnm8fzmj1/0q4giu30i.sdf

>  <i_m_source_file_index>  (45) 
24

>  <i_lp_mmshare_version>  (45) 
48012

>  <i_f3d_flags>  (45) 
0

>  <s_epik_input>  (45) 
W0NIM10vW0NIXT1bQ0hdXFtDQEBdMShbQ0BAXTIzNClbQ0BIXTROKE4oW0NIMl1bQ0gyXTMpW0NIMl1bQ0hdNVtDSDJdW0NIMl01KWM2YzJjKFtDSDJdTzEpW2NIXVtjSF1bY0hdNg==

>  <s_epik_cmdline>  (45) 
J2VwaWtfcHl0aG9uJywgJy1waHQnLCAnMi4wJywgJy1waCcsICc3LjAnLCAnLXRuJywgJzgnLCAnLW1hJywgJzIwMCcsICctaW1hZScsICc8aW5maWxlLm1hZT4nLCAnLW9tYWUnLCAnPG91dGZpbGUubWFlPic=

>  <r_epik_Ionization_Penalty>  (45) 
0.0493107

>  <r_epik_Ionization_Penalty_Charging>  (45) 
0

>  <r_epik_Ionization_Penalty_Neutral>  (45) 
0.0493107

>  <r_epik_State_Penalty>  (45) 
0.0421002

>  <r_epik_Charging_Adjusted_Penalty>  (45) 
0.0421002

>  <i_epik_Tot_Q>  (45) 
0

>  <i_epik_Tot_abs_Q>  (45) 
0

>  <s_lp_Force_Field>  (45) 
OPLS3e

>  <r_lp_Energy>  (45) 
145.286

>  <b_lp_Chiralities_Consistent>  (45) 
1

>  <s_lp_Variant>  (45) 
16:0-1

>  <s_i_glide_gridfile>  (45) 
pfpi4k_grid

>  <i_i_glide_lignum>  (45) 
24

>  <i_i_glide_rotatable_bonds>  (45) 
3

>  <r_i_docking_score>  (45) 
-2.91911

>  <r_i_glide_ligand_efficiency>  (45) 
-0.132687

>  <r_i_glide_ligand_efficiency_sa>  (45) 
-0.371794

>  <r_i_glide_ligand_efficiency_ln>  (45) 
-0.713537

>  <r_i_glide_gscore>  (45) 
-2.91911

>  <r_i_glide_lipo>  (45) 
-0.790041

>  <r_i_glide_hbond>  (45) 
0

>  <r_i_glide_metal>  (45) 
-0

>  <r_i_glide_rewards>  (45) 
-1.46441

>  <r_i_glide_evdw>  (45) 
-19.1455

>  <r_i_glide_ecoul>  (45) 
-2.26955

>  <r_i_glide_erotb>  (45) 
0.633048

>  <r_i_glide_esite>  (45) 
0

>  <r_i_glide_emodel>  (45) 
-23.1572

>  <r_i_glide_energy>  (45) 
-21.4151

>  <r_i_glide_einternal>  (45) 
4.16722

>  <r_i_glide_intrahb_reward>  (45) 
-0

>  <i_i_glide_confnum>  (45) 
4

>  <i_i_glide_posenum>  (45) 
5

>  <r_i_glide_eff_state_penalty>  (45) 
0

>  <ligand_id>  (45) 
16

>  <original_smiles>  (45) 
CC=CC12OCc3cccc4c3C13CCN(CC1CC1)N4C23

>  <smiles>  (45) 
[H]C(=C([H])C12OC([H])([H])c3c([H])c([H])c([H])c4c3C13C([H])([H])C([H])([H])N(C([H])([H])C1([H])C([H])([H])C1([H])[H])N4C23[H])C([H])([H])[H]

$$$$
16:0:2
     RDKit          3D

 44 49  0  0  1  0  0  0  0  0999 V2000
   -0.9645   -8.4132    2.4617 C   0  0  0  0  0  0  0  0  0  0  0  0
    0.5012   -8.7959    2.4690 C   0  0  0  0  0  0  0  0  0  0  0  0
    1.5695   -8.0006    2.2700 C   0  0  0  0  0  0  0  0  0  0  0  0
    1.6467   -6.5170    2.0209 C   0  0  1  0  0  0  0  0  0  0  0  0
    0.5554   -5.7968    2.6356 O   0  0  0  0  0  0  0  0  0  0  0  0
    0.8450   -5.1292    3.8940 C   0  0  0  0  0  0  0  0  0  0  0  0
    1.8446   -3.9961    3.6976 C   0  0  0  0  0  0  0  0  0  0  0  0
    1.6221   -2.6100    3.7435 C   0  0  0  0  0  0  0  0  0  0  0  0
    2.2555   -1.7655    2.7786 C   0  0  0  0  0  0  0  0  0  0  0  0
    2.9329   -2.3298    1.6711 C   0  0  0  0  0  0  0  0  0  0  0  0
    3.0816   -3.7288    1.6111 C   0  0  0  0  0  0  0  0  0  0  0  0
    2.7105   -4.4452    2.7069 C   0  0  0  0  0  0  0  0  0  0  0  0
    2.8685   -5.8397    2.2901 C   0  0  1  0  0  0  0  0  0  0  0  0
    4.2676   -6.4163    2.4592 C   0  0  0  0  0  0  0  0  0  0  0  0
    5.2633   -5.5243    1.6987 C   0  0  0  0  0  0  0  0  0  0  0  0
    4.7559   -5.0437    0.3806 N   0  0  0  0  0  0  0  0  0  0  0  0
    5.5456   -3.9263   -0.1528 C   0  0  0  0  0  0  0  0  0  0  0  0
    5.1879   -3.5061   -1.5604 C   0  0  0  0  0  0  0  0  0  0  0  0
    6.2674   -2.9770   -2.4793 C   0  0  0  0  0  0  0  0  0  0  0  0
    5.2075   -2.0440   -1.9489 C   0  0  0  0  0  0  0  0  0  0  0  0
    3.3812   -4.6216    0.5732 N   0  0  0  0  0  0  0  0  0  0  0  0
    2.4955   -5.8229    0.8277 C   0  0  2  0  0  0  0  0  0  0  0  0
   -1.4509   -8.8804    1.6050 H   0  0  0  0  0  0  0  0  0  0  0  0
   -1.1436   -7.3453    2.3939 H   0  0  0  0  0  0  0  0  0  0  0  0
   -1.4275   -8.7724    3.3842 H   0  0  0  0  0  0  0  0  0  0  0  0
    0.7017   -9.8442    2.6599 H   0  0  0  0  0  0  0  0  0  0  0  0
    2.5172   -8.5158    2.3256 H   0  0  0  0  0  0  0  0  0  0  0  0
   -0.0877   -4.7064    4.2435 H   0  0  0  0  0  0  0  0  0  0  0  0
    1.2045   -5.7974    4.6736 H   0  0  0  0  0  0  0  0  0  0  0  0
    0.9139   -2.1587    4.4285 H   0  0  0  0  0  0  0  0  0  0  0  0
    2.1643   -0.6973    2.8368 H   0  0  0  0  0  0  0  0  0  0  0  0
    3.2891   -1.7176    0.8549 H   0  0  0  0  0  0  0  0  0  0  0  0
    4.5263   -6.5605    3.5104 H   0  0  0  0  0  0  0  0  0  0  0  0
    4.2873   -7.3782    1.9543 H   0  0  0  0  0  0  0  0  0  0  0  0
    5.4765   -4.6488    2.3077 H   0  0  0  0  0  0  0  0  0  0  0  0
    6.2081   -6.0561    1.5557 H   0  0  0  0  0  0  0  0  0  0  0  0
    5.4762   -3.0761    0.5225 H   0  0  0  0  0  0  0  0  0  0  0  0
    6.5961   -4.2247   -0.1670 H   0  0  0  0  0  0  0  0  0  0  0  0
    4.4420   -4.1335   -2.0389 H   0  0  0  0  0  0  0  0  0  0  0  0
    7.2794   -2.8952   -2.0820 H   0  0  0  0  0  0  0  0  0  0  0  0
    6.2036   -3.2803   -3.5183 H   0  0  0  0  0  0  0  0  0  0  0  0
    4.4193   -1.7204   -2.6286 H   0  0  0  0  0  0  0  0  0  0  0  0
    5.4841   -1.3310   -1.1752 H   0  0  0  0  0  0  0  0  0  0  0  0
    2.8455   -6.5870    0.1258 H   0  0  0  0  0  0  0  0  0  0  0  0
  1  2  1  0
  1 23  1  0
  1 24  1  0
  1 25  1  0
  2  3  2  3
  2 26  1  0
  3  4  1  0
  3 27  1  0
  4 13  1  0
  4 22  1  0
  4  5  1  1
  5  6  1  0
  6  7  1  0
  6 28  1  0
  6 29  1  0
  7 12  2  0
  7  8  1  0
  8  9  2  0
  8 30  1  0
  9 10  1  0
  9 31  1  0
 10 11  2  0
 10 32  1  0
 11 21  1  0
 11 12  1  0
 12 13  1  0
 13 22  1  0
 13 14  1  6
 14 15  1  0
 14 33  1  0
 14 34  1  0
 15 16  1  0
 15 35  1  0
 15 36  1  0
 16 17  1  0
 16 21  1  0
 17 18  1  0
 17 37  1  0
 17 38  1  0
 18 20  1  0
 18 19  1  0
 18 39  1  0
 19 20  1  0
 19 40  1  0
 19 41  1  0
 20 42  1  0
 20 43  1  0
 21 22  1  0
 22 44  1  6
M  END
>  <i_m_ct_stereo_status>  (46) 
1

>  <s_m_source_file>  (46) 
/var/tmp/pbs.5076255.sched01/tmpnm8fzmj1/0q4giu30i.sdf

>  <i_m_source_file_index>  (46) 
24

>  <i_lp_mmshare_version>  (46) 
48012

>  <i_f3d_flags>  (46) 
0

>  <s_epik_input>  (46) 
W0NIM10vW0NIXT1bQ0hdXFtDQEBdMShbQ0BAXTIzNClbQ0BIXTROKE4oW0NIMl1bQ0gyXTMpW0NIMl1bQ0hdNVtDSDJdW0NIMl01KWM2YzJjKFtDSDJdTzEpW2NIXVtjSF1bY0hdNg==

>  <s_epik_cmdline>  (46) 
J2VwaWtfcHl0aG9uJywgJy1waHQnLCAnMi4wJywgJy1waCcsICc3LjAnLCAnLXRuJywgJzgnLCAnLW1hJywgJzIwMCcsICctaW1hZScsICc8aW5maWxlLm1hZT4nLCAnLW9tYWUnLCAnPG91dGZpbGUubWFlPic=

>  <r_epik_Ionization_Penalty>  (46) 
0.0493107

>  <r_epik_Ionization_Penalty_Charging>  (46) 
0

>  <r_epik_Ionization_Penalty_Neutral>  (46) 
0.0493107

>  <r_epik_State_Penalty>  (46) 
0.0421002

>  <r_epik_Charging_Adjusted_Penalty>  (46) 
0.0421002

>  <i_epik_Tot_Q>  (46) 
0

>  <i_epik_Tot_abs_Q>  (46) 
0

>  <s_lp_Force_Field>  (46) 
OPLS3e

>  <r_lp_Energy>  (46) 
145.286

>  <b_lp_Chiralities_Consistent>  (46) 
1

>  <s_lp_Variant>  (46) 
16:0-1

>  <s_i_glide_gridfile>  (46) 
pfpi4k_grid

>  <i_i_glide_lignum>  (46) 
24

>  <i_i_glide_rotatable_bonds>  (46) 
3

>  <r_i_docking_score>  (46) 
-2.25767

>  <r_i_glide_ligand_efficiency>  (46) 
-0.102621

>  <r_i_glide_ligand_efficiency_sa>  (46) 
-0.287549

>  <r_i_glide_ligand_efficiency_ln>  (46) 
-0.551856

>  <r_i_glide_gscore>  (46) 
-2.25767

>  <r_i_glide_lipo>  (46) 
-0.298369

>  <r_i_glide_hbond>  (46) 
-0.098562

>  <r_i_glide_metal>  (46) 
-0

>  <r_i_glide_rewards>  (46) 
-1.40188

>  <r_i_glide_evdw>  (46) 
-19.6969

>  <r_i_glide_ecoul>  (46) 
-0.663873

>  <r_i_glide_erotb>  (46) 
0.633048

>  <r_i_glide_esite>  (46) 
-0.00747788

>  <r_i_glide_emodel>  (46) 
-22.7315

>  <r_i_glide_energy>  (46) 
-20.3607

>  <r_i_glide_einternal>  (46) 
2.16024

>  <r_i_glide_intrahb_reward>  (46) 
-0

>  <i_i_glide_confnum>  (46) 
3

>  <i_i_glide_posenum>  (46) 
36

>  <r_i_glide_eff_state_penalty>  (46) 
0

>  <ligand_id>  (46) 
16

>  <original_smiles>  (46) 
CC=CC12OCc3cccc4c3C13CCN(CC1CC1)N4C23

>  <smiles>  (46) 
[H]C(=C([H])C12OC([H])([H])c3c([H])c([H])c([H])c4c3C13C([H])([H])C([H])([H])N(C([H])([H])C1([H])C([H])([H])C1([H])[H])N4C23[H])C([H])([H])[H]

$$$$
16:1:0
     RDKit          3D

 44 49  0  0  1  0  0  0  0  0999 V2000
    3.4735   -0.2297   -4.0513 C   0  0  0  0  0  0  0  0  0  0  0  0
    4.1829   -1.4023   -3.3871 C   0  0  0  0  0  0  0  0  0  0  0  0
    3.8298   -1.9442   -2.2074 C   0  0  0  0  0  0  0  0  0  0  0  0
    4.4631   -3.1137   -1.5003 C   0  0  1  0  0  0  0  0  0  0  0  0
    5.8181   -3.3531   -1.9527 O   0  0  0  0  0  0  0  0  0  0  0  0
    6.9167   -2.9309   -1.0861 C   0  0  0  0  0  0  0  0  0  0  0  0
    6.9013   -3.6672    0.2498 C   0  0  0  0  0  0  0  0  0  0  0  0
    7.7913   -4.6294    0.7623 C   0  0  0  0  0  0  0  0  0  0  0  0
    7.2742   -5.7444    1.4925 C   0  0  0  0  0  0  0  0  0  0  0  0
    5.8696   -5.9898    1.5170 C   0  0  0  0  0  0  0  0  0  0  0  0
    5.0025   -5.0432    0.9499 C   0  0  0  0  0  0  0  0  0  0  0  0
    5.5625   -3.8603    0.5397 C   0  0  0  0  0  0  0  0  0  0  0  0
    4.4524   -3.1372   -0.0754 C   0  0  1  0  0  0  0  0  0  0  0  0
    3.5489   -2.3698    0.8891 C   0  0  0  0  0  0  0  0  0  0  0  0
    3.0156   -3.3266    1.9741 C   0  0  0  0  0  0  0  0  0  0  0  0
    2.6215   -4.6696    1.4665 N   0  0  0  0  0  0  0  0  0  0  0  0
    2.4870   -5.6700    2.5391 C   0  0  0  0  0  0  0  0  0  0  0  0
    1.9596   -7.0114    2.0901 C   0  0  0  0  0  0  0  0  0  0  0  0
    0.4728   -7.2548    2.0652 C   0  0  0  0  0  0  0  0  0  0  0  0
    1.3343   -7.9542    3.0892 C   0  0  0  0  0  0  0  0  0  0  0  0
    3.6566   -5.0800    0.5431 N   0  0  0  0  0  0  0  0  0  0  0  0
    3.6476   -4.2588   -0.7254 C   0  0  2  0  0  0  0  0  0  0  0  0
    4.1530    0.6054   -4.2206 H   0  0  0  0  0  0  0  0  0  0  0  0
    2.6342    0.1335   -3.4570 H   0  0  0  0  0  0  0  0  0  0  0  0
    3.0808   -0.5447   -5.0171 H   0  0  0  0  0  0  0  0  0  0  0  0
    5.0117   -1.8224   -3.9288 H   0  0  0  0  0  0  0  0  0  0  0  0
    2.9960   -1.4730   -1.7061 H   0  0  0  0  0  0  0  0  0  0  0  0
    7.8466   -3.1740   -1.5909 H   0  0  0  0  0  0  0  0  0  0  0  0
    6.9179   -1.8617   -0.8820 H   0  0  0  0  0  0  0  0  0  0  0  0
    8.8499   -4.5856    0.5591 H   0  0  0  0  0  0  0  0  0  0  0  0
    7.9511   -6.4551    1.9449 H   0  0  0  0  0  0  0  0  0  0  0  0
    5.4893   -6.9120    1.9441 H   0  0  0  0  0  0  0  0  0  0  0  0
    4.0563   -1.4922    1.2966 H   0  0  0  0  0  0  0  0  0  0  0  0
    2.6756   -2.0407    0.3313 H   0  0  0  0  0  0  0  0  0  0  0  0
    3.7913   -3.4617    2.7187 H   0  0  0  0  0  0  0  0  0  0  0  0
    2.1671   -2.8799    2.4830 H   0  0  0  0  0  0  0  0  0  0  0  0
    3.4340   -5.7965    3.0645 H   0  0  0  0  0  0  0  0  0  0  0  0
    1.7841   -5.2775    3.2725 H   0  0  0  0  0  0  0  0  0  0  0  0
    2.5470   -7.4837    1.3094 H   0  0  0  0  0  0  0  0  0  0  0  0
   -0.1671   -6.4468    2.4094 H   0  0  0  0  0  0  0  0  0  0  0  0
    0.0841   -7.8462    1.2402 H   0  0  0  0  0  0  0  0  0  0  0  0
    1.5211   -9.0169    2.9491 H   0  0  0  0  0  0  0  0  0  0  0  0
    1.2763   -7.6198    4.1235 H   0  0  0  0  0  0  0  0  0  0  0  0
    2.5943   -4.1598   -0.9687 H   0  0  0  0  0  0  0  0  0  0  0  0
  1  2  1  0
  1 23  1  0
  1 24  1  0
  1 25  1  0
  2  3  2  3
  2 26  1  0
  3  4  1  0
  3 27  1  0
  4 13  1  0
  4 22  1  0
  4  5  1  6
  5  6  1  0
  6  7  1  0
  6 28  1  0
  6 29  1  0
  7 12  2  0
  7  8  1  0
  8  9  2  0
  8 30  1  0
  9 10  1  0
  9 31  1  0
 10 11  2  0
 10 32  1  0
 11 21  1  0
 11 12  1  0
 12 13  1  0
 13 22  1  0
 13 14  1  1
 14 15  1  0
 14 33  1  0
 14 34  1  0
 15 16  1  0
 15 35  1  0
 15 36  1  0
 16 17  1  0
 16 21  1  0
 17 18  1  0
 17 37  1  0
 17 38  1  0
 18 20  1  0
 18 19  1  0
 18 39  1  0
 19 20  1  0
 19 40  1  0
 19 41  1  0
 20 42  1  0
 20 43  1  0
 21 22  1  0
 22 44  1  1
M  END
>  <i_m_ct_stereo_status>  (47) 
1

>  <s_m_source_file>  (47) 
/var/tmp/pbs.5076255.sched01/tmpnm8fzmj1/0q4giu30i.sdf

>  <i_m_source_file_index>  (47) 
25

>  <i_lp_mmshare_version>  (47) 
48012

>  <i_f3d_flags>  (47) 
0

>  <s_epik_input>  (47) 
W0NIM10vW0NIXT1bQ0hdXFtDQEBdMShbQ0BAXTIzNClbQ0BIXTROKE4oW0NIMl1bQ0gyXTMpW0NIMl1bQ0hdNVtDSDJdW0NIMl01KWM2YzJjKFtDSDJdTzEpW2NIXVtjSF1bY0hdNg==

>  <s_epik_cmdline>  (47) 
J2VwaWtfcHl0aG9uJywgJy1waHQnLCAnMi4wJywgJy1waCcsICc3LjAnLCAnLXRuJywgJzgnLCAnLW1hJywgJzIwMCcsICctaW1hZScsICc8aW5maWxlLm1hZT4nLCAnLW9tYWUnLCAnPG91dGZpbGUubWFlPic=

>  <r_epik_Ionization_Penalty>  (47) 
0.0493107

>  <r_epik_Ionization_Penalty_Charging>  (47) 
0

>  <r_epik_Ionization_Penalty_Neutral>  (47) 
0.0493107

>  <r_epik_State_Penalty>  (47) 
0.0421002

>  <r_epik_Charging_Adjusted_Penalty>  (47) 
0.0421002

>  <i_epik_Tot_Q>  (47) 
0

>  <i_epik_Tot_abs_Q>  (47) 
0

>  <s_lp_Force_Field>  (47) 
OPLS3e

>  <r_lp_Energy>  (47) 
145.239

>  <b_lp_Chiralities_Consistent>  (47) 
1

>  <s_lp_Variant>  (47) 
16:0-2

>  <s_i_glide_gridfile>  (47) 
pfpi4k_grid

>  <i_i_glide_lignum>  (47) 
25

>  <i_i_glide_rotatable_bonds>  (47) 
3

>  <r_i_docking_score>  (47) 
-2.97462

>  <r_i_glide_ligand_efficiency>  (47) 
-0.13521

>  <r_i_glide_ligand_efficiency_sa>  (47) 
-0.378863

>  <r_i_glide_ligand_efficiency_ln>  (47) 
-0.727105

>  <r_i_glide_gscore>  (47) 
-2.97462

>  <r_i_glide_lipo>  (47) 
-0.949537

>  <r_i_glide_hbond>  (47) 
0

>  <r_i_glide_metal>  (47) 
-0

>  <r_i_glide_rewards>  (47) 
-1.40188

>  <r_i_glide_evdw>  (47) 
-24.0146

>  <r_i_glide_ecoul>  (47) 
-0.351078

>  <r_i_glide_erotb>  (47) 
0.633048

>  <r_i_glide_esite>  (47) 
-0.00285262

>  <r_i_glide_emodel>  (47) 
-28.2052

>  <r_i_glide_energy>  (47) 
-24.3657

>  <r_i_glide_einternal>  (47) 
1.18437

>  <r_i_glide_intrahb_reward>  (47) 
-0

>  <i_i_glide_confnum>  (47) 
3

>  <i_i_glide_posenum>  (47) 
23

>  <r_i_glide_eff_state_penalty>  (47) 
0

>  <ligand_id>  (47) 
16

>  <original_smiles>  (47) 
CC=CC12OCc3cccc4c3C13CCN(CC1CC1)N4C23

>  <smiles>  (47) 
[H]C(=C([H])C12OC([H])([H])c3c([H])c([H])c([H])c4c3C13C([H])([H])C([H])([H])N(C([H])([H])C1([H])C([H])([H])C1([H])[H])N4C23[H])C([H])([H])[H]

$$$$
16:1:1
     RDKit          3D

 44 49  0  0  1  0  0  0  0  0999 V2000
    3.8203    0.2123   -4.0763 C   0  0  0  0  0  0  0  0  0  0  0  0
    4.1996   -1.1072   -3.4294 C   0  0  0  0  0  0  0  0  0  0  0  0
    4.9631   -1.2544   -2.3258 C   0  0  0  0  0  0  0  0  0  0  0  0
    5.3028   -2.5531   -1.6785 C   0  0  1  0  0  0  0  0  0  0  0  0
    6.6878   -2.8978   -1.9026 O   0  0  0  0  0  0  0  0  0  0  0  0
    7.6358   -2.7373   -0.8019 C   0  0  0  0  0  0  0  0  0  0  0  0
    7.2714   -3.5946    0.4057 C   0  0  0  0  0  0  0  0  0  0  0  0
    7.9281   -4.7148    0.9494 C   0  0  0  0  0  0  0  0  0  0  0  0
    7.1450   -5.8092    1.4376 C   0  0  0  0  0  0  0  0  0  0  0  0
    5.7474   -5.8542    1.1843 C   0  0  0  0  0  0  0  0  0  0  0  0
    5.1232   -4.7465    0.5914 C   0  0  0  0  0  0  0  0  0  0  0  0
    5.8905   -3.6223    0.4201 C   0  0  0  0  0  0  0  0  0  0  0  0
    5.0094   -2.7113   -0.3024 C   0  0  1  0  0  0  0  0  0  0  0  0
    4.0436   -1.9044    0.5569 C   0  0  0  0  0  0  0  0  0  0  0  0
    3.1946   -2.8680    1.4122 C   0  0  0  0  0  0  0  0  0  0  0  0
    2.7454   -4.0896    0.6928 N   0  0  0  0  0  0  0  0  0  0  0  0
    2.2920   -5.1549    1.6050 C   0  0  0  0  0  0  0  0  0  0  0  0
    1.6239   -6.3249    0.9231 C   0  0  0  0  0  0  0  0  0  0  0  0
    0.3765   -6.9415    1.5188 C   0  0  0  0  0  0  0  0  0  0  0  0
    1.6767   -7.7001    1.5519 C   0  0  0  0  0  0  0  0  0  0  0  0
    3.8906   -4.5620   -0.0510 N   0  0  0  0  0  0  0  0  0  0  0  0
    4.2292   -3.6538   -1.2084 C   0  0  2  0  0  0  0  0  0  0  0  0
    4.1832    0.2478   -5.1049 H   0  0  0  0  0  0  0  0  0  0  0  0
    4.2143    1.0748   -3.5378 H   0  0  0  0  0  0  0  0  0  0  0  0
    2.7317    0.3034   -4.1018 H   0  0  0  0  0  0  0  0  0  0  0  0
    3.8205   -1.9978   -3.8967 H   0  0  0  0  0  0  0  0  0  0  0  0
    5.3588   -0.3793   -1.8398 H   0  0  0  0  0  0  0  0  0  0  0  0
    8.6030   -3.0635   -1.1648 H   0  0  0  0  0  0  0  0  0  0  0  0
    7.7358   -1.7113   -0.4573 H   0  0  0  0  0  0  0  0  0  0  0  0
    9.0060   -4.8028    0.9570 H   0  0  0  0  0  0  0  0  0  0  0  0
    7.6296   -6.6385    1.9273 H   0  0  0  0  0  0  0  0  0  0  0  0
    5.1799   -6.7470    1.4247 H   0  0  0  0  0  0  0  0  0  0  0  0
    4.5577   -1.1463    1.1541 H   0  0  0  0  0  0  0  0  0  0  0  0
    3.3548   -1.4110   -0.1250 H   0  0  0  0  0  0  0  0  0  0  0  0
    3.7890   -3.1815    2.2647 H   0  0  0  0  0  0  0  0  0  0  0  0
    2.3246   -2.3549    1.8141 H   0  0  0  0  0  0  0  0  0  0  0  0
    3.1140   -5.5039    2.2314 H   0  0  0  0  0  0  0  0  0  0  0  0
    1.5542   -4.7262    2.2802 H   0  0  0  0  0  0  0  0  0  0  0  0
    1.6494   -6.2578   -0.1581 H   0  0  0  0  0  0  0  0  0  0  0  0
    0.0118   -6.5379    2.4621 H   0  0  0  0  0  0  0  0  0  0  0  0
   -0.3893   -7.2907    0.8274 H   0  0  0  0  0  0  0  0  0  0  0  0
    1.7898   -8.5511    0.8792 H   0  0  0  0  0  0  0  0  0  0  0  0
    2.1974   -7.7891    2.5022 H   0  0  0  0  0  0  0  0  0  0  0  0
    3.2602   -3.3919   -1.6191 H   0  0  0  0  0  0  0  0  0  0  0  0
  1  2  1  0
  1 23  1  0
  1 24  1  0
  1 25  1  0
  2  3  2  3
  2 26  1  0
  3  4  1  0
  3 27  1  0
  4 13  1  0
  4 22  1  0
  4  5  1  1
  5  6  1  0
  6  7  1  0
  6 28  1  0
  6 29  1  0
  7 12  2  0
  7  8  1  0
  8  9  2  0
  8 30  1  0
  9 10  1  0
  9 31  1  0
 10 11  2  0
 10 32  1  0
 11 21  1  0
 11 12  1  0
 12 13  1  0
 13 22  1  0
 13 14  1  1
 14 15  1  0
 14 33  1  0
 14 34  1  0
 15 16  1  0
 15 35  1  0
 15 36  1  0
 16 17  1  0
 16 21  1  0
 17 18  1  0
 17 37  1  0
 17 38  1  0
 18 20  1  0
 18 19  1  0
 18 39  1  0
 19 20  1  0
 19 40  1  0
 19 41  1  0
 20 42  1  0
 20 43  1  0
 21 22  1  0
 22 44  1  6
M  END
>  <i_m_ct_stereo_status>  (48) 
1

>  <s_m_source_file>  (48) 
/var/tmp/pbs.5076255.sched01/tmpnm8fzmj1/0q4giu30i.sdf

>  <i_m_source_file_index>  (48) 
25

>  <i_lp_mmshare_version>  (48) 
48012

>  <i_f3d_flags>  (48) 
0

>  <s_epik_input>  (48) 
W0NIM10vW0NIXT1bQ0hdXFtDQEBdMShbQ0BAXTIzNClbQ0BIXTROKE4oW0NIMl1bQ0gyXTMpW0NIMl1bQ0hdNVtDSDJdW0NIMl01KWM2YzJjKFtDSDJdTzEpW2NIXVtjSF1bY0hdNg==

>  <s_epik_cmdline>  (48) 
J2VwaWtfcHl0aG9uJywgJy1waHQnLCAnMi4wJywgJy1waCcsICc3LjAnLCAnLXRuJywgJzgnLCAnLW1hJywgJzIwMCcsICctaW1hZScsICc8aW5maWxlLm1hZT4nLCAnLW9tYWUnLCAnPG91dGZpbGUubWFlPic=

>  <r_epik_Ionization_Penalty>  (48) 
0.0493107

>  <r_epik_Ionization_Penalty_Charging>  (48) 
0

>  <r_epik_Ionization_Penalty_Neutral>  (48) 
0.0493107

>  <r_epik_State_Penalty>  (48) 
0.0421002

>  <r_epik_Charging_Adjusted_Penalty>  (48) 
0.0421002

>  <i_epik_Tot_Q>  (48) 
0

>  <i_epik_Tot_abs_Q>  (48) 
0

>  <s_lp_Force_Field>  (48) 
OPLS3e

>  <r_lp_Energy>  (48) 
145.239

>  <b_lp_Chiralities_Consistent>  (48) 
1

>  <s_lp_Variant>  (48) 
16:0-2

>  <s_i_glide_gridfile>  (48) 
pfpi4k_grid

>  <i_i_glide_lignum>  (48) 
25

>  <i_i_glide_rotatable_bonds>  (48) 
3

>  <r_i_docking_score>  (48) 
-2.93719

>  <r_i_glide_ligand_efficiency>  (48) 
-0.133509

>  <r_i_glide_ligand_efficiency_sa>  (48) 
-0.374097

>  <r_i_glide_ligand_efficiency_ln>  (48) 
-0.717957

>  <r_i_glide_gscore>  (48) 
-2.93719

>  <r_i_glide_lipo>  (48) 
-0.855442

>  <r_i_glide_hbond>  (48) 
0

>  <r_i_glide_metal>  (48) 
-0

>  <r_i_glide_rewards>  (48) 
-1.40188

>  <r_i_glide_evdw>  (48) 
-27.2091

>  <r_i_glide_ecoul>  (48) 
0.423494

>  <r_i_glide_erotb>  (48) 
0.633048

>  <r_i_glide_esite>  (48) 
-0.0159856

>  <r_i_glide_emodel>  (48) 
-30.6893

>  <r_i_glide_energy>  (48) 
-26.7856

>  <r_i_glide_einternal>  (48) 
0.949846

>  <r_i_glide_intrahb_reward>  (48) 
-0

>  <i_i_glide_confnum>  (48) 
3

>  <i_i_glide_posenum>  (48) 
10

>  <r_i_glide_eff_state_penalty>  (48) 
0

>  <ligand_id>  (48) 
16

>  <original_smiles>  (48) 
CC=CC12OCc3cccc4c3C13CCN(CC1CC1)N4C23

>  <smiles>  (48) 
[H]C(=C([H])C12OC([H])([H])c3c([H])c([H])c([H])c4c3C13C([H])([H])C([H])([H])N(C([H])([H])C1([H])C([H])([H])C1([H])[H])N4C23[H])C([H])([H])[H]

$$$$
16:1:2
     RDKit          3D

 44 49  0  0  1  0  0  0  0  0999 V2000
    3.7505   -0.0705   -3.6886 C   0  0  0  0  0  0  0  0  0  0  0  0
    4.2871   -1.3591   -3.0942 C   0  0  0  0  0  0  0  0  0  0  0  0
    5.0544   -1.4587   -1.9879 C   0  0  0  0  0  0  0  0  0  0  0  0
    5.5523   -2.7316   -1.3964 C   0  0  1  0  0  0  0  0  0  0  0  0
    6.9798   -2.8571   -1.5847 O   0  0  0  0  0  0  0  0  0  0  0  0
    7.8582   -2.6235   -0.4415 C   0  0  0  0  0  0  0  0  0  0  0  0
    7.5839   -3.5946    0.7045 C   0  0  0  0  0  0  0  0  0  0  0  0
    8.3753   -4.6392    1.2159 C   0  0  0  0  0  0  0  0  0  0  0  0
    7.7436   -5.8603    1.6198 C   0  0  0  0  0  0  0  0  0  0  0  0
    6.3744   -6.0828    1.3160 C   0  0  0  0  0  0  0  0  0  0  0  0
    5.6150   -5.0420    0.7667 C   0  0  0  0  0  0  0  0  0  0  0  0
    6.2221   -3.8120    0.6739 C   0  0  0  0  0  0  0  0  0  0  0  0
    5.2452   -2.9989   -0.0378 C   0  0  1  0  0  0  0  0  0  0  0  0
    4.1459   -2.3851    0.8189 C   0  0  0  0  0  0  0  0  0  0  0  0
    3.4073   -3.5029    1.5844 C   0  0  0  0  0  0  0  0  0  0  0  0
    3.1718   -4.7481    0.7989 N   0  0  0  0  0  0  0  0  0  0  0  0
    2.8491   -5.9184    1.6366 C   0  0  0  0  0  0  0  0  0  0  0  0
    1.3664   -5.9868    1.9190 C   0  0  0  0  0  0  0  0  0  0  0  0
    0.6917   -7.2822    2.2927 C   0  0  0  0  0  0  0  0  0  0  0  0
    0.4557   -6.6769    0.9325 C   0  0  0  0  0  0  0  0  0  0  0  0
    4.3938   -5.0055    0.0824 N   0  0  0  0  0  0  0  0  0  0  0  0
    4.6374   -3.9964   -1.0162 C   0  0  2  0  0  0  0  0  0  0  0  0
    4.1036    0.0532   -4.7136 H   0  0  0  0  0  0  0  0  0  0  0  0
    4.0382    0.8135   -3.1201 H   0  0  0  0  0  0  0  0  0  0  0  0
    2.6597   -0.1141   -3.7155 H   0  0  0  0  0  0  0  0  0  0  0  0
    4.0253   -2.2688   -3.6017 H   0  0  0  0  0  0  0  0  0  0  0  0
    5.3315   -0.5632   -1.4569 H   0  0  0  0  0  0  0  0  0  0  0  0
    8.8728   -2.7916   -0.7802 H   0  0  0  0  0  0  0  0  0  0  0  0
    7.8011   -1.6101   -0.0489 H   0  0  0  0  0  0  0  0  0  0  0  0
    9.4502   -4.5668    1.2733 H   0  0  0  0  0  0  0  0  0  0  0  0
    8.3288   -6.6383    2.0816 H   0  0  0  0  0  0  0  0  0  0  0  0
    5.9312   -7.0590    1.4863 H   0  0  0  0  0  0  0  0  0  0  0  0
    4.5290   -1.5982    1.4774 H   0  0  0  0  0  0  0  0  0  0  0  0
    3.4228   -1.9518    0.1322 H   0  0  0  0  0  0  0  0  0  0  0  0
    4.0203   -3.7647    2.4394 H   0  0  0  0  0  0  0  0  0  0  0  0
    2.4655   -3.1352    1.9835 H   0  0  0  0  0  0  0  0  0  0  0  0
    3.1528   -6.8497    1.1565 H   0  0  0  0  0  0  0  0  0  0  0  0
    3.3763   -5.8550    2.5933 H   0  0  0  0  0  0  0  0  0  0  0  0
    0.9804   -5.0977    2.4040 H   0  0  0  0  0  0  0  0  0  0  0  0
    1.3364   -8.1546    2.3694 H   0  0  0  0  0  0  0  0  0  0  0  0
   -0.1258   -7.2316    3.0113 H   0  0  0  0  0  0  0  0  0  0  0  0
   -0.5276   -6.2575    0.7341 H   0  0  0  0  0  0  0  0  0  0  0  0
    0.9421   -7.1389    0.0792 H   0  0  0  0  0  0  0  0  0  0  0  0
    3.6544   -3.8547   -1.4499 H   0  0  0  0  0  0  0  0  0  0  0  0
  1  2  1  0
  1 23  1  0
  1 24  1  0
  1 25  1  0
  2  3  2  3
  2 26  1  0
  3  4  1  0
  3 27  1  0
  4 13  1  0
  4 22  1  0
  4  5  1  1
  5  6  1  0
  6  7  1  0
  6 28  1  0
  6 29  1  0
  7 12  2  0
  7  8  1  0
  8  9  2  0
  8 30  1  0
  9 10  1  0
  9 31  1  0
 10 11  2  0
 10 32  1  0
 11 21  1  0
 11 12  1  0
 12 13  1  0
 13 22  1  0
 13 14  1  1
 14 15  1  0
 14 33  1  0
 14 34  1  0
 15 16  1  0
 15 35  1  0
 15 36  1  0
 16 17  1  0
 16 21  1  0
 17 18  1  0
 17 37  1  0
 17 38  1  0
 18 20  1  0
 18 19  1  0
 18 39  1  0
 19 20  1  0
 19 40  1  0
 19 41  1  0
 20 42  1  0
 20 43  1  0
 21 22  1  0
 22 44  1  6
M  END
>  <i_m_ct_stereo_status>  (49) 
1

>  <s_m_source_file>  (49) 
/var/tmp/pbs.5076255.sched01/tmpnm8fzmj1/0q4giu30i.sdf

>  <i_m_source_file_index>  (49) 
25

>  <i_lp_mmshare_version>  (49) 
48012

>  <i_f3d_flags>  (49) 
0

>  <s_epik_input>  (49) 
W0NIM10vW0NIXT1bQ0hdXFtDQEBdMShbQ0BAXTIzNClbQ0BIXTROKE4oW0NIMl1bQ0gyXTMpW0NIMl1bQ0hdNVtDSDJdW0NIMl01KWM2YzJjKFtDSDJdTzEpW2NIXVtjSF1bY0hdNg==

>  <s_epik_cmdline>  (49) 
J2VwaWtfcHl0aG9uJywgJy1waHQnLCAnMi4wJywgJy1waCcsICc3LjAnLCAnLXRuJywgJzgnLCAnLW1hJywgJzIwMCcsICctaW1hZScsICc8aW5maWxlLm1hZT4nLCAnLW9tYWUnLCAnPG91dGZpbGUubWFlPic=

>  <r_epik_Ionization_Penalty>  (49) 
0.0493107

>  <r_epik_Ionization_Penalty_Charging>  (49) 
0

>  <r_epik_Ionization_Penalty_Neutral>  (49) 
0.0493107

>  <r_epik_State_Penalty>  (49) 
0.0421002

>  <r_epik_Charging_Adjusted_Penalty>  (49) 
0.0421002

>  <i_epik_Tot_Q>  (49) 
0

>  <i_epik_Tot_abs_Q>  (49) 
0

>  <s_lp_Force_Field>  (49) 
OPLS3e

>  <r_lp_Energy>  (49) 
145.239

>  <b_lp_Chiralities_Consistent>  (49) 
1

>  <s_lp_Variant>  (49) 
16:0-2

>  <s_i_glide_gridfile>  (49) 
pfpi4k_grid

>  <i_i_glide_lignum>  (49) 
25

>  <i_i_glide_rotatable_bonds>  (49) 
3

>  <r_i_docking_score>  (49) 
-2.78066

>  <r_i_glide_ligand_efficiency>  (49) 
-0.126393

>  <r_i_glide_ligand_efficiency_sa>  (49) 
-0.35416

>  <r_i_glide_ligand_efficiency_ln>  (49) 
-0.679694

>  <r_i_glide_gscore>  (49) 
-2.78066

>  <r_i_glide_lipo>  (49) 
-0.659015

>  <r_i_glide_hbond>  (49) 
-0.0235594

>  <r_i_glide_metal>  (49) 
-0

>  <r_i_glide_rewards>  (49) 
-1.40188

>  <r_i_glide_evdw>  (49) 
-26.225

>  <r_i_glide_ecoul>  (49) 
-0.110103

>  <r_i_glide_erotb>  (49) 
0.633048

>  <r_i_glide_esite>  (49) 
-0.00148413

>  <r_i_glide_emodel>  (49) 
-28.5786

>  <r_i_glide_energy>  (49) 
-26.3351

>  <r_i_glide_einternal>  (49) 
3.36857

>  <r_i_glide_intrahb_reward>  (49) 
-0

>  <i_i_glide_confnum>  (49) 
5

>  <i_i_glide_posenum>  (49) 
21

>  <r_i_glide_eff_state_penalty>  (49) 
0

>  <ligand_id>  (49) 
16

>  <original_smiles>  (49) 
CC=CC12OCc3cccc4c3C13CCN(CC1CC1)N4C23

>  <smiles>  (49) 
[H]C(=C([H])C12OC([H])([H])c3c([H])c([H])c([H])c4c3C13C([H])([H])C([H])([H])N(C([H])([H])C1([H])C([H])([H])C1([H])[H])N4C23[H])C([H])([H])[H]

$$$$
16:2:0
     RDKit          3D

 45 50  0  0  1  0  0  0  0  0999 V2000
    2.2703   -5.1665    2.8286 C   0  0  0  0  0  0  0  0  0  0  0  0
    1.6954   -3.7577    2.9102 C   0  0  0  0  0  0  0  0  0  0  0  0
    2.2151   -2.6209    2.3833 C   0  0  0  0  0  0  0  0  0  0  0  0
    3.4965   -2.4292    1.6014 C   0  0  1  0  0  0  0  0  0  0  0  0
    4.6918   -2.6859    2.3818 O   0  0  0  0  0  0  0  0  0  0  0  0
    5.4181   -3.9353    2.1420 C   0  0  0  0  0  0  0  0  0  0  0  0
    5.8704   -4.0674    0.7145 C   0  0  0  0  0  0  0  0  0  0  0  0
    7.1947   -4.1194    0.2425 C   0  0  0  0  0  0  0  0  0  0  0  0
    7.5446   -3.4232   -0.9195 C   0  0  0  0  0  0  0  0  0  0  0  0
    6.6078   -2.5081   -1.5068 C   0  0  0  0  0  0  0  0  0  0  0  0
    5.3082   -2.4378   -0.9944 C   0  0  0  0  0  0  0  0  0  0  0  0
    4.9520   -3.3777   -0.0732 C   0  0  0  0  0  0  0  0  0  0  0  0
    3.6097   -2.9965    0.3098 C   0  0  1  0  0  0  0  0  0  0  0  0
    2.5114   -3.5245   -0.5944 C   0  0  0  0  0  0  0  0  0  0  0  0
    2.7443   -3.1105   -2.0602 C   0  0  0  0  0  0  0  0  0  0  0  0
    3.3006   -1.7289   -2.1835 N   0  0  2  0  0  0  0  0  0  0  0  0
    3.7979   -1.4645   -3.5637 C   0  0  0  0  0  0  0  0  0  0  0  0
    3.4843   -0.0596   -4.0008 C   0  0  0  0  0  0  0  0  0  0  0  0
    2.2208    0.2220   -4.7934 C   0  0  0  0  0  0  0  0  0  0  0  0
    3.5546    0.3286   -5.4595 C   0  0  0  0  0  0  0  0  0  0  0  0
    4.3123   -1.4343   -1.0595 N   0  0  0  0  0  0  0  0  0  0  0  0
    3.6147   -1.4847    0.2838 C   0  0  2  0  0  0  0  0  0  0  0  0
    1.5099   -5.9051    2.5657 H   0  0  0  0  0  0  0  0  0  0  0  0
    2.6978   -5.4594    3.8002 H   0  0  0  0  0  0  0  0  0  0  0  0
    3.0199   -5.2173    2.0402 H   0  0  0  0  0  0  0  0  0  0  0  0
    0.7777   -3.6722    3.4574 H   0  0  0  0  0  0  0  0  0  0  0  0
    1.6178   -1.7122    2.5177 H   0  0  0  0  0  0  0  0  0  0  0  0
    6.2664   -3.8814    2.8061 H   0  0  0  0  0  0  0  0  0  0  0  0
    4.9611   -4.8840    2.4001 H   0  0  0  0  0  0  0  0  0  0  0  0
    7.9613   -4.6174    0.8265 H   0  0  0  0  0  0  0  0  0  0  0  0
    8.5366   -3.4747   -1.3305 H   0  0  0  0  0  0  0  0  0  0  0  0
    6.9578   -1.8429   -2.2667 H   0  0  0  0  0  0  0  0  0  0  0  0
    2.3763   -4.5993   -0.4925 H   0  0  0  0  0  0  0  0  0  0  0  0
    1.5906   -3.0532   -0.3055 H   0  0  0  0  0  0  0  0  0  0  0  0
    3.4094   -3.8436   -2.5092 H   0  0  0  0  0  0  0  0  0  0  0  0
    1.8157   -3.1685   -2.6192 H   0  0  0  0  0  0  0  0  0  0  0  0
    4.8664   -1.6489   -3.6626 H   0  0  0  0  0  0  0  0  0  0  0  0
    3.3282   -2.1327   -4.2835 H   0  0  0  0  0  0  0  0  0  0  0  0
    3.8330    0.7045   -3.3138 H   0  0  0  0  0  0  0  0  0  0  0  0
    1.6053   -0.6093   -5.1295 H   0  0  0  0  0  0  0  0  0  0  0  0
    1.6897    1.1522   -4.6110 H   0  0  0  0  0  0  0  0  0  0  0  0
    3.8934    1.3314   -5.6928 H   0  0  0  0  0  0  0  0  0  0  0  0
    3.7954   -0.4421   -6.1865 H   0  0  0  0  0  0  0  0  0  0  0  0
    2.6955   -0.9200    0.1321 H   0  0  0  0  0  0  0  0  0  0  0  0
    2.4919   -1.1164   -2.0466 H   0  0  0  0  0  0  0  0  0  0  0  0
  1  2  1  0
  1 23  1  0
  1 24  1  0
  1 25  1  0
  2  3  2  3
  2 26  1  0
  3  4  1  0
  3 27  1  0
  4 13  1  0
  4 22  1  0
  4  5  1  1
  5  6  1  0
  6  7  1  0
  6 28  1  0
  6 29  1  0
  7 12  2  0
  7  8  1  0
  8  9  2  0
  8 30  1  0
  9 10  1  0
  9 31  1  0
 10 11  2  0
 10 32  1  0
 11 21  1  0
 11 12  1  0
 12 13  1  0
 13 22  1  0
 13 14  1  6
 14 15  1  0
 14 33  1  0
 14 34  1  0
 15 16  1  0
 15 35  1  0
 15 36  1  0
 16 17  1  0
 16 21  1  0
 16 45  1  1
 17 18  1  0
 17 37  1  0
 17 38  1  0
 18 20  1  0
 18 19  1  0
 18 39  1  0
 19 20  1  0
 19 40  1  0
 19 41  1  0
 20 42  1  0
 20 43  1  0
 21 22  1  0
 22 44  1  6
M  CHG  1  16   1
M  END
>  <i_m_ct_stereo_status>  (50) 
1

>  <s_m_source_file>  (50) 
/var/tmp/pbs.5076255.sched01/tmpnm8fzmj1/0q4giu30i.sdf

>  <i_m_source_file_index>  (50) 
26

>  <i_lp_mmshare_version>  (50) 
48012

>  <i_f3d_flags>  (50) 
0

>  <s_epik_input>  (50) 
W0NIM10vW0NIXT1bQ0hdXFtDQEBdMShbQ0BAXTIzNClbQ0BIXTROKE4oW0NIMl1bQ0gyXTMpW0NIMl1bQ0hdNVtDSDJdW0NIMl01KWM2YzJjKFtDSDJdTzEpW2NIXVtjSF1bY0hdNg==

>  <s_epik_cmdline>  (50) 
J2VwaWtfcHl0aG9uJywgJy1waHQnLCAnMi4wJywgJy1waCcsICc3LjAnLCAnLXRuJywgJzgnLCAnLW1hJywgJzIwMCcsICctaW1hZScsICc8aW5maWxlLm1hZT4nLCAnLW9tYWUnLCAnPG91dGZpbGUubWFlPic=

>  <r_epik_Ionization_Penalty>  (50) 
1.49766

>  <r_epik_Ionization_Penalty_Charging>  (50) 
1.49766

>  <r_epik_Ionization_Penalty_Neutral>  (50) 
3.12938e-12

>  <r_epik_State_Penalty>  (50) 
1.58762

>  <r_epik_Charging_Adjusted_Penalty>  (50) 
3.08528

>  <i_epik_Tot_Q>  (50) 
1

>  <i_epik_Tot_abs_Q>  (50) 
1

>  <s_lp_Force_Field>  (50) 
OPLS3e

>  <r_lp_Energy>  (50) 
140.358

>  <b_lp_Chiralities_Consistent>  (50) 
1

>  <s_lp_Variant>  (50) 
16:0-3

>  <s_i_glide_gridfile>  (50) 
pfpi4k_grid

>  <i_i_glide_lignum>  (50) 
26

>  <i_i_glide_rotatable_bonds>  (50) 
3

>  <r_i_docking_score>  (50) 
-3.7697

>  <r_i_glide_ligand_efficiency>  (50) 
-0.17135

>  <r_i_glide_ligand_efficiency_sa>  (50) 
-0.480129

>  <r_i_glide_ligand_efficiency_ln>  (50) 
-0.921452

>  <r_i_glide_gscore>  (50) 
-3.7697

>  <r_i_glide_lipo>  (50) 
-0.929099

>  <r_i_glide_hbond>  (50) 
-0.118464

>  <r_i_glide_metal>  (50) 
-0

>  <r_i_glide_rewards>  (50) 
-1.43668

>  <r_i_glide_evdw>  (50) 
-23.3172

>  <r_i_glide_ecoul>  (50) 
-4.23195

>  <r_i_glide_erotb>  (50) 
0.629279

>  <r_i_glide_esite>  (50) 
-0.114087

>  <r_i_glide_emodel>  (50) 
-33.8684

>  <r_i_glide_energy>  (50) 
-27.5492

>  <r_i_glide_einternal>  (50) 
2.86947

>  <r_i_glide_intrahb_reward>  (50) 
-0

>  <i_i_glide_confnum>  (50) 
4

>  <i_i_glide_posenum>  (50) 
26

>  <r_i_glide_eff_state_penalty>  (50) 
0

>  <ligand_id>  (50) 
16

>  <original_smiles>  (50) 
CC=CC12OCc3cccc4c3C13CCN(CC1CC1)N4C23

>  <smiles>  (50) 
[H]C(=C([H])C12OC([H])([H])c3c([H])c([H])c([H])c4c3C13C([H])([H])C([H])([H])[N+]([H])(C([H])([H])C1([H])C([H])([H])C1([H])[H])N4C23[H])C([H])([H])[H]

$$$$
16:2:1
     RDKit          3D

 45 50  0  0  1  0  0  0  0  0999 V2000
    3.6832   -2.6314   -1.1923 C   0  0  0  0  0  0  0  0  0  0  0  0
    4.3703   -2.2409    0.0924 C   0  0  0  0  0  0  0  0  0  0  0  0
    5.0260   -3.1025    0.8918 C   0  0  0  0  0  0  0  0  0  0  0  0
    5.1671   -4.5691    0.7006 C   0  0  1  0  0  0  0  0  0  0  0  0
    6.4883   -4.9274    0.2616 O   0  0  0  0  0  0  0  0  0  0  0  0
    7.4070   -5.4476    1.2652 C   0  0  0  0  0  0  0  0  0  0  0  0
    6.9243   -6.7522    1.8783 C   0  0  0  0  0  0  0  0  0  0  0  0
    7.4245   -8.0582    1.7090 C   0  0  0  0  0  0  0  0  0  0  0  0
    6.5329   -9.1524    1.5577 C   0  0  0  0  0  0  0  0  0  0  0  0
    5.1443   -8.9233    1.3398 C   0  0  0  0  0  0  0  0  0  0  0  0
    4.6723   -7.5966    1.4296 C   0  0  0  0  0  0  0  0  0  0  0  0
    5.5278   -6.6587    1.8977 C   0  0  0  0  0  0  0  0  0  0  0  0
    4.7925   -5.4099    1.7942 C   0  0  1  0  0  0  0  0  0  0  0  0
    3.8967   -5.1022    2.9754 C   0  0  0  0  0  0  0  0  0  0  0  0
    2.9365   -6.2814    3.2572 C   0  0  0  0  0  0  0  0  0  0  0  0
    2.4392   -6.9298    2.0019 N   0  0  2  0  0  0  0  0  0  0  0  0
    1.7481   -8.2205    2.2553 C   0  0  0  0  0  0  0  0  0  0  0  0
    0.3905   -8.0010    2.9093 C   0  0  0  0  0  0  0  0  0  0  0  0
   -0.6770   -9.0699    2.8686 C   0  0  0  0  0  0  0  0  0  0  0  0
   -0.8487   -7.7976    2.0753 C   0  0  0  0  0  0  0  0  0  0  0  0
    3.5135   -6.9773    0.9278 N   0  0  0  0  0  0  0  0  0  0  0  0
    3.9501   -5.5892    0.5384 C   0  0  2  0  0  0  0  0  0  0  0  0
    4.0618   -2.0164   -2.0066 H   0  0  0  0  0  0  0  0  0  0  0  0
    2.6083   -2.4787   -1.1022 H   0  0  0  0  0  0  0  0  0  0  0  0
    3.8670   -3.6749   -1.4514 H   0  0  0  0  0  0  0  0  0  0  0  0
    4.3165   -1.1942    0.3698 H   0  0  0  0  0  0  0  0  0  0  0  0
    5.4858   -2.7091    1.7850 H   0  0  0  0  0  0  0  0  0  0  0  0
    8.3453   -5.6413    0.7527 H   0  0  0  0  0  0  0  0  0  0  0  0
    7.6116   -4.7416    2.0672 H   0  0  0  0  0  0  0  0  0  0  0  0
    8.4916   -8.2198    1.6142 H   0  0  0  0  0  0  0  0  0  0  0  0
    6.9243  -10.1592    1.4871 H   0  0  0  0  0  0  0  0  0  0  0  0
    4.5082   -9.7478    1.0508 H   0  0  0  0  0  0  0  0  0  0  0  0
    4.4813   -4.8533    3.8664 H   0  0  0  0  0  0  0  0  0  0  0  0
    3.2983   -4.2299    2.7232 H   0  0  0  0  0  0  0  0  0  0  0  0
    3.4528   -7.0058    3.8785 H   0  0  0  0  0  0  0  0  0  0  0  0
    2.1060   -5.9164    3.8496 H   0  0  0  0  0  0  0  0  0  0  0  0
    1.5887   -8.7496    1.3191 H   0  0  0  0  0  0  0  0  0  0  0  0
    2.3377   -8.8810    2.8855 H   0  0  0  0  0  0  0  0  0  0  0  0
    0.4193   -7.4672    3.8545 H   0  0  0  0  0  0  0  0  0  0  0  0
   -0.4597   -9.9872    2.3264 H   0  0  0  0  0  0  0  0  0  0  0  0
   -1.3150   -9.1848    3.7411 H   0  0  0  0  0  0  0  0  0  0  0  0
   -1.5896   -7.0897    2.4350 H   0  0  0  0  0  0  0  0  0  0  0  0
   -0.7360   -7.8552    0.9945 H   0  0  0  0  0  0  0  0  0  0  0  0
    3.0248   -5.0446    0.4225 H   0  0  0  0  0  0  0  0  0  0  0  0
    1.7143   -6.3399    1.6348 H   0  0  0  0  0  0  0  0  0  0  0  0
  1  2  1  0
  1 23  1  0
  1 24  1  0
  1 25  1  0
  2  3  2  3
  2 26  1  0
  3  4  1  0
  3 27  1  0
  4 13  1  0
  4 22  1  0
  4  5  1  6
  5  6  1  0
  6  7  1  0
  6 28  1  0
  6 29  1  0
  7 12  2  0
  7  8  1  0
  8  9  2  0
  8 30  1  0
  9 10  1  0
  9 31  1  0
 10 11  2  0
 10 32  1  0
 11 21  1  0
 11 12  1  0
 12 13  1  0
 13 22  1  0
 13 14  1  1
 14 15  1  0
 14 33  1  0
 14 34  1  0
 15 16  1  0
 15 35  1  0
 15 36  1  0
 16 17  1  0
 16 21  1  0
 16 45  1  6
 17 18  1  0
 17 37  1  0
 17 38  1  0
 18 20  1  0
 18 19  1  0
 18 39  1  0
 19 20  1  0
 19 40  1  0
 19 41  1  0
 20 42  1  0
 20 43  1  0
 21 22  1  0
 22 44  1  1
M  CHG  1  16   1
M  END
>  <i_m_ct_stereo_status>  (51) 
1

>  <s_m_source_file>  (51) 
/var/tmp/pbs.5076255.sched01/tmpnm8fzmj1/0q4giu30i.sdf

>  <i_m_source_file_index>  (51) 
26

>  <i_lp_mmshare_version>  (51) 
48012

>  <i_f3d_flags>  (51) 
0

>  <s_epik_input>  (51) 
W0NIM10vW0NIXT1bQ0hdXFtDQEBdMShbQ0BAXTIzNClbQ0BIXTROKE4oW0NIMl1bQ0gyXTMpW0NIMl1bQ0hdNVtDSDJdW0NIMl01KWM2YzJjKFtDSDJdTzEpW2NIXVtjSF1bY0hdNg==

>  <s_epik_cmdline>  (51) 
J2VwaWtfcHl0aG9uJywgJy1waHQnLCAnMi4wJywgJy1waCcsICc3LjAnLCAnLXRuJywgJzgnLCAnLW1hJywgJzIwMCcsICctaW1hZScsICc8aW5maWxlLm1hZT4nLCAnLW9tYWUnLCAnPG91dGZpbGUubWFlPic=

>  <r_epik_Ionization_Penalty>  (51) 
1.49766

>  <r_epik_Ionization_Penalty_Charging>  (51) 
1.49766

>  <r_epik_Ionization_Penalty_Neutral>  (51) 
3.12938e-12

>  <r_epik_State_Penalty>  (51) 
1.58762

>  <r_epik_Charging_Adjusted_Penalty>  (51) 
3.08528

>  <i_epik_Tot_Q>  (51) 
1

>  <i_epik_Tot_abs_Q>  (51) 
1

>  <s_lp_Force_Field>  (51) 
OPLS3e

>  <r_lp_Energy>  (51) 
140.358

>  <b_lp_Chiralities_Consistent>  (51) 
1

>  <s_lp_Variant>  (51) 
16:0-3

>  <s_i_glide_gridfile>  (51) 
pfpi4k_grid

>  <i_i_glide_lignum>  (51) 
26

>  <i_i_glide_rotatable_bonds>  (51) 
3

>  <r_i_docking_score>  (51) 
-2.99039

>  <r_i_glide_ligand_efficiency>  (51) 
-0.135927

>  <r_i_glide_ligand_efficiency_sa>  (51) 
-0.380872

>  <r_i_glide_ligand_efficiency_ln>  (51) 
-0.73096

>  <r_i_glide_gscore>  (51) 
-2.99039

>  <r_i_glide_lipo>  (51) 
-0.531964

>  <r_i_glide_hbond>  (51) 
0

>  <r_i_glide_metal>  (51) 
-0

>  <r_i_glide_rewards>  (51) 
-1.48501

>  <r_i_glide_evdw>  (51) 
-23.7018

>  <r_i_glide_ecoul>  (51) 
-2.73236

>  <r_i_glide_erotb>  (51) 
0.629279

>  <r_i_glide_esite>  (51) 
-0.00774905

>  <r_i_glide_emodel>  (51) 
-32.5062

>  <r_i_glide_energy>  (51) 
-26.4342

>  <r_i_glide_einternal>  (51) 
1.5403

>  <r_i_glide_intrahb_reward>  (51) 
-0

>  <i_i_glide_confnum>  (51) 
2

>  <i_i_glide_posenum>  (51) 
18

>  <r_i_glide_eff_state_penalty>  (51) 
0

>  <ligand_id>  (51) 
16

>  <original_smiles>  (51) 
CC=CC12OCc3cccc4c3C13CCN(CC1CC1)N4C23

>  <smiles>  (51) 
[H]C(=C([H])C12OC([H])([H])c3c([H])c([H])c([H])c4c3C13C([H])([H])C([H])([H])[N+]([H])(C([H])([H])C1([H])C([H])([H])C1([H])[H])N4C23[H])C([H])([H])[H]

$$$$
16:2:2
     RDKit          3D

 45 50  0  0  1  0  0  0  0  0999 V2000
   -3.5024    3.3839    2.8249 C   0  0  0  0  0  0  0  0  0  0  0  0
   -2.5750    4.5802    2.6457 C   0  0  0  0  0  0  0  0  0  0  0  0
   -1.3654    4.7962    3.2136 C   0  0  0  0  0  0  0  0  0  0  0  0
   -0.6269    3.8995    4.1639 C   0  0  1  0  0  0  0  0  0  0  0  0
   -1.0217    4.1324    5.5336 O   0  0  0  0  0  0  0  0  0  0  0  0
   -1.9485    3.1702    6.1055 C   0  0  0  0  0  0  0  0  0  0  0  0
   -1.3376    1.7745    6.1713 C   0  0  0  0  0  0  0  0  0  0  0  0
   -0.9645    1.0449    7.3146 C   0  0  0  0  0  0  0  0  0  0  0  0
    0.2463    0.2843    7.2885 C   0  0  0  0  0  0  0  0  0  0  0  0
    1.1626    0.4434    6.2249 C   0  0  0  0  0  0  0  0  0  0  0  0
    0.8084    1.2474    5.1270 C   0  0  0  0  0  0  0  0  0  0  0  0
   -0.4966    1.6676    5.0801 C   0  0  0  0  0  0  0  0  0  0  0  0
   -0.5457    2.5050    3.8900 C   0  0  1  0  0  0  0  0  0  0  0  0
   -0.7570    1.7685    2.5692 C   0  0  0  0  0  0  0  0  0  0  0  0
    0.2840    0.6750    2.3685 C   0  0  0  0  0  0  0  0  0  0  0  0
    1.6370    1.0861    2.8557 N   0  0  2  0  0  0  0  0  0  0  0  0
    2.5568   -0.0685    2.9247 C   0  0  0  0  0  0  0  0  0  0  0  0
    3.0763   -0.4421    1.5448 C   0  0  0  0  0  0  0  0  0  0  0  0
    3.9698   -1.6442    1.3653 C   0  0  0  0  0  0  0  0  0  0  0  0
    4.5329   -0.2598    1.1982 C   0  0  0  0  0  0  0  0  0  0  0  0
    1.5508    1.9237    4.1386 N   0  0  0  0  0  0  0  0  0  0  0  0
    0.7976    3.2047    3.8659 C   0  0  2  0  0  0  0  0  0  0  0  0
   -3.6745    2.8845    1.8691 H   0  0  0  0  0  0  0  0  0  0  0  0
   -4.4705    3.6932    3.2124 H   0  0  0  0  0  0  0  0  0  0  0  0
   -3.1304    2.6482    3.5283 H   0  0  0  0  0  0  0  0  0  0  0  0
   -2.9412    5.3409    1.9739 H   0  0  0  0  0  0  0  0  0  0  0  0
   -0.8454    5.7065    2.9292 H   0  0  0  0  0  0  0  0  0  0  0  0
   -2.1713    3.5063    7.1102 H   0  0  0  0  0  0  0  0  0  0  0  0
   -2.8971    3.1222    5.5846 H   0  0  0  0  0  0  0  0  0  0  0  0
   -1.5012    1.1277    8.2433 H   0  0  0  0  0  0  0  0  0  0  0  0
    0.5307   -0.3107    8.1403 H   0  0  0  0  0  0  0  0  0  0  0  0
    2.1601    0.0153    6.2877 H   0  0  0  0  0  0  0  0  0  0  0  0
   -1.7362    1.2946    2.4852 H   0  0  0  0  0  0  0  0  0  0  0  0
   -0.6469    2.5015    1.7744 H   0  0  0  0  0  0  0  0  0  0  0  0
   -0.0720   -0.2032    2.9020 H   0  0  0  0  0  0  0  0  0  0  0  0
    0.3021    0.4158    1.3152 H   0  0  0  0  0  0  0  0  0  0  0  0
    3.4055    0.1634    3.5689 H   0  0  0  0  0  0  0  0  0  0  0  0
    2.0654   -0.9394    3.3648 H   0  0  0  0  0  0  0  0  0  0  0  0
    2.3674   -0.2927    0.7295 H   0  0  0  0  0  0  0  0  0  0  0  0
    4.2543   -2.2086    2.2525 H   0  0  0  0  0  0  0  0  0  0  0  0
    3.8396   -2.2325    0.4586 H   0  0  0  0  0  0  0  0  0  0  0  0
    4.7563    0.0733    0.1868 H   0  0  0  0  0  0  0  0  0  0  0  0
    5.1937    0.1201    1.9760 H   0  0  0  0  0  0  0  0  0  0  0  0
    1.2128    3.5869    2.9326 H   0  0  0  0  0  0  0  0  0  0  0  0
    2.0198    1.6997    2.1443 H   0  0  0  0  0  0  0  0  0  0  0  0
  1  2  1  0
  1 23  1  0
  1 24  1  0
  1 25  1  0
  2  3  2  3
  2 26  1  0
  3  4  1  0
  3 27  1  0
  4 13  1  0
  4 22  1  0
  4  5  1  1
  5  6  1  0
  6  7  1  0
  6 28  1  0
  6 29  1  0
  7 12  2  0
  7  8  1  0
  8  9  2  0
  8 30  1  0
  9 10  1  0
  9 31  1  0
 10 11  2  0
 10 32  1  0
 11 21  1  0
 11 12  1  0
 12 13  1  0
 13 22  1  0
 13 14  1  6
 14 15  1  0
 14 33  1  0
 14 34  1  0
 15 16  1  0
 15 35  1  0
 15 36  1  0
 16 17  1  0
 16 21  1  0
 16 45  1  6
 17 18  1  0
 17 37  1  0
 17 38  1  0
 18 20  1  0
 18 19  1  0
 18 39  1  0
 19 20  1  0
 19 40  1  0
 19 41  1  0
 20 42  1  0
 20 43  1  0
 21 22  1  0
 22 44  1  6
M  CHG  1  16   1
M  END
>  <i_m_ct_stereo_status>  (52) 
1

>  <s_m_source_file>  (52) 
/var/tmp/pbs.5076255.sched01/tmpnm8fzmj1/0q4giu30i.sdf

>  <i_m_source_file_index>  (52) 
26

>  <i_lp_mmshare_version>  (52) 
48012

>  <i_f3d_flags>  (52) 
0

>  <s_epik_input>  (52) 
W0NIM10vW0NIXT1bQ0hdXFtDQEBdMShbQ0BAXTIzNClbQ0BIXTROKE4oW0NIMl1bQ0gyXTMpW0NIMl1bQ0hdNVtDSDJdW0NIMl01KWM2YzJjKFtDSDJdTzEpW2NIXVtjSF1bY0hdNg==

>  <s_epik_cmdline>  (52) 
J2VwaWtfcHl0aG9uJywgJy1waHQnLCAnMi4wJywgJy1waCcsICc3LjAnLCAnLXRuJywgJzgnLCAnLW1hJywgJzIwMCcsICctaW1hZScsICc8aW5maWxlLm1hZT4nLCAnLW9tYWUnLCAnPG91dGZpbGUubWFlPic=

>  <r_epik_Ionization_Penalty>  (52) 
1.49766

>  <r_epik_Ionization_Penalty_Charging>  (52) 
1.49766

>  <r_epik_Ionization_Penalty_Neutral>  (52) 
3.12938e-12

>  <r_epik_State_Penalty>  (52) 
1.58762

>  <r_epik_Charging_Adjusted_Penalty>  (52) 
3.08528

>  <i_epik_Tot_Q>  (52) 
1

>  <i_epik_Tot_abs_Q>  (52) 
1

>  <s_lp_Force_Field>  (52) 
OPLS3e

>  <r_lp_Energy>  (52) 
140.358

>  <b_lp_Chiralities_Consistent>  (52) 
1

>  <s_lp_Variant>  (52) 
16:0-3

>  <s_i_glide_gridfile>  (52) 
pfpi4k_grid

>  <i_i_glide_lignum>  (52) 
26

>  <i_i_glide_rotatable_bonds>  (52) 
3

>  <r_i_docking_score>  (52) 
-2.77974

>  <r_i_glide_ligand_efficiency>  (52) 
-0.126352

>  <r_i_glide_ligand_efficiency_sa>  (52) 
-0.354043

>  <r_i_glide_ligand_efficiency_ln>  (52) 
-0.67947

>  <r_i_glide_gscore>  (52) 
-2.77974

>  <r_i_glide_lipo>  (52) 
-0.179621

>  <r_i_glide_hbond>  (52) 
0

>  <r_i_glide_metal>  (52) 
-0

>  <r_i_glide_rewards>  (52) 
-1.39501

>  <r_i_glide_evdw>  (52) 
-22.5684

>  <r_i_glide_ecoul>  (52) 
-4.53812

>  <r_i_glide_erotb>  (52) 
0.629279

>  <r_i_glide_esite>  (52) 
-0.0252522

>  <r_i_glide_emodel>  (52) 
-31.5729

>  <r_i_glide_energy>  (52) 
-27.1065

>  <r_i_glide_einternal>  (52) 
2.73145

>  <r_i_glide_intrahb_reward>  (52) 
-0

>  <i_i_glide_confnum>  (52) 
4

>  <i_i_glide_posenum>  (52) 
2

>  <r_i_glide_eff_state_penalty>  (52) 
0

>  <ligand_id>  (52) 
16

>  <original_smiles>  (52) 
CC=CC12OCc3cccc4c3C13CCN(CC1CC1)N4C23

>  <smiles>  (52) 
[H]C(=C([H])C12OC([H])([H])c3c([H])c([H])c([H])c4c3C13C([H])([H])C([H])([H])[N+]([H])(C([H])([H])C1([H])C([H])([H])C1([H])[H])N4C23[H])C([H])([H])[H]

$$$$
16:3:0
     RDKit          3D

 45 50  0  0  1  0  0  0  0  0999 V2000
    3.3927    0.0425   -4.7176 C   0  0  0  0  0  0  0  0  0  0  0  0
    3.9956   -0.8149   -3.6186 C   0  0  0  0  0  0  0  0  0  0  0  0
    3.5652   -2.0511   -3.2808 C   0  0  0  0  0  0  0  0  0  0  0  0
    4.1313   -2.9059   -2.1799 C   0  0  1  0  0  0  0  0  0  0  0  0
    5.2594   -3.6806   -2.6159 O   0  0  0  0  0  0  0  0  0  0  0  0
    6.5726   -3.1759   -2.2360 C   0  0  0  0  0  0  0  0  0  0  0  0
    6.8002   -3.1223   -0.7248 C   0  0  0  0  0  0  0  0  0  0  0  0
    7.6598   -3.9279    0.0488 C   0  0  0  0  0  0  0  0  0  0  0  0
    7.1715   -4.4597    1.2854 C   0  0  0  0  0  0  0  0  0  0  0  0
    5.8082   -4.3491    1.6271 C   0  0  0  0  0  0  0  0  0  0  0  0
    4.9444   -3.6105    0.7950 C   0  0  0  0  0  0  0  0  0  0  0  0
    5.5541   -2.8848   -0.2008 C   0  0  0  0  0  0  0  0  0  0  0  0
    4.4319   -2.3161   -0.9250 C   0  0  1  0  0  0  0  0  0  0  0  0
    3.9338   -1.0156   -0.3495 C   0  0  0  0  0  0  0  0  0  0  0  0
    3.5422   -1.1612    1.1265 C   0  0  0  0  0  0  0  0  0  0  0  0
    2.9120   -2.4856    1.4310 N   0  0  2  0  0  0  0  0  0  0  0  0
    2.8316   -2.7482    2.8842 C   0  0  0  0  0  0  0  0  0  0  0  0
    1.7104   -1.9595    3.5462 C   0  0  0  0  0  0  0  0  0  0  0  0
    1.5552   -1.9563    5.0463 C   0  0  0  0  0  0  0  0  0  0  0  0
    0.5430   -2.6588    4.1893 C   0  0  0  0  0  0  0  0  0  0  0  0
    3.5538   -3.6087    0.6071 N   0  0  0  0  0  0  0  0  0  0  0  0
    3.3460   -3.3720   -0.8649 C   0  0  2  0  0  0  0  0  0  0  0  0
    3.0335    0.9872   -4.3174 H   0  0  0  0  0  0  0  0  0  0  0  0
    2.5374   -0.4483   -5.1726 H   0  0  0  0  0  0  0  0  0  0  0  0
    4.1171    0.2866   -5.4916 H   0  0  0  0  0  0  0  0  0  0  0  0
    4.8260   -0.3706   -3.0915 H   0  0  0  0  0  0  0  0  0  0  0  0
    2.7274   -2.4595   -3.8291 H   0  0  0  0  0  0  0  0  0  0  0  0
    7.2947   -3.8402   -2.6808 H   0  0  0  0  0  0  0  0  0  0  0  0
    6.7790   -2.1999   -2.6230 H   0  0  0  0  0  0  0  0  0  0  0  0
    8.6226   -4.2450   -0.3168 H   0  0  0  0  0  0  0  0  0  0  0  0
    7.8431   -5.0291    1.9103 H   0  0  0  0  0  0  0  0  0  0  0  0
    5.4235   -4.8831    2.4911 H   0  0  0  0  0  0  0  0  0  0  0  0
    4.6455   -0.2050   -0.4895 H   0  0  0  0  0  0  0  0  0  0  0  0
    3.0433   -0.7612   -0.9047 H   0  0  0  0  0  0  0  0  0  0  0  0
    4.4364   -1.0093    1.7263 H   0  0  0  0  0  0  0  0  0  0  0  0
    2.8690   -0.3546    1.3918 H   0  0  0  0  0  0  0  0  0  0  0  0
    2.6575   -3.8068    3.0734 H   0  0  0  0  0  0  0  0  0  0  0  0
    3.7709   -2.5153    3.3906 H   0  0  0  0  0  0  0  0  0  0  0  0
    1.4896   -0.9949    3.0934 H   0  0  0  0  0  0  0  0  0  0  0  0
    2.2333   -2.5676    5.6404 H   0  0  0  0  0  0  0  0  0  0  0  0
    1.2365   -1.0269    5.5159 H   0  0  0  0  0  0  0  0  0  0  0  0
   -0.4323   -2.1880    4.0792 H   0  0  0  0  0  0  0  0  0  0  0  0
    0.5363   -3.7484    4.1870 H   0  0  0  0  0  0  0  0  0  0  0  0
    2.3035   -3.0910   -0.9522 H   0  0  0  0  0  0  0  0  0  0  0  0
    1.9463   -2.4110    1.1197 H   0  0  0  0  0  0  0  0  0  0  0  0
  1  2  1  0
  1 23  1  0
  1 24  1  0
  1 25  1  0
  2  3  2  3
  2 26  1  0
  3  4  1  0
  3 27  1  0
  4 13  1  0
  4 22  1  0
  4  5  1  6
  5  6  1  0
  6  7  1  0
  6 28  1  0
  6 29  1  0
  7 12  2  0
  7  8  1  0
  8  9  2  0
  8 30  1  0
  9 10  1  0
  9 31  1  0
 10 11  2  0
 10 32  1  0
 11 21  1  0
 11 12  1  0
 12 13  1  0
 13 22  1  0
 13 14  1  6
 14 15  1  0
 14 33  1  0
 14 34  1  0
 15 16  1  0
 15 35  1  0
 15 36  1  0
 16 17  1  0
 16 21  1  0
 16 45  1  6
 17 18  1  0
 17 37  1  0
 17 38  1  0
 18 20  1  0
 18 19  1  0
 18 39  1  0
 19 20  1  0
 19 40  1  0
 19 41  1  0
 20 42  1  0
 20 43  1  0
 21 22  1  0
 22 44  1  6
M  CHG  1  16   1
M  END
>  <i_m_ct_stereo_status>  (53) 
1

>  <s_m_source_file>  (53) 
/var/tmp/pbs.5076255.sched01/tmpnm8fzmj1/0q4giu30i.sdf

>  <i_m_source_file_index>  (53) 
27

>  <i_lp_mmshare_version>  (53) 
48012

>  <i_f3d_flags>  (53) 
0

>  <s_epik_input>  (53) 
W0NIM10vW0NIXT1bQ0hdXFtDQEBdMShbQ0BAXTIzNClbQ0BIXTROKE4oW0NIMl1bQ0gyXTMpW0NIMl1bQ0hdNVtDSDJdW0NIMl01KWM2YzJjKFtDSDJdTzEpW2NIXVtjSF1bY0hdNg==

>  <s_epik_cmdline>  (53) 
J2VwaWtfcHl0aG9uJywgJy1waHQnLCAnMi4wJywgJy1waCcsICc3LjAnLCAnLXRuJywgJzgnLCAnLW1hJywgJzIwMCcsICctaW1hZScsICc8aW5maWxlLm1hZT4nLCAnLW9tYWUnLCAnPG91dGZpbGUubWFlPic=

>  <r_epik_Ionization_Penalty>  (53) 
1.49766

>  <r_epik_Ionization_Penalty_Charging>  (53) 
1.49766

>  <r_epik_Ionization_Penalty_Neutral>  (53) 
3.12938e-12

>  <r_epik_State_Penalty>  (53) 
1.58762

>  <r_epik_Charging_Adjusted_Penalty>  (53) 
3.08528

>  <i_epik_Tot_Q>  (53) 
1

>  <i_epik_Tot_abs_Q>  (53) 
1

>  <s_lp_Force_Field>  (53) 
OPLS3e

>  <r_lp_Energy>  (53) 
139.539

>  <b_lp_Chiralities_Consistent>  (53) 
1

>  <s_lp_Variant>  (53) 
16:0-4

>  <s_i_glide_gridfile>  (53) 
pfpi4k_grid

>  <i_i_glide_lignum>  (53) 
27

>  <i_i_glide_rotatable_bonds>  (53) 
3

>  <r_i_docking_score>  (53) 
-3.88384

>  <r_i_glide_ligand_efficiency>  (53) 
-0.176538

>  <r_i_glide_ligand_efficiency_sa>  (53) 
-0.494666

>  <r_i_glide_ligand_efficiency_ln>  (53) 
-0.949351

>  <r_i_glide_gscore>  (53) 
-3.88384

>  <r_i_glide_lipo>  (53) 
-1.20398

>  <r_i_glide_hbond>  (53) 
0

>  <r_i_glide_metal>  (53) 
-0

>  <r_i_glide_rewards>  (53) 
-1.39501

>  <r_i_glide_evdw>  (53) 
-25.3785

>  <r_i_glide_ecoul>  (53) 
-4.15999

>  <r_i_glide_erotb>  (53) 
0.629279

>  <r_i_glide_esite>  (53) 
-0.0212035

>  <r_i_glide_emodel>  (53) 
-35.9014

>  <r_i_glide_energy>  (53) 
-29.5385

>  <r_i_glide_einternal>  (53) 
2.54062

>  <r_i_glide_intrahb_reward>  (53) 
-0

>  <i_i_glide_confnum>  (53) 
2

>  <i_i_glide_posenum>  (53) 
2

>  <r_i_glide_eff_state_penalty>  (53) 
0

>  <ligand_id>  (53) 
16

>  <original_smiles>  (53) 
CC=CC12OCc3cccc4c3C13CCN(CC1CC1)N4C23

>  <smiles>  (53) 
[H]C(=C([H])C12OC([H])([H])c3c([H])c([H])c([H])c4c3C13C([H])([H])C([H])([H])[N+]([H])(C([H])([H])C1([H])C([H])([H])C1([H])[H])N4C23[H])C([H])([H])[H]

$$$$
16:3:1
     RDKit          3D

 45 50  0  0  1  0  0  0  0  0999 V2000
    3.7042    0.1481   -4.6483 C   0  0  0  0  0  0  0  0  0  0  0  0
    4.2116   -0.7004   -3.5076 C   0  0  0  0  0  0  0  0  0  0  0  0
    4.0315   -2.0359   -3.3854 C   0  0  0  0  0  0  0  0  0  0  0  0
    4.4957   -2.8778   -2.2298 C   0  0  1  0  0  0  0  0  0  0  0  0
    5.7169   -3.5737   -2.5238 O   0  0  0  0  0  0  0  0  0  0  0  0
    6.9375   -3.0155   -1.9546 C   0  0  0  0  0  0  0  0  0  0  0  0
    6.9498   -3.0169   -0.4314 C   0  0  0  0  0  0  0  0  0  0  0  0
    7.7361   -3.8233    0.4155 C   0  0  0  0  0  0  0  0  0  0  0  0
    7.1136   -4.4287    1.5511 C   0  0  0  0  0  0  0  0  0  0  0  0
    5.7195   -4.3911    1.6996 C   0  0  0  0  0  0  0  0  0  0  0  0
    4.9339   -3.6554    0.7967 C   0  0  0  0  0  0  0  0  0  0  0  0
    5.6302   -2.8513   -0.0758 C   0  0  0  0  0  0  0  0  0  0  0  0
    4.5811   -2.3121   -0.9276 C   0  0  1  0  0  0  0  0  0  0  0  0
    3.9174   -1.0686   -0.3753 C   0  0  0  0  0  0  0  0  0  0  0  0
    3.3387   -1.3086    1.0243 C   0  0  0  0  0  0  0  0  0  0  0  0
    2.7637   -2.6769    1.1815 N   0  0  2  0  0  0  0  0  0  0  0  0
    2.4873   -2.9961    2.5998 C   0  0  0  0  0  0  0  0  0  0  0  0
    2.0213   -4.4204    2.8248 C   0  0  0  0  0  0  0  0  0  0  0  0
    1.6374   -4.9041    4.2011 C   0  0  0  0  0  0  0  0  0  0  0  0
    2.8927   -5.4039    3.5609 C   0  0  0  0  0  0  0  0  0  0  0  0
    3.5831   -3.7251    0.4154 N   0  0  0  0  0  0  0  0  0  0  0  0
    3.5629   -3.4367   -1.0587 C   0  0  2  0  0  0  0  0  0  0  0  0
    3.0174    0.9011   -4.2685 H   0  0  0  0  0  0  0  0  0  0  0  0
    3.1734   -0.4397   -5.3928 H   0  0  0  0  0  0  0  0  0  0  0  0
    4.5264    0.6841   -5.1197 H   0  0  0  0  0  0  0  0  0  0  0  0
    4.7474   -0.1462   -2.7524 H   0  0  0  0  0  0  0  0  0  0  0  0
    3.4955   -2.5456   -4.1719 H   0  0  0  0  0  0  0  0  0  0  0  0
    7.7554   -3.6274   -2.3033 H   0  0  0  0  0  0  0  0  0  0  0  0
    7.1274   -2.0054   -2.2879 H   0  0  0  0  0  0  0  0  0  0  0  0
    8.7584   -4.0754    0.1979 H   0  0  0  0  0  0  0  0  0  0  0  0
    7.7026   -4.9936    2.2564 H   0  0  0  0  0  0  0  0  0  0  0  0
    5.2889   -5.0031    2.4784 H   0  0  0  0  0  0  0  0  0  0  0  0
    4.5962   -0.2164   -0.3833 H   0  0  0  0  0  0  0  0  0  0  0  0
    3.0840   -0.8602   -1.0361 H   0  0  0  0  0  0  0  0  0  0  0  0
    4.1324   -1.1263    1.7443 H   0  0  0  0  0  0  0  0  0  0  0  0
    2.5688   -0.5710    1.2273 H   0  0  0  0  0  0  0  0  0  0  0  0
    3.3569   -2.8098    3.2302 H   0  0  0  0  0  0  0  0  0  0  0  0
    1.7084   -2.3300    2.9679 H   0  0  0  0  0  0  0  0  0  0  0  0
    1.4040   -4.8185    2.0245 H   0  0  0  0  0  0  0  0  0  0  0  0
    1.7636   -4.2244    5.0447 H   0  0  0  0  0  0  0  0  0  0  0  0
    0.8307   -5.6283    4.2940 H   0  0  0  0  0  0  0  0  0  0  0  0
    2.9195   -6.4196    3.1657 H   0  0  0  0  0  0  0  0  0  0  0  0
    3.8078   -5.0534    4.0350 H   0  0  0  0  0  0  0  0  0  0  0  0
    2.5243   -3.2208   -1.2830 H   0  0  0  0  0  0  0  0  0  0  0  0
    1.8546   -2.6232    0.7312 H   0  0  0  0  0  0  0  0  0  0  0  0
  1  2  1  0
  1 23  1  0
  1 24  1  0
  1 25  1  0
  2  3  2  3
  2 26  1  0
  3  4  1  0
  3 27  1  0
  4 13  1  0
  4 22  1  0
  4  5  1  6
  5  6  1  0
  6  7  1  0
  6 28  1  0
  6 29  1  0
  7 12  2  0
  7  8  1  0
  8  9  2  0
  8 30  1  0
  9 10  1  0
  9 31  1  0
 10 11  2  0
 10 32  1  0
 11 21  1  0
 11 12  1  0
 12 13  1  0
 13 22  1  0
 13 14  1  6
 14 15  1  0
 14 33  1  0
 14 34  1  0
 15 16  1  0
 15 35  1  0
 15 36  1  0
 16 17  1  0
 16 21  1  0
 16 45  1  6
 17 18  1  0
 17 37  1  0
 17 38  1  0
 18 20  1  0
 18 19  1  0
 18 39  1  0
 19 20  1  0
 19 40  1  0
 19 41  1  0
 20 42  1  0
 20 43  1  0
 21 22  1  0
 22 44  1  6
M  CHG  1  16   1
M  END
>  <i_m_ct_stereo_status>  (54) 
1

>  <s_m_source_file>  (54) 
/var/tmp/pbs.5076255.sched01/tmpnm8fzmj1/0q4giu30i.sdf

>  <i_m_source_file_index>  (54) 
27

>  <i_lp_mmshare_version>  (54) 
48012

>  <i_f3d_flags>  (54) 
0

>  <s_epik_input>  (54) 
W0NIM10vW0NIXT1bQ0hdXFtDQEBdMShbQ0BAXTIzNClbQ0BIXTROKE4oW0NIMl1bQ0gyXTMpW0NIMl1bQ0hdNVtDSDJdW0NIMl01KWM2YzJjKFtDSDJdTzEpW2NIXVtjSF1bY0hdNg==

>  <s_epik_cmdline>  (54) 
J2VwaWtfcHl0aG9uJywgJy1waHQnLCAnMi4wJywgJy1waCcsICc3LjAnLCAnLXRuJywgJzgnLCAnLW1hJywgJzIwMCcsICctaW1hZScsICc8aW5maWxlLm1hZT4nLCAnLW9tYWUnLCAnPG91dGZpbGUubWFlPic=

>  <r_epik_Ionization_Penalty>  (54) 
1.49766

>  <r_epik_Ionization_Penalty_Charging>  (54) 
1.49766

>  <r_epik_Ionization_Penalty_Neutral>  (54) 
3.12938e-12

>  <r_epik_State_Penalty>  (54) 
1.58762

>  <r_epik_Charging_Adjusted_Penalty>  (54) 
3.08528

>  <i_epik_Tot_Q>  (54) 
1

>  <i_epik_Tot_abs_Q>  (54) 
1

>  <s_lp_Force_Field>  (54) 
OPLS3e

>  <r_lp_Energy>  (54) 
139.539

>  <b_lp_Chiralities_Consistent>  (54) 
1

>  <s_lp_Variant>  (54) 
16:0-4

>  <s_i_glide_gridfile>  (54) 
pfpi4k_grid

>  <i_i_glide_lignum>  (54) 
27

>  <i_i_glide_rotatable_bonds>  (54) 
3

>  <r_i_docking_score>  (54) 
-3.75861

>  <r_i_glide_ligand_efficiency>  (54) 
-0.170846

>  <r_i_glide_ligand_efficiency_sa>  (54) 
-0.478718

>  <r_i_glide_ligand_efficiency_ln>  (54) 
-0.918742

>  <r_i_glide_gscore>  (54) 
-3.75861

>  <r_i_glide_lipo>  (54) 
-1.11994

>  <r_i_glide_hbond>  (54) 
0

>  <r_i_glide_metal>  (54) 
-0

>  <r_i_glide_rewards>  (54) 
-1.39501

>  <r_i_glide_evdw>  (54) 
-25.6091

>  <r_i_glide_ecoul>  (54) 
-3.74504

>  <r_i_glide_erotb>  (54) 
0.629279

>  <r_i_glide_esite>  (54) 
-0.0307339

>  <r_i_glide_emodel>  (54) 
-35.4358

>  <r_i_glide_energy>  (54) 
-29.3541

>  <r_i_glide_einternal>  (54) 
1.97196

>  <r_i_glide_intrahb_reward>  (54) 
-0

>  <i_i_glide_confnum>  (54) 
3

>  <i_i_glide_posenum>  (54) 
40

>  <r_i_glide_eff_state_penalty>  (54) 
0

>  <ligand_id>  (54) 
16

>  <original_smiles>  (54) 
CC=CC12OCc3cccc4c3C13CCN(CC1CC1)N4C23

>  <smiles>  (54) 
[H]C(=C([H])C12OC([H])([H])c3c([H])c([H])c([H])c4c3C13C([H])([H])C([H])([H])[N+]([H])(C([H])([H])C1([H])C([H])([H])C1([H])[H])N4C23[H])C([H])([H])[H]

$$$$
16:3:2
     RDKit          3D

 45 50  0  0  1  0  0  0  0  0999 V2000
    3.4150    0.1180   -4.6713 C   0  0  0  0  0  0  0  0  0  0  0  0
    4.0119   -0.9585   -3.7829 C   0  0  0  0  0  0  0  0  0  0  0  0
    3.5057   -1.3590   -2.6058 C   0  0  0  0  0  0  0  0  0  0  0  0
    4.0746   -2.4139   -1.6921 C   0  0  1  0  0  0  0  0  0  0  0  0
    5.1116   -3.2176   -2.3120 O   0  0  0  0  0  0  0  0  0  0  0  0
    6.4778   -2.8586   -1.9820 C   0  0  0  0  0  0  0  0  0  0  0  0
    6.7928   -3.0541   -0.5089 C   0  0  0  0  0  0  0  0  0  0  0  0
    7.6255   -4.0227    0.0793 C   0  0  0  0  0  0  0  0  0  0  0  0
    7.1978   -4.6718    1.2783 C   0  0  0  0  0  0  0  0  0  0  0  0
    5.8840   -4.5062    1.7501 C   0  0  0  0  0  0  0  0  0  0  0  0
    5.0353   -3.5932    1.0858 C   0  0  0  0  0  0  0  0  0  0  0  0
    5.6064   -2.7814    0.1562 C   0  0  0  0  0  0  0  0  0  0  0  0
    4.4878   -2.0169   -0.3884 C   0  0  1  0  0  0  0  0  0  0  0  0
    4.1496   -0.7592    0.3937 C   0  0  0  0  0  0  0  0  0  0  0  0
    3.8796   -1.0982    1.8749 C   0  0  0  0  0  0  0  0  0  0  0  0
    3.1573   -2.4013    2.0463 N   0  0  2  0  0  0  0  0  0  0  0  0
    3.1526   -2.8609    3.4564 C   0  0  0  0  0  0  0  0  0  0  0  0
    2.0515   -3.8642    3.7353 C   0  0  0  0  0  0  0  0  0  0  0  0
    0.8124   -3.4433    4.4879 C   0  0  0  0  0  0  0  0  0  0  0  0
    1.8148   -4.3545    5.1429 C   0  0  0  0  0  0  0  0  0  0  0  0
    3.6391   -3.4508    1.0254 N   0  0  0  0  0  0  0  0  0  0  0  0
    3.3319   -2.9766   -0.3730 C   0  0  2  0  0  0  0  0  0  0  0  0
    4.1160    0.9363   -4.8365 H   0  0  0  0  0  0  0  0  0  0  0  0
    2.5030    0.5343   -4.2447 H   0  0  0  0  0  0  0  0  0  0  0  0
    3.1635   -0.3014   -5.6411 H   0  0  0  0  0  0  0  0  0  0  0  0
    4.9208   -1.4105   -4.1468 H   0  0  0  0  0  0  0  0  0  0  0  0
    2.6007   -0.8661   -2.2596 H   0  0  0  0  0  0  0  0  0  0  0  0
    7.1088   -3.5084   -2.5713 H   0  0  0  0  0  0  0  0  0  0  0  0
    6.7250   -1.8385   -2.2493 H   0  0  0  0  0  0  0  0  0  0  0  0
    8.5311   -4.3636   -0.4000 H   0  0  0  0  0  0  0  0  0  0  0  0
    7.8485   -5.3763    1.7678 H   0  0  0  0  0  0  0  0  0  0  0  0
    5.5034   -5.1178    2.5580 H   0  0  0  0  0  0  0  0  0  0  0  0
    4.9203    0.0080    0.2987 H   0  0  0  0  0  0  0  0  0  0  0  0
    3.2237   -0.3545   -0.0016 H   0  0  0  0  0  0  0  0  0  0  0  0
    4.8291   -1.1202    2.4128 H   0  0  0  0  0  0  0  0  0  0  0  0
    3.2896   -0.3081    2.3378 H   0  0  0  0  0  0  0  0  0  0  0  0
    4.1161   -3.2830    3.7463 H   0  0  0  0  0  0  0  0  0  0  0  0
    2.9976   -2.0092    4.1216 H   0  0  0  0  0  0  0  0  0  0  0  0
    1.9377   -4.6246    2.9639 H   0  0  0  0  0  0  0  0  0  0  0  0
    0.7510   -2.4135    4.8431 H   0  0  0  0  0  0  0  0  0  0  0  0
   -0.1313   -3.8853    4.1799 H   0  0  0  0  0  0  0  0  0  0  0  0
    1.5200   -5.3933    5.2720 H   0  0  0  0  0  0  0  0  0  0  0  0
    2.4253   -3.9433    5.9476 H   0  0  0  0  0  0  0  0  0  0  0  0
    2.3028   -2.6198   -0.3374 H   0  0  0  0  0  0  0  0  0  0  0  0
    2.1818   -2.2015    1.8285 H   0  0  0  0  0  0  0  0  0  0  0  0
  1  2  1  0
  1 23  1  0
  1 24  1  0
  1 25  1  0
  2  3  2  3
  2 26  1  0
  3  4  1  0
  3 27  1  0
  4 13  1  0
  4 22  1  0
  4  5  1  6
  5  6  1  0
  6  7  1  0
  6 28  1  0
  6 29  1  0
  7 12  2  0
  7  8  1  0
  8  9  2  0
  8 30  1  0
  9 10  1  0
  9 31  1  0
 10 11  2  0
 10 32  1  0
 11 21  1  0
 11 12  1  0
 12 13  1  0
 13 22  1  0
 13 14  1  6
 14 15  1  0
 14 33  1  0
 14 34  1  0
 15 16  1  0
 15 35  1  0
 15 36  1  0
 16 17  1  0
 16 21  1  0
 16 45  1  6
 17 18  1  0
 17 37  1  0
 17 38  1  0
 18 20  1  0
 18 19  1  0
 18 39  1  0
 19 20  1  0
 19 40  1  0
 19 41  1  0
 20 42  1  0
 20 43  1  0
 21 22  1  0
 22 44  1  6
M  CHG  1  16   1
M  END
>  <i_m_ct_stereo_status>  (55) 
1

>  <s_m_source_file>  (55) 
/var/tmp/pbs.5076255.sched01/tmpnm8fzmj1/0q4giu30i.sdf

>  <i_m_source_file_index>  (55) 
27

>  <i_lp_mmshare_version>  (55) 
48012

>  <i_f3d_flags>  (55) 
0

>  <s_epik_input>  (55) 
W0NIM10vW0NIXT1bQ0hdXFtDQEBdMShbQ0BAXTIzNClbQ0BIXTROKE4oW0NIMl1bQ0gyXTMpW0NIMl1bQ0hdNVtDSDJdW0NIMl01KWM2YzJjKFtDSDJdTzEpW2NIXVtjSF1bY0hdNg==

>  <s_epik_cmdline>  (55) 
J2VwaWtfcHl0aG9uJywgJy1waHQnLCAnMi4wJywgJy1waCcsICc3LjAnLCAnLXRuJywgJzgnLCAnLW1hJywgJzIwMCcsICctaW1hZScsICc8aW5maWxlLm1hZT4nLCAnLW9tYWUnLCAnPG91dGZpbGUubWFlPic=

>  <r_epik_Ionization_Penalty>  (55) 
1.49766

>  <r_epik_Ionization_Penalty_Charging>  (55) 
1.49766

>  <r_epik_Ionization_Penalty_Neutral>  (55) 
3.12938e-12

>  <r_epik_State_Penalty>  (55) 
1.58762

>  <r_epik_Charging_Adjusted_Penalty>  (55) 
3.08528

>  <i_epik_Tot_Q>  (55) 
1

>  <i_epik_Tot_abs_Q>  (55) 
1

>  <s_lp_Force_Field>  (55) 
OPLS3e

>  <r_lp_Energy>  (55) 
139.539

>  <b_lp_Chiralities_Consistent>  (55) 
1

>  <s_lp_Variant>  (55) 
16:0-4

>  <s_i_glide_gridfile>  (55) 
pfpi4k_grid

>  <i_i_glide_lignum>  (55) 
27

>  <i_i_glide_rotatable_bonds>  (55) 
3

>  <r_i_docking_score>  (55) 
-3.43837

>  <r_i_glide_ligand_efficiency>  (55) 
-0.156289

>  <r_i_glide_ligand_efficiency_sa>  (55) 
-0.437929

>  <r_i_glide_ligand_efficiency_ln>  (55) 
-0.840463

>  <r_i_glide_gscore>  (55) 
-3.43837

>  <r_i_glide_lipo>  (55) 
-0.880702

>  <r_i_glide_hbond>  (55) 
0

>  <r_i_glide_metal>  (55) 
-0

>  <r_i_glide_rewards>  (55) 
-1.397

>  <r_i_glide_evdw>  (55) 
-26.7219

>  <r_i_glide_ecoul>  (55) 
-2.99526

>  <r_i_glide_erotb>  (55) 
0.629279

>  <r_i_glide_esite>  (55) 
-0.00455957

>  <r_i_glide_emodel>  (55) 
-36.03

>  <r_i_glide_energy>  (55) 
-29.7172

>  <r_i_glide_einternal>  (55) 
1.35415

>  <r_i_glide_intrahb_reward>  (55) 
-0

>  <i_i_glide_confnum>  (55) 
4

>  <i_i_glide_posenum>  (55) 
26

>  <r_i_glide_eff_state_penalty>  (55) 
0

>  <ligand_id>  (55) 
16

>  <original_smiles>  (55) 
CC=CC12OCc3cccc4c3C13CCN(CC1CC1)N4C23

>  <smiles>  (55) 
[H]C(=C([H])C12OC([H])([H])c3c([H])c([H])c([H])c4c3C13C([H])([H])C([H])([H])[N+]([H])(C([H])([H])C1([H])C([H])([H])C1([H])[H])N4C23[H])C([H])([H])[H]

$$$$
17:0:0
     RDKit          3D

 85 90  0  0  1  0  0  0  0  0999 V2000
    4.5162   -3.4576   -1.6499 C   0  0  0  0  0  0  0  0  0  0  0  0
    3.9468   -3.4922   -0.2013 C   0  0  2  0  0  0  0  0  0  0  0  0
    3.9618   -2.0661    0.3889 C   0  0  0  0  0  0  0  0  0  0  0  0
    3.4146   -1.0942   -0.4811 O   0  0  0  0  0  0  0  0  0  0  0  0
    4.6929   -4.5900    0.6548 C   0  0  2  0  0  0  0  0  0  0  0  0
    4.3964   -6.0220    0.0006 C   0  0  0  0  0  0  0  0  0  0  0  0
    4.3125   -7.2298    1.0123 C   0  0  1  0  0  0  0  0  0  0  0  0
    5.6062   -8.0764    1.3825 C   0  0  0  0  0  0  0  0  0  0  0  0
    5.5220   -9.2619    1.0691 O   0  0  0  0  0  0  0  0  0  0  0  0
    6.9916   -7.6223    2.0394 C   0  0  0  0  0  0  0  0  0  0  0  0
    7.5109   -8.7570    2.9625 C   0  0  0  0  0  0  0  0  0  0  0  0
    7.9498   -7.5819    0.8272 C   0  0  0  0  0  0  0  0  0  0  0  0
    7.2109   -6.2607    2.8469 C   0  0  0  0  0  0  0  0  0  0  0  0
    8.0316   -5.4683    2.3899 O   0  0  0  0  0  0  0  0  0  0  0  0
    6.5873   -5.8557    4.2549 C   0  0  0  0  0  0  0  0  0  0  0  0
    5.0388   -6.0271    4.4506 C   0  0  0  0  0  0  0  0  0  0  0  0
    4.9322   -7.3260    4.8496 C   0  0  0  0  0  0  0  0  0  0  0  0
    3.9910   -8.3777    4.3123 C   0  0  1  0  0  0  0  0  0  0  0  0
    3.6283   -9.2463    5.3500 O   0  0  0  0  0  0  0  0  0  0  0  0
    2.9259   -7.6937    3.4441 C   0  0  1  0  0  0  0  0  0  0  0  0
    3.5429   -6.7613    2.2474 C   0  0  2  0  0  0  0  0  0  0  0  0
    2.8812   -5.5233    2.5038 C   0  0  0  0  0  0  0  0  0  0  0  0
    3.9244   -5.0535    3.5525 C   0  0  1  0  0  0  0  0  0  0  0  0
    2.9913   -4.2925    4.5484 C   0  0  0  0  0  0  0  0  0  0  0  0
    3.3773   -3.1869    4.9233 O   0  0  0  0  0  0  0  0  0  0  0  0
    1.5338   -4.8201    5.0046 C   0  0  0  0  0  0  0  0  0  0  0  0
    1.3922   -4.3542    6.4847 C   0  0  0  0  0  0  0  0  0  0  0  0
    0.5018   -3.9625    4.2469 C   0  0  0  0  0  0  0  0  0  0  0  0
    1.0926   -6.4036    5.0000 C   0  0  1  0  0  0  0  0  0  0  0  0
   -0.3726   -6.6911    5.3776 C   0  0  0  0  0  0  0  0  0  0  0  0
   -0.4976   -8.2278    5.3626 C   0  0  1  0  0  0  0  0  0  0  0  0
   -1.6549   -8.6198    4.6678 O   0  0  0  0  0  0  0  0  0  0  0  0
    0.7651   -8.7662    4.6705 C   0  0  1  0  0  0  0  0  0  0  0  0
    0.6442  -10.1333    3.9611 C   0  0  0  0  0  0  0  0  0  0  0  0
    1.3691   -7.5659    3.8676 C   0  0  2  0  0  0  0  0  0  0  0  0
    0.4691   -7.4709    2.5812 C   0  0  0  0  0  0  0  0  0  0  0  0
    4.6335   -4.4439    2.2885 C   0  0  2  0  0  0  0  0  0  0  0  0
    5.6660   -3.3992    2.7589 C   0  0  0  0  0  0  0  0  0  0  0  0
    4.7207   -5.8784    2.2626 O   0  0  0  0  0  0  0  0  0  0  0  0
    5.5645   -3.1563   -1.6693 H   0  0  0  0  0  0  0  0  0  0  0  0
    3.9616   -2.7664   -2.2910 H   0  0  0  0  0  0  0  0  0  0  0  0
    4.4527   -4.4214   -2.1517 H   0  0  0  0  0  0  0  0  0  0  0  0
    2.8989   -3.7751   -0.2939 H   0  0  0  0  0  0  0  0  0  0  0  0
    3.3972   -2.0396    1.3214 H   0  0  0  0  0  0  0  0  0  0  0  0
    4.9835   -1.7471    0.5771 H   0  0  0  0  0  0  0  0  0  0  0  0
    2.4719   -1.1759   -0.5611 H   0  0  0  0  0  0  0  0  0  0  0  0
    5.7475   -4.4308    0.4295 H   0  0  0  0  0  0  0  0  0  0  0  0
    3.4398   -5.9682   -0.5064 H   0  0  0  0  0  0  0  0  0  0  0  0
    5.1471   -6.2260   -0.7525 H   0  0  0  0  0  0  0  0  0  0  0  0
    3.6713   -7.9582    0.5235 H   0  0  0  0  0  0  0  0  0  0  0  0
    7.5814   -9.7190    2.4605 H   0  0  0  0  0  0  0  0  0  0  0  0
    6.8560   -8.9432    3.8074 H   0  0  0  0  0  0  0  0  0  0  0  0
    8.5040   -8.5240    3.3482 H   0  0  0  0  0  0  0  0  0  0  0  0
    7.7092   -6.7778    0.1296 H   0  0  0  0  0  0  0  0  0  0  0  0
    7.9776   -8.5322    0.2851 H   0  0  0  0  0  0  0  0  0  0  0  0
    8.9611   -7.3624    1.1268 H   0  0  0  0  0  0  0  0  0  0  0  0
    7.1299   -6.4670    4.9790 H   0  0  0  0  0  0  0  0  0  0  0  0
    6.9060   -4.8633    4.5490 H   0  0  0  0  0  0  0  0  0  0  0  0
    5.7595   -7.8160    5.3492 H   0  0  0  0  0  0  0  0  0  0  0  0
    4.5791   -9.0177    3.6607 H   0  0  0  0  0  0  0  0  0  0  0  0
    3.0718   -8.7895    5.9644 H   0  0  0  0  0  0  0  0  0  0  0  0
    2.9167   -7.0216    4.2407 H   0  0  0  0  0  0  0  0  0  0  0  0
    2.6091   -4.9183    1.6418 H   0  0  0  0  0  0  0  0  0  0  0  0
    1.8890   -5.5845    2.8029 H   0  0  0  0  0  0  0  0  0  0  0  0
    0.3740   -4.4502    6.8593 H   0  0  0  0  0  0  0  0  0  0  0  0
    1.6356   -3.2979    6.6238 H   0  0  0  0  0  0  0  0  0  0  0  0
    2.0408   -4.9212    7.1552 H   0  0  0  0  0  0  0  0  0  0  0  0
   -0.4469   -3.9024    4.7756 H   0  0  0  0  0  0  0  0  0  0  0  0
    0.3129   -4.3748    3.2698 H   0  0  0  0  0  0  0  0  0  0  0  0
    0.8287   -2.9359    4.0865 H   0  0  0  0  0  0  0  0  0  0  0  0
    1.6330   -6.7663    5.8801 H   0  0  0  0  0  0  0  0  0  0  0  0
   -0.6508   -6.2778    6.3481 H   0  0  0  0  0  0  0  0  0  0  0  0
   -1.0552   -6.2604    4.6449 H   0  0  0  0  0  0  0  0  0  0  0  0
   -0.5622   -8.6285    6.3770 H   0  0  0  0  0  0  0  0  0  0  0  0
   -1.7682   -9.5715    4.8440 H   0  0  0  0  0  0  0  0  0  0  0  0
    1.3718   -8.9599    5.5438 H   0  0  0  0  0  0  0  0  0  0  0  0
   -0.0743  -10.1421    3.1408 H   0  0  0  0  0  0  0  0  0  0  0  0
    0.3298  -10.9061    4.6634 H   0  0  0  0  0  0  0  0  0  0  0  0
    1.6085  -10.4373    3.5556 H   0  0  0  0  0  0  0  0  0  0  0  0
   -0.4509   -8.0434    2.6340 H   0  0  0  0  0  0  0  0  0  0  0  0
    0.9903   -7.8616    1.7093 H   0  0  0  0  0  0  0  0  0  0  0  0
    0.1216   -6.4692    2.3504 H   0  0  0  0  0  0  0  0  0  0  0  0
    5.2944   -2.3903    2.6104 H   0  0  0  0  0  0  0  0  0  0  0  0
    6.6116   -3.4639    2.2234 H   0  0  0  0  0  0  0  0  0  0  0  0
    5.8060   -3.4058    3.8354 H   0  0  0  0  0  0  0  0  0  0  0  0
  1  2  1  0
  1 40  1  0
  1 41  1  0
  1 42  1  0
  2  3  1  0
  2  5  1  0
  2 43  1  6
  3  4  1  0
  3 44  1  0
  3 45  1  0
  4 46  1  0
  5 37  1  0
  5  6  1  0
  5 47  1  6
  6  7  1  0
  6 48  1  0
  6 49  1  0
  7 21  1  0
  7  8  1  0
  7 50  1  6
  8  9  2  0
  8 10  1  0
 10 11  1  0
 10 12  1  0
 10 13  1  0
 11 51  1  0
 11 52  1  0
 11 53  1  0
 12 54  1  0
 12 55  1  0
 12 56  1  0
 13 14  2  0
 13 15  1  0
 15 16  1  0
 15 57  1  0
 15 58  1  0
 16 23  1  0
 16 17  2  0
 17 18  1  0
 17 59  1  0
 18 19  1  0
 18 20  1  0
 18 60  1  6
 19 61  1  0
 20 35  1  0
 20 21  1  0
 20 62  1  6
 21 39  1  1
 21 22  1  0
 22 23  1  0
 22 63  1  0
 22 64  1  0
 23 24  1  1
 23 37  1  0
 24 25  2  0
 24 26  1  0
 26 27  1  0
 26 28  1  0
 26 29  1  0
 27 65  1  0
 27 66  1  0
 27 67  1  0
 28 68  1  0
 28 69  1  0
 28 70  1  0
 29 35  1  0
 29 30  1  0
 29 71  1  1
 30 31  1  0
 30 72  1  0
 30 73  1  0
 31 32  1  0
 31 33  1  0
 31 74  1  1
 32 75  1  0
 33 34  1  0
 33 35  1  0
 33 76  1  1
 34 77  1  0
 34 78  1  0
 34 79  1  0
 35 36  1  6
 36 80  1  0
 36 81  1  0
 36 82  1  0
 37 38  1  6
 37 39  1  0
 38 83  1  0
 38 84  1  0
 38 85  1  0
M  END
>  <i_m_ct_stereo_status>  (56) 
1

>  <s_m_source_file>  (56) 
/var/tmp/pbs.5076255.sched01/tmpnm8fzmj1/0q4giu30i.sdf

>  <i_m_source_file_index>  (56) 
28

>  <i_lp_mmshare_version>  (56) 
48012

>  <i_f3d_flags>  (56) 
0

>  <s_epik_input>  (56) 
W09IXVtDSDJdW0NAQEhdKFtDSDNdKVtDQEhdKFtDSDJdW0NAQEhdMVtDQF0yMzQpW0NAQF0oTzQpKFtDSDNdKVtDQEBdNShbQ0gyXTMpQyhbQ0gyXUMoPU8pQyhDMT1PKShbQ0gzXSlbQ0gzXSk9W0NIXVtDQEBIXShbT0hdKVtDQEBIXTJbQ0BdNihbQ0gzXSlbQ0BASF0oQyhDNT1PKShbQ0gzXSlbQ0gzXSlbQ0gyXVtDQEBIXShbT0hdKVtDQEhdNltDSDNd

>  <s_epik_cmdline>  (56) 
J2VwaWtfcHl0aG9uJywgJy1waHQnLCAnMi4wJywgJy1waCcsICc3LjAnLCAnLXRuJywgJzgnLCAnLW1hJywgJzIwMCcsICctaW1hZScsICc8aW5maWxlLm1hZT4nLCAnLW9tYWUnLCAnPG91dGZpbGUubWFlPic=

>  <r_lp_tautomer_probability>  (56) 
1

>  <r_epik_Ionization_Penalty>  (56) 
1.16697e-06

>  <r_epik_Ionization_Penalty_Charging>  (56) 
0

>  <r_epik_Ionization_Penalty_Neutral>  (56) 
1.16697e-06

>  <r_epik_State_Penalty>  (56) 
-0

>  <r_epik_Charging_Adjusted_Penalty>  (56) 
0

>  <i_epik_Tot_Q>  (56) 
0

>  <i_epik_Tot_abs_Q>  (56) 
0

>  <s_lp_Force_Field>  (56) 
OPLS3e

>  <r_lp_Energy>  (56) 
438

>  <b_lp_Chiralities_Consistent>  (56) 
1

>  <s_lp_Variant>  (56) 
17:0-1

>  <s_i_glide_gridfile>  (56) 
pfpi4k_grid

>  <i_i_glide_lignum>  (56) 
28

>  <i_i_glide_rotatable_bonds>  (56) 
5

>  <r_i_docking_score>  (56) 
-2.93182

>  <r_i_glide_ligand_efficiency>  (56) 
-0.0751748

>  <r_i_glide_ligand_efficiency_sa>  (56) 
-0.254934

>  <r_i_glide_ligand_efficiency_ln>  (56) 
-0.628665

>  <r_i_glide_gscore>  (56) 
-2.93182

>  <r_i_glide_lipo>  (56) 
-0.336699

>  <r_i_glide_hbond>  (56) 
-0.304

>  <r_i_glide_metal>  (56) 
-0

>  <r_i_glide_rewards>  (56) 
-0.151311

>  <r_i_glide_evdw>  (56) 
-16.6359

>  <r_i_glide_ecoul>  (56) 
-9.65664

>  <r_i_glide_erotb>  (56) 
0.140483

>  <r_i_glide_esite>  (56) 
0

>  <r_i_glide_emodel>  (56) 
-30.7737

>  <r_i_glide_energy>  (56) 
-26.2925

>  <r_i_glide_einternal>  (56) 
1.79398

>  <r_i_glide_intrahb_reward>  (56) 
-0

>  <i_i_glide_confnum>  (56) 
6

>  <i_i_glide_posenum>  (56) 
33

>  <r_i_glide_eff_state_penalty>  (56) 
0

>  <ligand_id>  (56) 
17

>  <original_smiles>  (56) 
CC(CO)C1CC2C(=O)C(C)(C)C(=O)CC3=CC(O)C4C25CC3(C(=O)C(C)(C)C2CC(O)C(C)C24C)C1(C)O5

>  <smiles>  (56) 
[H]OC([H])([H])C([H])(C([H])([H])[H])C1([H])C([H])([H])C2([H])C(=O)C(C([H])([H])[H])(C([H])([H])[H])C(=O)C([H])([H])C3=C([H])C([H])(O[H])C4([H])C25OC1(C([H])([H])[H])C3(C(=O)C(C([H])([H])[H])(C([H])([H])[H])C1([H])C([H])([H])C([H])(O[H])C([H])(C([H])([H])[H])C41C([H])([H])[H])C5([H])[H]

$$$$
17:0:1
     RDKit          3D

 85 90  0  0  1  0  0  0  0  0999 V2000
    2.5688   -3.3815   -0.2085 C   0  0  0  0  0  0  0  0  0  0  0  0
    4.1139   -3.3810   -0.0776 C   0  0  2  0  0  0  0  0  0  0  0  0
    4.7079   -3.2817   -1.5120 C   0  0  0  0  0  0  0  0  0  0  0  0
    4.3367   -2.0599   -2.1330 O   0  0  0  0  0  0  0  0  0  0  0  0
    4.7432   -4.5789    0.7279 C   0  0  2  0  0  0  0  0  0  0  0  0
    4.5063   -5.9766    0.0000 C   0  0  0  0  0  0  0  0  0  0  0  0
    4.3553   -7.2198    0.9712 C   0  0  1  0  0  0  0  0  0  0  0  0
    5.6082   -8.0968    1.3458 C   0  0  0  0  0  0  0  0  0  0  0  0
    5.5170   -9.2800    0.9787 O   0  0  0  0  0  0  0  0  0  0  0  0
    6.9739   -7.7025    2.0764 C   0  0  0  0  0  0  0  0  0  0  0  0
    7.4186   -8.8875    2.9668 C   0  0  0  0  0  0  0  0  0  0  0  0
    7.9585   -7.6309    0.8886 C   0  0  0  0  0  0  0  0  0  0  0  0
    7.1855   -6.3751    2.9452 C   0  0  0  0  0  0  0  0  0  0  0  0
    8.0270   -5.5605    2.5285 O   0  0  0  0  0  0  0  0  0  0  0  0
    6.5194   -6.0101    4.3460 C   0  0  0  0  0  0  0  0  0  0  0  0
    4.9621   -6.1701    4.5043 C   0  0  0  0  0  0  0  0  0  0  0  0
    4.8147   -7.4915    4.8224 C   0  0  0  0  0  0  0  0  0  0  0  0
    3.8677   -8.4982    4.2013 C   0  0  1  0  0  0  0  0  0  0  0  0
    3.4145   -9.3918    5.1876 O   0  0  0  0  0  0  0  0  0  0  0  0
    2.8491   -7.7695    3.3254 C   0  0  1  0  0  0  0  0  0  0  0  0
    3.5456   -6.8102    2.2063 C   0  0  2  0  0  0  0  0  0  0  0  0
    2.8973   -5.5912    2.4882 C   0  0  0  0  0  0  0  0  0  0  0  0
    3.8969   -5.1551    3.5933 C   0  0  1  0  0  0  0  0  0  0  0  0
    2.9392   -4.4109    4.5704 C   0  0  0  0  0  0  0  0  0  0  0  0
    3.3320   -3.3167    5.0089 O   0  0  0  0  0  0  0  0  0  0  0  0
    1.4494   -4.9094    4.9453 C   0  0  0  0  0  0  0  0  0  0  0  0
    1.2567   -4.5022    6.4299 C   0  0  0  0  0  0  0  0  0  0  0  0
    0.4652   -3.9943    4.1793 C   0  0  0  0  0  0  0  0  0  0  0  0
    0.9725   -6.4808    4.8464 C   0  0  1  0  0  0  0  0  0  0  0  0
   -0.5118   -6.7491    5.1411 C   0  0  0  0  0  0  0  0  0  0  0  0
   -0.6558   -8.2805    5.0581 C   0  0  1  0  0  0  0  0  0  0  0  0
   -1.7825   -8.6359    4.2969 O   0  0  0  0  0  0  0  0  0  0  0  0
    0.6218   -8.8186    4.4012 C   0  0  1  0  0  0  0  0  0  0  0  0
    0.5051  -10.1504    3.6214 C   0  0  0  0  0  0  0  0  0  0  0  0
    1.2773   -7.6046    3.6828 C   0  0  2  0  0  0  0  0  0  0  0  0
    0.4370   -7.4262    2.3585 C   0  0  0  0  0  0  0  0  0  0  0  0
    4.6304   -4.4938    2.3664 C   0  0  2  0  0  0  0  0  0  0  0  0
    5.6425   -3.4659    2.8845 C   0  0  0  0  0  0  0  0  0  0  0  0
    4.7266   -5.9266    2.2947 O   0  0  0  0  0  0  0  0  0  0  0  0
    2.1782   -4.3086   -0.6276 H   0  0  0  0  0  0  0  0  0  0  0  0
    2.2395   -2.6162   -0.9141 H   0  0  0  0  0  0  0  0  0  0  0  0
    2.0781   -3.1714    0.7406 H   0  0  0  0  0  0  0  0  0  0  0  0
    4.3845   -2.4624    0.4490 H   0  0  0  0  0  0  0  0  0  0  0  0
    5.7942   -3.3032   -1.5017 H   0  0  0  0  0  0  0  0  0  0  0  0
    4.3810   -4.1121   -2.1445 H   0  0  0  0  0  0  0  0  0  0  0  0
    3.3983   -2.0269   -2.1893 H   0  0  0  0  0  0  0  0  0  0  0  0
    5.8157   -4.4481    0.5584 H   0  0  0  0  0  0  0  0  0  0  0  0
    3.6023   -5.9333   -0.5945 H   0  0  0  0  0  0  0  0  0  0  0  0
    5.3225   -6.1400   -0.6930 H   0  0  0  0  0  0  0  0  0  0  0  0
    3.7448   -7.9204    0.4278 H   0  0  0  0  0  0  0  0  0  0  0  0
    7.4612   -9.8268    2.4128 H   0  0  0  0  0  0  0  0  0  0  0  0
    6.7278   -9.0857    3.7811 H   0  0  0  0  0  0  0  0  0  0  0  0
    8.4048   -8.7012    3.3980 H   0  0  0  0  0  0  0  0  0  0  0  0
    7.7580   -6.7971    0.2126 H   0  0  0  0  0  0  0  0  0  0  0  0
    7.9951   -8.5615    0.3161 H   0  0  0  0  0  0  0  0  0  0  0  0
    8.9574   -7.4397    1.2487 H   0  0  0  0  0  0  0  0  0  0  0  0
    7.0118   -6.6631    5.0664 H   0  0  0  0  0  0  0  0  0  0  0  0
    6.8493   -5.0277    4.6728 H   0  0  0  0  0  0  0  0  0  0  0  0
    5.6085   -8.0194    5.3267 H   0  0  0  0  0  0  0  0  0  0  0  0
    4.4581   -9.1240    3.5373 H   0  0  0  0  0  0  0  0  0  0  0  0
    2.9045  -10.0615    4.7784 H   0  0  0  0  0  0  0  0  0  0  0  0
    2.8208   -7.1550    4.1720 H   0  0  0  0  0  0  0  0  0  0  0  0
    2.6691   -5.0520    1.5974 H   0  0  0  0  0  0  0  0  0  0  0  0
    1.8899   -5.5997    2.7545 H   0  0  0  0  0  0  0  0  0  0  0  0
    0.2222   -4.5937    6.7552 H   0  0  0  0  0  0  0  0  0  0  0  0
    1.5149   -3.4590    6.6183 H   0  0  0  0  0  0  0  0  0  0  0  0
    1.8686   -5.1118    7.0947 H   0  0  0  0  0  0  0  0  0  0  0  0
   -0.4913   -3.9170    4.6932 H   0  0  0  0  0  0  0  0  0  0  0  0
    0.2576   -4.3667    3.1862 H   0  0  0  0  0  0  0  0  0  0  0  0
    0.8284   -2.9719    4.0648 H   0  0  0  0  0  0  0  0  0  0  0  0
    1.4680   -6.8926    5.7337 H   0  0  0  0  0  0  0  0  0  0  0  0
   -0.8241   -6.3668    6.1088 H   0  0  0  0  0  0  0  0  0  0  0  0
   -1.1524   -6.2769    4.3964 H   0  0  0  0  0  0  0  0  0  0  0  0
   -0.7676   -8.7281    6.0487 H   0  0  0  0  0  0  0  0  0  0  0  0
   -1.9195   -9.5678    4.4811 H   0  0  0  0  0  0  0  0  0  0  0  0
    1.1808   -9.0514    5.2946 H   0  0  0  0  0  0  0  0  0  0  0  0
   -0.1858  -10.1065    2.7772 H   0  0  0  0  0  0  0  0  0  0  0  0
    0.1523  -10.9448    4.2796 H   0  0  0  0  0  0  0  0  0  0  0  0
    1.4735  -10.4575    3.2310 H   0  0  0  0  0  0  0  0  0  0  0  0
   -0.4989   -7.9742    2.3469 H   0  0  0  0  0  0  0  0  0  0  0  0
    0.9826   -7.7909    1.4922 H   0  0  0  0  0  0  0  0  0  0  0  0
    0.1243   -6.4057    2.1598 H   0  0  0  0  0  0  0  0  0  0  0  0
    5.2930   -2.4485    2.6897 H   0  0  0  0  0  0  0  0  0  0  0  0
    6.5887   -3.5715    2.3727 H   0  0  0  0  0  0  0  0  0  0  0  0
    5.7661   -3.5115    3.9662 H   0  0  0  0  0  0  0  0  0  0  0  0
  1  2  1  0
  1 40  1  0
  1 41  1  0
  1 42  1  0
  2  3  1  0
  2  5  1  0
  2 43  1  1
  3  4  1  0
  3 44  1  0
  3 45  1  0
  4 46  1  0
  5 37  1  0
  5  6  1  0
  5 47  1  1
  6  7  1  0
  6 48  1  0
  6 49  1  0
  7 21  1  0
  7  8  1  0
  7 50  1  6
  8  9  2  0
  8 10  1  0
 10 11  1  0
 10 12  1  0
 10 13  1  0
 11 51  1  0
 11 52  1  0
 11 53  1  0
 12 54  1  0
 12 55  1  0
 12 56  1  0
 13 14  2  0
 13 15  1  0
 15 16  1  0
 15 57  1  0
 15 58  1  0
 16 23  1  0
 16 17  2  0
 17 18  1  0
 17 59  1  0
 18 19  1  0
 18 20  1  0
 18 60  1  6
 19 61  1  0
 20 35  1  0
 20 21  1  0
 20 62  1  6
 21 39  1  1
 21 22  1  0
 22 23  1  0
 22 63  1  0
 22 64  1  0
 23 24  1  1
 23 37  1  0
 24 25  2  0
 24 26  1  0
 26 27  1  0
 26 28  1  0
 26 29  1  0
 27 65  1  0
 27 66  1  0
 27 67  1  0
 28 68  1  0
 28 69  1  0
 28 70  1  0
 29 35  1  0
 29 30  1  0
 29 71  1  1
 30 31  1  0
 30 72  1  0
 30 73  1  0
 31 32  1  0
 31 33  1  0
 31 74  1  1
 32 75  1  0
 33 34  1  0
 33 35  1  0
 33 76  1  1
 34 77  1  0
 34 78  1  0
 34 79  1  0
 35 36  1  6
 36 80  1  0
 36 81  1  0
 36 82  1  0
 37 38  1  6
 37 39  1  0
 38 83  1  0
 38 84  1  0
 38 85  1  0
M  END
>  <i_m_ct_stereo_status>  (57) 
1

>  <s_m_source_file>  (57) 
/var/tmp/pbs.5076255.sched01/tmpnm8fzmj1/0q4giu30i.sdf

>  <i_m_source_file_index>  (57) 
28

>  <i_lp_mmshare_version>  (57) 
48012

>  <i_f3d_flags>  (57) 
0

>  <s_epik_input>  (57) 
W09IXVtDSDJdW0NAQEhdKFtDSDNdKVtDQEhdKFtDSDJdW0NAQEhdMVtDQF0yMzQpW0NAQF0oTzQpKFtDSDNdKVtDQEBdNShbQ0gyXTMpQyhbQ0gyXUMoPU8pQyhDMT1PKShbQ0gzXSlbQ0gzXSk9W0NIXVtDQEBIXShbT0hdKVtDQEBIXTJbQ0BdNihbQ0gzXSlbQ0BASF0oQyhDNT1PKShbQ0gzXSlbQ0gzXSlbQ0gyXVtDQEBIXShbT0hdKVtDQEhdNltDSDNd

>  <s_epik_cmdline>  (57) 
J2VwaWtfcHl0aG9uJywgJy1waHQnLCAnMi4wJywgJy1waCcsICc3LjAnLCAnLXRuJywgJzgnLCAnLW1hJywgJzIwMCcsICctaW1hZScsICc8aW5maWxlLm1hZT4nLCAnLW9tYWUnLCAnPG91dGZpbGUubWFlPic=

>  <r_lp_tautomer_probability>  (57) 
1

>  <r_epik_Ionization_Penalty>  (57) 
1.16697e-06

>  <r_epik_Ionization_Penalty_Charging>  (57) 
0

>  <r_epik_Ionization_Penalty_Neutral>  (57) 
1.16697e-06

>  <r_epik_State_Penalty>  (57) 
-0

>  <r_epik_Charging_Adjusted_Penalty>  (57) 
0

>  <i_epik_Tot_Q>  (57) 
0

>  <i_epik_Tot_abs_Q>  (57) 
0

>  <s_lp_Force_Field>  (57) 
OPLS3e

>  <r_lp_Energy>  (57) 
438

>  <b_lp_Chiralities_Consistent>  (57) 
1

>  <s_lp_Variant>  (57) 
17:0-1

>  <s_i_glide_gridfile>  (57) 
pfpi4k_grid

>  <i_i_glide_lignum>  (57) 
28

>  <i_i_glide_rotatable_bonds>  (57) 
5

>  <r_i_docking_score>  (57) 
-2.67865

>  <r_i_glide_ligand_efficiency>  (57) 
-0.0686833

>  <r_i_glide_ligand_efficiency_sa>  (57) 
-0.23292

>  <r_i_glide_ligand_efficiency_ln>  (57) 
-0.574378

>  <r_i_glide_gscore>  (57) 
-2.67865

>  <r_i_glide_lipo>  (57) 
-0.388553

>  <r_i_glide_hbond>  (57) 
-0.16

>  <r_i_glide_metal>  (57) 
-0

>  <r_i_glide_rewards>  (57) 
-0.14529

>  <r_i_glide_evdw>  (57) 
-20.5092

>  <r_i_glide_ecoul>  (57) 
-7.33217

>  <r_i_glide_erotb>  (57) 
0.140483

>  <r_i_glide_esite>  (57) 
0

>  <r_i_glide_emodel>  (57) 
-30.9276

>  <r_i_glide_energy>  (57) 
-27.8414

>  <r_i_glide_einternal>  (57) 
1.52961

>  <r_i_glide_intrahb_reward>  (57) 
-0

>  <i_i_glide_confnum>  (57) 
3

>  <i_i_glide_posenum>  (57) 
40

>  <r_i_glide_eff_state_penalty>  (57) 
0

>  <ligand_id>  (57) 
17

>  <original_smiles>  (57) 
CC(CO)C1CC2C(=O)C(C)(C)C(=O)CC3=CC(O)C4C25CC3(C(=O)C(C)(C)C2CC(O)C(C)C24C)C1(C)O5

>  <smiles>  (57) 
[H]OC([H])([H])C([H])(C([H])([H])[H])C1([H])C([H])([H])C2([H])C(=O)C(C([H])([H])[H])(C([H])([H])[H])C(=O)C([H])([H])C3=C([H])C([H])(O[H])C4([H])C25OC1(C([H])([H])[H])C3(C(=O)C(C([H])([H])[H])(C([H])([H])[H])C1([H])C([H])([H])C([H])(O[H])C([H])(C([H])([H])[H])C41C([H])([H])[H])C5([H])[H]

$$$$
17:0:2
     RDKit          3D

 85 90  0  0  1  0  0  0  0  0999 V2000
    4.3283   -4.5030    2.0015 C   0  0  0  0  0  0  0  0  0  0  0  0
    3.7779   -3.4199    2.9646 C   0  0  2  0  0  0  0  0  0  0  0  0
    4.8271   -2.2888    3.0976 C   0  0  0  0  0  0  0  0  0  0  0  0
    5.1330   -1.6865    1.8593 O   0  0  0  0  0  0  0  0  0  0  0  0
    3.3075   -3.9604    4.3647 C   0  0  2  0  0  0  0  0  0  0  0  0
    4.5647   -4.3670    5.2861 C   0  0  0  0  0  0  0  0  0  0  0  0
    4.2784   -5.5791    6.2713 C   0  0  1  0  0  0  0  0  0  0  0  0
    3.7971   -5.2748    7.7797 C   0  0  0  0  0  0  0  0  0  0  0  0
    4.5653   -5.7019    8.6294 O   0  0  0  0  0  0  0  0  0  0  0  0
    2.4838   -4.5131    8.3136 C   0  0  0  0  0  0  0  0  0  0  0  0
    2.0135   -5.1988    9.6274 C   0  0  0  0  0  0  0  0  0  0  0  0
    3.0533   -3.1357    8.7575 C   0  0  0  0  0  0  0  0  0  0  0  0
    1.1505   -4.2294    7.4584 C   0  0  0  0  0  0  0  0  0  0  0  0
    0.8187   -3.0555    7.2915 O   0  0  0  0  0  0  0  0  0  0  0  0
    0.1082   -5.3033    6.8925 C   0  0  0  0  0  0  0  0  0  0  0  0
    0.6446   -6.5548    6.1107 C   0  0  0  0  0  0  0  0  0  0  0  0
    0.9218   -7.4389    7.1240 C   0  0  0  0  0  0  0  0  0  0  0  0
    2.2083   -8.2236    7.3205 C   0  0  1  0  0  0  0  0  0  0  0  0
    1.9017   -9.4500    7.9340 O   0  0  0  0  0  0  0  0  0  0  0  0
    3.0690   -8.1507    6.0625 C   0  0  1  0  0  0  0  0  0  0  0  0
    3.3890   -6.6119    5.5881 C   0  0  2  0  0  0  0  0  0  0  0  0
    2.9149   -6.6758    4.2598 C   0  0  0  0  0  0  0  0  0  0  0  0
    1.4487   -6.3472    4.5955 C   0  0  1  0  0  0  0  0  0  0  0  0
    0.7172   -7.2118    3.4996 C   0  0  0  0  0  0  0  0  0  0  0  0
   -0.2032   -6.6679    2.9010 O   0  0  0  0  0  0  0  0  0  0  0  0
    1.1858   -8.7149    3.0838 C   0  0  0  0  0  0  0  0  0  0  0  0
   -0.1494   -9.4592    2.7760 C   0  0  0  0  0  0  0  0  0  0  0  0
    1.8973   -8.5949    1.7009 C   0  0  0  0  0  0  0  0  0  0  0  0
    2.0322   -9.7273    4.0645 C   0  0  1  0  0  0  0  0  0  0  0  0
    2.4547  -11.0738    3.4457 C   0  0  0  0  0  0  0  0  0  0  0  0
    3.1679  -11.8541    4.5702 C   0  0  1  0  0  0  0  0  0  0  0  0
    4.3343  -12.4673    4.0755 O   0  0  0  0  0  0  0  0  0  0  0  0
    3.4301  -10.8161    5.6934 C   0  0  1  0  0  0  0  0  0  0  0  0
    4.6276  -11.0834    6.6350 C   0  0  0  0  0  0  0  0  0  0  0  0
    3.3175   -9.3981    5.0457 C   0  0  2  0  0  0  0  0  0  0  0  0
    4.6862   -9.2078    4.2939 C   0  0  0  0  0  0  0  0  0  0  0  0
    1.9360   -4.8513    4.4179 C   0  0  0  0  0  0  0  0  0  0  0  0
    0.7026   -3.9274    4.2525 C   0  0  0  0  0  0  0  0  0  0  0  0
    2.5130   -5.4178    5.6005 O   0  0  0  0  0  0  0  0  0  0  0  0
    5.1733   -5.0321    2.4336 H   0  0  0  0  0  0  0  0  0  0  0  0
    4.7000   -4.0743    1.0626 H   0  0  0  0  0  0  0  0  0  0  0  0
    3.5694   -5.2375    1.7542 H   0  0  0  0  0  0  0  0  0  0  0  0
    2.8958   -2.9905    2.4729 H   0  0  0  0  0  0  0  0  0  0  0  0
    4.4894   -1.5073    3.7827 H   0  0  0  0  0  0  0  0  0  0  0  0
    5.7729   -2.6655    3.5052 H   0  0  0  0  0  0  0  0  0  0  0  0
    4.3236   -1.3145    1.5007 H   0  0  0  0  0  0  0  0  0  0  0  0
    2.9866   -3.0446    4.8741 H   0  0  0  0  0  0  0  0  0  0  0  0
    5.3900   -4.6777    4.6447 H   0  0  0  0  0  0  0  0  0  0  0  0
    4.8881   -3.5100    5.8413 H   0  0  0  0  0  0  0  0  0  0  0  0
    5.2496   -6.0408    6.4108 H   0  0  0  0  0  0  0  0  0  0  0  0
    2.8009   -5.2227   10.3833 H   0  0  0  0  0  0  0  0  0  0  0  0
    1.7028   -6.2284    9.4692 H   0  0  0  0  0  0  0  0  0  0  0  0
    1.1713   -4.6700   10.0726 H   0  0  0  0  0  0  0  0  0  0  0  0
    3.4004   -2.5580    7.8992 H   0  0  0  0  0  0  0  0  0  0  0  0
    3.9009   -3.2451    9.4345 H   0  0  0  0  0  0  0  0  0  0  0  0
    2.3130   -2.5363    9.2876 H   0  0  0  0  0  0  0  0  0  0  0  0
   -0.4468   -5.6280    7.7763 H   0  0  0  0  0  0  0  0  0  0  0  0
   -0.6734   -4.7893    6.3304 H   0  0  0  0  0  0  0  0  0  0  0  0
    0.3953   -7.3775    8.0583 H   0  0  0  0  0  0  0  0  0  0  0  0
    2.7553   -7.7163    8.1076 H   0  0  0  0  0  0  0  0  0  0  0  0
    1.7117  -10.1161    7.2730 H   0  0  0  0  0  0  0  0  0  0  0  0
    2.1444   -8.3327    5.6168 H   0  0  0  0  0  0  0  0  0  0  0  0
    3.5314   -6.1051    3.5545 H   0  0  0  0  0  0  0  0  0  0  0  0
    3.1120   -7.5396    3.7059 H   0  0  0  0  0  0  0  0  0  0  0  0
    0.0136  -10.4124    2.2778 H   0  0  0  0  0  0  0  0  0  0  0  0
   -0.8060   -8.9064    2.1064 H   0  0  0  0  0  0  0  0  0  0  0  0
   -0.7162   -9.6642    3.6856 H   0  0  0  0  0  0  0  0  0  0  0  0
    1.8507   -9.5253    1.1390 H   0  0  0  0  0  0  0  0  0  0  0  0
    2.9556   -8.3626    1.7693 H   0  0  0  0  0  0  0  0  0  0  0  0
    1.4411   -7.8299    1.0727 H   0  0  0  0  0  0  0  0  0  0  0  0
    1.2462  -10.0299    4.7703 H   0  0  0  0  0  0  0  0  0  0  0  0
    1.6222  -11.6545    3.0492 H   0  0  0  0  0  0  0  0  0  0  0  0
    3.1482  -10.9040    2.6167 H   0  0  0  0  0  0  0  0  0  0  0  0
    2.5079  -12.6411    4.9536 H   0  0  0  0  0  0  0  0  0  0  0  0
    4.0654  -13.0435    3.3605 H   0  0  0  0  0  0  0  0  0  0  0  0
    2.5654  -10.9844    6.3111 H   0  0  0  0  0  0  0  0  0  0  0  0
    5.5907  -11.0954    6.1272 H   0  0  0  0  0  0  0  0  0  0  0  0
    4.5069  -12.0481    7.1269 H   0  0  0  0  0  0  0  0  0  0  0  0
    4.6711  -10.3242    7.4158 H   0  0  0  0  0  0  0  0  0  0  0  0
    5.2611  -10.1240    4.1873 H   0  0  0  0  0  0  0  0  0  0  0  0
    5.3349   -8.5166    4.8290 H   0  0  0  0  0  0  0  0  0  0  0  0
    4.5938   -8.8572    3.2702 H   0  0  0  0  0  0  0  0  0  0  0  0
    0.6363   -3.6176    3.2102 H   0  0  0  0  0  0  0  0  0  0  0  0
    0.7315   -3.0147    4.8416 H   0  0  0  0  0  0  0  0  0  0  0  0
   -0.2339   -4.4403    4.4439 H   0  0  0  0  0  0  0  0  0  0  0  0
  1  2  1  0
  1 40  1  0
  1 41  1  0
  1 42  1  0
  2  3  1  0
  2  5  1  0
  2 43  1  6
  3  4  1  0
  3 44  1  0
  3 45  1  0
  4 46  1  0
  5 37  1  0
  5  6  1  0
  5 47  1  1
  6  7  1  0
  6 48  1  0
  6 49  1  0
  7 21  1  0
  7  8  1  0
  7 50  1  1
  8  9  2  0
  8 10  1  0
 10 11  1  0
 10 12  1  0
 10 13  1  0
 11 51  1  0
 11 52  1  0
 11 53  1  0
 12 54  1  0
 12 55  1  0
 12 56  1  0
 13 14  2  0
 13 15  1  0
 15 16  1  0
 15 57  1  0
 15 58  1  0
 16 23  1  0
 16 17  2  0
 17 18  1  0
 17 59  1  0
 18 19  1  0
 18 20  1  0
 18 60  1  1
 19 61  1  0
 20 35  1  0
 20 21  1  0
 20 62  1  1
 21 39  1  1
 21 22  1  0
 22 23  1  0
 22 63  1  0
 22 64  1  0
 23 24  1  0
 23 37  1  6
 24 25  2  0
 24 26  1  0
 26 27  1  0
 26 28  1  0
 26 29  1  0
 27 65  1  0
 27 66  1  0
 27 67  1  0
 28 68  1  0
 28 69  1  0
 28 70  1  0
 29 35  1  0
 29 30  1  0
 29 71  1  1
 30 31  1  0
 30 72  1  0
 30 73  1  0
 31 32  1  0
 31 33  1  0
 31 74  1  1
 32 75  1  0
 33 34  1  0
 33 35  1  0
 33 76  1  1
 34 77  1  0
 34 78  1  0
 34 79  1  0
 35 36  1  6
 36 80  1  0
 36 81  1  0
 36 82  1  0
 37 38  1  0
 37 39  1  0
 38 83  1  0
 38 84  1  0
 38 85  1  0
M  END
>  <i_m_ct_stereo_status>  (58) 
1

>  <s_m_source_file>  (58) 
/var/tmp/pbs.5076255.sched01/tmpnm8fzmj1/0q4giu30i.sdf

>  <i_m_source_file_index>  (58) 
28

>  <i_lp_mmshare_version>  (58) 
48012

>  <i_f3d_flags>  (58) 
0

>  <s_epik_input>  (58) 
W09IXVtDSDJdW0NAQEhdKFtDSDNdKVtDQEhdKFtDSDJdW0NAQEhdMVtDQF0yMzQpW0NAQF0oTzQpKFtDSDNdKVtDQEBdNShbQ0gyXTMpQyhbQ0gyXUMoPU8pQyhDMT1PKShbQ0gzXSlbQ0gzXSk9W0NIXVtDQEBIXShbT0hdKVtDQEBIXTJbQ0BdNihbQ0gzXSlbQ0BASF0oQyhDNT1PKShbQ0gzXSlbQ0gzXSlbQ0gyXVtDQEBIXShbT0hdKVtDQEhdNltDSDNd

>  <s_epik_cmdline>  (58) 
J2VwaWtfcHl0aG9uJywgJy1waHQnLCAnMi4wJywgJy1waCcsICc3LjAnLCAnLXRuJywgJzgnLCAnLW1hJywgJzIwMCcsICctaW1hZScsICc8aW5maWxlLm1hZT4nLCAnLW9tYWUnLCAnPG91dGZpbGUubWFlPic=

>  <r_lp_tautomer_probability>  (58) 
1

>  <r_epik_Ionization_Penalty>  (58) 
1.16697e-06

>  <r_epik_Ionization_Penalty_Charging>  (58) 
0

>  <r_epik_Ionization_Penalty_Neutral>  (58) 
1.16697e-06

>  <r_epik_State_Penalty>  (58) 
-0

>  <r_epik_Charging_Adjusted_Penalty>  (58) 
0

>  <i_epik_Tot_Q>  (58) 
0

>  <i_epik_Tot_abs_Q>  (58) 
0

>  <s_lp_Force_Field>  (58) 
OPLS3e

>  <r_lp_Energy>  (58) 
438

>  <b_lp_Chiralities_Consistent>  (58) 
1

>  <s_lp_Variant>  (58) 
17:0-1

>  <s_i_glide_gridfile>  (58) 
pfpi4k_grid

>  <i_i_glide_lignum>  (58) 
28

>  <i_i_glide_rotatable_bonds>  (58) 
5

>  <r_i_docking_score>  (58) 
-2.22228

>  <r_i_glide_ligand_efficiency>  (58) 
-0.0569815

>  <r_i_glide_ligand_efficiency_sa>  (58) 
-0.193236

>  <r_i_glide_ligand_efficiency_ln>  (58) 
-0.476519

>  <r_i_glide_gscore>  (58) 
-2.22228

>  <r_i_glide_lipo>  (58) 
-0.0972704

>  <r_i_glide_hbond>  (58) 
-0.190931

>  <r_i_glide_metal>  (58) 
-0

>  <r_i_glide_rewards>  (58) 
0

>  <r_i_glide_evdw>  (58) 
-22.2184

>  <r_i_glide_ecoul>  (58) 
-6.24236

>  <r_i_glide_erotb>  (58) 
0.140483

>  <r_i_glide_esite>  (58) 
-0.0272873

>  <r_i_glide_emodel>  (58) 
-31.8

>  <r_i_glide_energy>  (58) 
-28.4607

>  <r_i_glide_einternal>  (58) 
0.873497

>  <r_i_glide_intrahb_reward>  (58) 
-0

>  <i_i_glide_confnum>  (58) 
3

>  <i_i_glide_posenum>  (58) 
36

>  <r_i_glide_eff_state_penalty>  (58) 
0

>  <ligand_id>  (58) 
17

>  <original_smiles>  (58) 
CC(CO)C1CC2C(=O)C(C)(C)C(=O)CC3=CC(O)C4C25CC3(C(=O)C(C)(C)C2CC(O)C(C)C24C)C1(C)O5

>  <smiles>  (58) 
[H]OC([H])([H])C([H])(C([H])([H])[H])C1([H])C([H])([H])C2([H])C(=O)C(C([H])([H])[H])(C([H])([H])[H])C(=O)C([H])([H])C3=C([H])C([H])(O[H])C4([H])C25OC1(C([H])([H])[H])C3(C(=O)C(C([H])([H])[H])(C([H])([H])[H])C1([H])C([H])([H])C([H])(O[H])C([H])(C([H])([H])[H])C41C([H])([H])[H])C5([H])[H]

$$$$
18:0:0
     RDKit          3D

 74 79  0  0  1  0  0  0  0  0999 V2000
    7.5899   -3.6196    0.2888 C   0  0  0  0  0  0  0  0  0  0  0  0
    6.1902   -4.1461    0.5506 C   0  0  0  0  0  0  0  0  0  0  0  0
    5.9113   -4.9107    1.6383 C   0  0  0  0  0  0  0  0  0  0  0  0
    4.5100   -5.4481    1.8320 C   0  0  1  0  0  0  0  0  0  0  0  0
    4.2052   -6.8331    2.5594 C   0  0  2  0  0  0  0  0  0  0  0  0
    3.6117   -7.8195    1.5344 C   0  0  1  0  0  0  0  0  0  0  0  0
    4.6052   -8.4260    0.5087 C   0  0  0  0  0  0  0  0  0  0  0  0
    2.9809   -8.8466    2.3768 C   0  0  1  0  0  0  0  0  0  0  0  0
    4.1260   -9.4176    3.3557 C   0  0  0  0  0  0  0  0  0  0  0  0
    4.7703   -8.3976    4.3838 C   0  0  1  0  0  0  0  0  0  0  0  0
    6.3149   -8.2739    4.3285 C   0  0  0  0  0  0  0  0  0  0  0  0
    3.9017   -7.1290    4.1861 C   0  0  1  0  0  0  0  0  0  0  0  0
    4.0419   -5.6999    4.7353 C   0  0  0  0  0  0  0  0  0  0  0  0
    2.6937   -4.9280    4.3987 C   0  0  1  0  0  0  0  0  0  0  0  0
    2.6265   -3.4411    4.8282 C   0  0  0  0  0  0  0  0  0  0  0  0
    1.8484   -5.4209    3.0784 C   0  0  2  0  0  0  0  0  0  0  0  0
    1.2463   -6.7546    3.1135 O   0  0  0  0  0  0  0  0  0  0  0  0
    1.5815   -8.2042    2.8129 C   0  0  2  0  0  0  0  0  0  0  0  0
    0.9607   -9.0934    3.9268 C   0  0  2  0  0  0  0  0  0  0  0  0
    0.7626  -10.5805    3.5032 C   0  0  0  0  0  0  0  0  0  0  0  0
   -0.4329   -8.5025    4.3265 C   0  0  1  0  0  0  0  0  0  0  0  0
   -1.5323   -9.0537    3.6514 O   0  0  0  0  0  0  0  0  0  0  0  0
   -0.5562   -8.6419    5.6858 O   0  0  0  0  0  0  0  0  0  0  0  0
    0.6216   -8.8420    6.2615 C   0  0  0  0  0  0  0  0  0  0  0  0
    0.8011   -8.9075    7.4747 O   0  0  0  0  0  0  0  0  0  0  0  0
    1.7602   -8.9500    5.2309 C   0  0  1  0  0  0  0  0  0  0  0  0
    2.4942  -10.0832    5.6731 O   0  0  0  0  0  0  0  0  0  0  0  0
    2.6637   -7.6462    5.2051 C   0  0  0  0  0  0  0  0  0  0  0  0
    2.1792   -4.9275    1.7893 O   0  0  0  0  0  0  0  0  0  0  0  0
    3.4593   -4.3872    1.4707 C   0  0  1  0  0  0  0  0  0  0  0  0
    3.6596   -2.9811    2.0857 C   0  0  0  0  0  0  0  0  0  0  0  0
    3.6171   -4.1297   -0.0655 C   0  0  0  0  0  0  0  0  0  0  0  0
    5.0982   -3.7752   -0.4856 C   0  0  1  0  0  0  0  0  0  0  0  0
    5.1876   -2.4001   -0.8290 O   0  0  0  0  0  0  0  0  0  0  0  0
    7.6174   -2.5299    0.3461 H   0  0  0  0  0  0  0  0  0  0  0  0
    7.9338   -3.9157   -0.7039 H   0  0  0  0  0  0  0  0  0  0  0  0
    8.2946   -4.0110    1.0237 H   0  0  0  0  0  0  0  0  0  0  0  0
    6.6642   -5.1654    2.3667 H   0  0  0  0  0  0  0  0  0  0  0  0
    4.5919   -5.9211    0.8650 H   0  0  0  0  0  0  0  0  0  0  0  0
    5.2443   -7.1176    2.4914 H   0  0  0  0  0  0  0  0  0  0  0  0
    2.8386   -7.3284    0.9386 H   0  0  0  0  0  0  0  0  0  0  0  0
    5.5371   -8.7778    0.9490 H   0  0  0  0  0  0  0  0  0  0  0  0
    4.8658   -7.7062   -0.2641 H   0  0  0  0  0  0  0  0  0  0  0  0
    4.1575   -9.2778   -0.0038 H   0  0  0  0  0  0  0  0  0  0  0  0
    2.7202   -9.6877    1.7322 H   0  0  0  0  0  0  0  0  0  0  0  0
    3.8201  -10.3491    3.8153 H   0  0  0  0  0  0  0  0  0  0  0  0
    4.9334   -9.8087    2.7413 H   0  0  0  0  0  0  0  0  0  0  0  0
    4.6440   -8.8009    5.3877 H   0  0  0  0  0  0  0  0  0  0  0  0
    6.7361   -8.2673    3.3243 H   0  0  0  0  0  0  0  0  0  0  0  0
    6.7795   -9.1201    4.8354 H   0  0  0  0  0  0  0  0  0  0  0  0
    6.6487   -7.3731    4.8429 H   0  0  0  0  0  0  0  0  0  0  0  0
    4.2114   -5.7018    5.8125 H   0  0  0  0  0  0  0  0  0  0  0  0
    4.9113   -5.1884    4.3249 H   0  0  0  0  0  0  0  0  0  0  0  0
    1.9857   -5.1381    5.1861 H   0  0  0  0  0  0  0  0  0  0  0  0
    3.5514   -2.8916    4.6914 H   0  0  0  0  0  0  0  0  0  0  0  0
    2.4634   -3.3595    5.9052 H   0  0  0  0  0  0  0  0  0  0  0  0
    1.7976   -2.9087    4.3620 H   0  0  0  0  0  0  0  0  0  0  0  0
    0.9142   -4.8703    3.1886 H   0  0  0  0  0  0  0  0  0  0  0  0
    0.9548   -8.3604    1.9334 H   0  0  0  0  0  0  0  0  0  0  0  0
    0.2144  -11.1442    4.2617 H   0  0  0  0  0  0  0  0  0  0  0  0
    1.7114  -11.0971    3.3511 H   0  0  0  0  0  0  0  0  0  0  0  0
    0.2098  -10.6550    2.5650 H   0  0  0  0  0  0  0  0  0  0  0  0
   -0.5131   -7.4303    4.1764 H   0  0  0  0  0  0  0  0  0  0  0  0
   -1.7828   -9.8504    4.1374 H   0  0  0  0  0  0  0  0  0  0  0  0
    1.8969  -10.7817    5.9153 H   0  0  0  0  0  0  0  0  0  0  0  0
    3.0833   -7.5916    6.2112 H   0  0  0  0  0  0  0  0  0  0  0  0
    1.8413   -6.9791    5.3157 H   0  0  0  0  0  0  0  0  0  0  0  0
    4.0331   -2.2377    1.3850 H   0  0  0  0  0  0  0  0  0  0  0  0
    4.4134   -2.9958    2.8664 H   0  0  0  0  0  0  0  0  0  0  0  0
    2.7207   -2.5518    2.4262 H   0  0  0  0  0  0  0  0  0  0  0  0
    3.3115   -5.0259   -0.6087 H   0  0  0  0  0  0  0  0  0  0  0  0
    2.9153   -3.3658   -0.4092 H   0  0  0  0  0  0  0  0  0  0  0  0
    5.3270   -4.3240   -1.4012 H   0  0  0  0  0  0  0  0  0  0  0  0
    4.3308   -2.0989   -1.0953 H   0  0  0  0  0  0  0  0  0  0  0  0
  1  2  1  0
  1 35  1  0
  1 36  1  0
  1 37  1  0
  2 33  1  0
  2  3  2  0
  3  4  1  0
  3 38  1  0
  4 30  1  0
  4  5  1  0
  4 39  1  6
  5 12  1  0
  5  6  1  0
  5 40  1  1
  6  7  1  0
  6  8  1  0
  6 41  1  6
  7 42  1  0
  7 43  1  0
  7 44  1  0
  8 18  1  0
  8  9  1  0
  8 45  1  6
  9 10  1  0
  9 46  1  0
  9 47  1  0
 10 11  1  0
 10 12  1  0
 10 48  1  1
 11 49  1  0
 11 50  1  0
 11 51  1  0
 12 28  1  6
 12 13  1  0
 13 14  1  0
 13 52  1  0
 13 53  1  0
 14 15  1  0
 14 16  1  0
 14 54  1  1
 15 55  1  0
 15 56  1  0
 15 57  1  0
 16 17  1  0
 16 29  1  0
 16 58  1  1
 17 18  1  0
 18 19  1  0
 18 59  1  6
 19 26  1  0
 19 20  1  6
 19 21  1  0
 20 60  1  0
 20 61  1  0
 20 62  1  0
 21 22  1  0
 21 23  1  0
 21 63  1  1
 22 64  1  0
 23 24  1  0
 24 25  2  0
 24 26  1  0
 26 27  1  1
 26 28  1  0
 27 65  1  0
 28 66  1  0
 28 67  1  0
 29 30  1  0
 30 31  1  1
 30 32  1  0
 31 68  1  0
 31 69  1  0
 31 70  1  0
 32 33  1  0
 32 71  1  0
 32 72  1  0
 33 34  1  0
 33 73  1  6
 34 74  1  0
M  END
>  <i_m_ct_stereo_status>  (59) 
1

>  <s_m_source_file>  (59) 
/var/tmp/pbs.5076255.sched01/tmpnm8fzmj1/0q4giu30i.sdf

>  <i_m_source_file_index>  (59) 
29

>  <i_lp_mmshare_version>  (59) 
48012

>  <i_f3d_flags>  (59) 
0

>  <s_epik_input>  (59) 
W0NIM11DKD1bQ0hdMSlbQ0BIXShbT0hdKVtDSDJdW0NAXShbQ0gzXSkoW0NAQEhdMVtDQEhdMltDQEBdMzQ1KU9bQ0BIXShbQ0BASF0oW0NIMl00KVtDSDNdKU9bQ0BASF0oW0NAQEhdKFtDQEBIXTJbQ0gzXSlbQ0gyXVtDQEhdM1tDSDNdKVtDQEBdNihbQ0gzXSlbQ0BAXShbT0hdKShbQ0gyXTUpQyg9TylPW0NAQEhdNltPSF0=

>  <s_epik_cmdline>  (59) 
J2VwaWtfcHl0aG9uJywgJy1waHQnLCAnMi4wJywgJy1waCcsICc3LjAnLCAnLXRuJywgJzgnLCAnLW1hJywgJzIwMCcsICctaW1hZScsICc8aW5maWxlLm1hZT4nLCAnLW9tYWUnLCAnPG91dGZpbGUubWFlPic=

>  <r_lp_tautomer_probability>  (59) 
1

>  <r_epik_Ionization_Penalty>  (59) 
4.43105e-06

>  <r_epik_Ionization_Penalty_Charging>  (59) 
0

>  <r_epik_Ionization_Penalty_Neutral>  (59) 
4.43105e-06

>  <r_epik_State_Penalty>  (59) 
-0

>  <r_epik_Charging_Adjusted_Penalty>  (59) 
0

>  <i_epik_Tot_Q>  (59) 
0

>  <i_epik_Tot_abs_Q>  (59) 
0

>  <s_epik_Chemistry_Notes>  (59) 
This compound has an ester and may undergo hydrolysis at high or low pH. This compound contains an acetal/aminal-like group ( X-CH(R)-Y where X, Y are N, S, or O) that may be acid/base labile, releasing an aldehyde.

>  <s_lp_Force_Field>  (59) 
OPLS3e

>  <r_lp_Energy>  (59) 
288.321

>  <b_lp_Chiralities_Consistent>  (59) 
1

>  <s_lp_Variant>  (59) 
18:0-1

>  <s_i_glide_gridfile>  (59) 
pfpi4k_grid

>  <i_i_glide_lignum>  (59) 
29

>  <i_i_glide_rotatable_bonds>  (59) 
3

>  <r_i_docking_score>  (59) 
-3.46166

>  <r_i_glide_ligand_efficiency>  (59) 
-0.101814

>  <r_i_glide_ligand_efficiency_sa>  (59) 
-0.329837

>  <r_i_glide_ligand_efficiency_ln>  (59) 
-0.764779

>  <r_i_glide_gscore>  (59) 
-3.46166

>  <r_i_glide_lipo>  (59) 
-0.47634

>  <r_i_glide_hbond>  (59) 
0

>  <r_i_glide_metal>  (59) 
-0

>  <r_i_glide_rewards>  (59) 
-0.15953

>  <r_i_glide_evdw>  (59) 
-29.7699

>  <r_i_glide_ecoul>  (59) 
-8.08998

>  <r_i_glide_erotb>  (59) 
0

>  <r_i_glide_esite>  (59) 
-0.123803

>  <r_i_glide_emodel>  (59) 
-44.6378

>  <r_i_glide_energy>  (59) 
-37.8599

>  <r_i_glide_einternal>  (59) 
3.90267

>  <r_i_glide_intrahb_reward>  (59) 
-0

>  <i_i_glide_confnum>  (59) 
1

>  <i_i_glide_posenum>  (59) 
36

>  <r_i_glide_eff_state_penalty>  (59) 
0

>  <ligand_id>  (59) 
18

>  <original_smiles>  (59) 
CC1=CC2C3C(C)C4CC(C)C35CC(C)C(OC4C3(C)C(O)OC(=O)C3(O)C5)OC2(C)CC1O

>  <smiles>  (59) 
[H]OC1([H])OC(=O)C2(O[H])C([H])([H])C34C([H])([H])C([H])(C([H])([H])[H])C5([H])OC([H])(C([H])(C([H])([H])C3([H])C([H])([H])[H])C([H])(C([H])([H])[H])C4([H])C3([H])C([H])=C(C([H])([H])[H])C([H])(O[H])C([H])([H])C3(C([H])([H])[H])O5)C12C([H])([H])[H]

$$$$
18:0:1
     RDKit          3D

 74 79  0  0  1  0  0  0  0  0999 V2000
    7.6187   -3.5047   -0.0860 C   0  0  0  0  0  0  0  0  0  0  0  0
    6.2329   -4.0040    0.2955 C   0  0  0  0  0  0  0  0  0  0  0  0
    6.0232   -4.7319    1.4170 C   0  0  0  0  0  0  0  0  0  0  0  0
    4.6315   -5.2449    1.7282 C   0  0  1  0  0  0  0  0  0  0  0  0
    4.3651   -6.6022    2.5193 C   0  0  2  0  0  0  0  0  0  0  0  0
    3.6923   -7.6157    1.5703 C   0  0  1  0  0  0  0  0  0  0  0  0
    4.6121   -8.2677    0.5019 C   0  0  0  0  0  0  0  0  0  0  0  0
    3.1085   -8.6033    2.4903 C   0  0  1  0  0  0  0  0  0  0  0  0
    4.3103   -9.1611    3.4038 C   0  0  0  0  0  0  0  0  0  0  0  0
    5.0424   -8.1184    4.3476 C   0  0  1  0  0  0  0  0  0  0  0  0
    6.5801   -8.0206    4.1791 C   0  0  0  0  0  0  0  0  0  0  0  0
    4.1772   -6.8430    4.1758 C   0  0  1  0  0  0  0  0  0  0  0  0
    4.3744   -5.3990    4.6647 C   0  0  0  0  0  0  0  0  0  0  0  0
    3.0145   -4.6189    4.4005 C   0  0  1  0  0  0  0  0  0  0  0  0
    2.9984   -3.1184    4.7875 C   0  0  0  0  0  0  0  0  0  0  0  0
    2.0684   -5.1393    3.1617 C   0  0  2  0  0  0  0  0  0  0  0  0
    1.4595   -6.4644    3.2818 O   0  0  0  0  0  0  0  0  0  0  0  0
    1.7530   -7.9274    3.0100 C   0  0  2  0  0  0  0  0  0  0  0  0
    1.1966   -8.7705    4.1950 C   0  0  2  0  0  0  0  0  0  0  0  0
    0.9547  -10.2681    3.8329 C   0  0  0  0  0  0  0  0  0  0  0  0
   -0.1570   -8.1446    4.6840 C   0  0  1  0  0  0  0  0  0  0  0  0
   -1.3148   -8.6790    4.0785 O   0  0  0  0  0  0  0  0  0  0  0  0
   -0.1758   -8.2232    6.0562 O   0  0  0  0  0  0  0  0  0  0  0  0
    1.0436   -8.4362    6.5454 C   0  0  0  0  0  0  0  0  0  0  0  0
    1.3206   -8.4849    7.7413 O   0  0  0  0  0  0  0  0  0  0  0  0
    2.1004   -8.6010    5.4280 C   0  0  1  0  0  0  0  0  0  0  0  0
    2.8473   -9.7327    5.8545 O   0  0  0  0  0  0  0  0  0  0  0  0
    3.0126   -7.3093    5.2974 C   0  0  0  0  0  0  0  0  0  0  0  0
    2.3081   -4.6870    1.8388 O   0  0  0  0  0  0  0  0  0  0  0  0
    3.5702   -4.1799    1.4080 C   0  0  1  0  0  0  0  0  0  0  0  0
    3.8347   -2.7594    1.9645 C   0  0  0  0  0  0  0  0  0  0  0  0
    3.6220   -3.9716   -0.1445 C   0  0  0  0  0  0  0  0  0  0  0  0
    5.0754   -3.6494   -0.6750 C   0  0  1  0  0  0  0  0  0  0  0  0
    5.1669   -2.2964   -1.0951 O   0  0  0  0  0  0  0  0  0  0  0  0
    7.6667   -2.4157   -0.0628 H   0  0  0  0  0  0  0  0  0  0  0  0
    7.8846   -3.8363   -1.0905 H   0  0  0  0  0  0  0  0  0  0  0  0
    8.3680   -3.8899    0.6051 H   0  0  0  0  0  0  0  0  0  0  0  0
    6.8236   -4.9792    2.0982 H   0  0  0  0  0  0  0  0  0  0  0  0
    4.6384   -5.7473    0.7742 H   0  0  0  0  0  0  0  0  0  0  0  0
    5.3920   -6.9024    2.3891 H   0  0  0  0  0  0  0  0  0  0  0  0
    2.8846   -7.1339    1.0157 H   0  0  0  0  0  0  0  0  0  0  0  0
    5.5675   -8.6224    0.8912 H   0  0  0  0  0  0  0  0  0  0  0  0
    4.8224   -7.5713   -0.3087 H   0  0  0  0  0  0  0  0  0  0  0  0
    4.1179   -9.1251    0.0456 H   0  0  0  0  0  0  0  0  0  0  0  0
    2.7897   -9.4593    1.8942 H   0  0  0  0  0  0  0  0  0  0  0  0
    4.0255  -10.0730    3.9141 H   0  0  0  0  0  0  0  0  0  0  0  0
    5.0660   -9.5861    2.7493 H   0  0  0  0  0  0  0  0  0  0  0  0
    4.9828   -8.4896    5.3692 H   0  0  0  0  0  0  0  0  0  0  0  0
    6.9262   -8.0509    3.1458 H   0  0  0  0  0  0  0  0  0  0  0  0
    7.0715   -8.8573    4.6773 H   0  0  0  0  0  0  0  0  0  0  0  0
    6.9605   -7.1087    4.6380 H   0  0  0  0  0  0  0  0  0  0  0  0
    4.6216   -5.3706    5.7260 H   0  0  0  0  0  0  0  0  0  0  0  0
    5.2179   -4.9162    4.1761 H   0  0  0  0  0  0  0  0  0  0  0  0
    2.3632   -4.7945    5.2448 H   0  0  0  0  0  0  0  0  0  0  0  0
    3.9177   -2.5870    4.5676 H   0  0  0  0  0  0  0  0  0  0  0  0
    2.9154   -3.0021    5.8705 H   0  0  0  0  0  0  0  0  0  0  0  0
    2.1452   -2.5883    4.3672 H   0  0  0  0  0  0  0  0  0  0  0  0
    1.1498   -4.5758    3.3230 H   0  0  0  0  0  0  0  0  0  0  0  0
    1.0622   -8.1020    2.1854 H   0  0  0  0  0  0  0  0  0  0  0  0
    0.4555  -10.8031    4.6431 H   0  0  0  0  0  0  0  0  0  0  0  0
    1.8801  -10.8036    3.6243 H   0  0  0  0  0  0  0  0  0  0  0  0
    0.3341  -10.3632    2.9421 H   0  0  0  0  0  0  0  0  0  0  0  0
   -0.2104   -7.0757    4.5001 H   0  0  0  0  0  0  0  0  0  0  0  0
   -1.4564   -9.5669    4.4155 H   0  0  0  0  0  0  0  0  0  0  0  0
    2.2500  -10.4388    6.0716 H   0  0  0  0  0  0  0  0  0  0  0  0
    3.5051   -7.2277    6.2673 H   0  0  0  0  0  0  0  0  0  0  0  0
    2.2077   -6.6274    5.4404 H   0  0  0  0  0  0  0  0  0  0  0  0
    4.1639   -2.0421    1.2167 H   0  0  0  0  0  0  0  0  0  0  0  0
    4.6424   -2.7643    2.6896 H   0  0  0  0  0  0  0  0  0  0  0  0
    2.9290   -2.3073    2.3604 H   0  0  0  0  0  0  0  0  0  0  0  0
    3.2670   -4.8777   -0.6372 H   0  0  0  0  0  0  0  0  0  0  0  0
    2.9087   -3.2085   -0.4642 H   0  0  0  0  0  0  0  0  0  0  0  0
    5.2416   -4.2377   -1.5786 H   0  0  0  0  0  0  0  0  0  0  0  0
    4.6556   -1.7581   -0.5068 H   0  0  0  0  0  0  0  0  0  0  0  0
  1  2  1  0
  1 35  1  0
  1 36  1  0
  1 37  1  0
  2 33  1  0
  2  3  2  0
  3  4  1  0
  3 38  1  0
  4 30  1  0
  4  5  1  0
  4 39  1  6
  5 12  1  0
  5  6  1  0
  5 40  1  1
  6  7  1  0
  6  8  1  0
  6 41  1  6
  7 42  1  0
  7 43  1  0
  7 44  1  0
  8 18  1  0
  8  9  1  0
  8 45  1  6
  9 10  1  0
  9 46  1  0
  9 47  1  0
 10 11  1  0
 10 12  1  0
 10 48  1  1
 11 49  1  0
 11 50  1  0
 11 51  1  0
 12 28  1  6
 12 13  1  0
 13 14  1  0
 13 52  1  0
 13 53  1  0
 14 15  1  0
 14 16  1  0
 14 54  1  1
 15 55  1  0
 15 56  1  0
 15 57  1  0
 16 17  1  0
 16 29  1  0
 16 58  1  1
 17 18  1  0
 18 19  1  0
 18 59  1  6
 19 26  1  0
 19 20  1  6
 19 21  1  0
 20 60  1  0
 20 61  1  0
 20 62  1  0
 21 22  1  0
 21 23  1  0
 21 63  1  1
 22 64  1  0
 23 24  1  0
 24 25  2  0
 24 26  1  0
 26 27  1  1
 26 28  1  0
 27 65  1  0
 28 66  1  0
 28 67  1  0
 29 30  1  0
 30 31  1  1
 30 32  1  0
 31 68  1  0
 31 69  1  0
 31 70  1  0
 32 33  1  0
 32 71  1  0
 32 72  1  0
 33 34  1  0
 33 73  1  6
 34 74  1  0
M  END
>  <i_m_ct_stereo_status>  (60) 
1

>  <s_m_source_file>  (60) 
/var/tmp/pbs.5076255.sched01/tmpnm8fzmj1/0q4giu30i.sdf

>  <i_m_source_file_index>  (60) 
29

>  <i_lp_mmshare_version>  (60) 
48012

>  <i_f3d_flags>  (60) 
0

>  <s_epik_input>  (60) 
W0NIM11DKD1bQ0hdMSlbQ0BIXShbT0hdKVtDSDJdW0NAXShbQ0gzXSkoW0NAQEhdMVtDQEhdMltDQEBdMzQ1KU9bQ0BIXShbQ0BASF0oW0NIMl00KVtDSDNdKU9bQ0BASF0oW0NAQEhdKFtDQEBIXTJbQ0gzXSlbQ0gyXVtDQEhdM1tDSDNdKVtDQEBdNihbQ0gzXSlbQ0BAXShbT0hdKShbQ0gyXTUpQyg9TylPW0NAQEhdNltPSF0=

>  <s_epik_cmdline>  (60) 
J2VwaWtfcHl0aG9uJywgJy1waHQnLCAnMi4wJywgJy1waCcsICc3LjAnLCAnLXRuJywgJzgnLCAnLW1hJywgJzIwMCcsICctaW1hZScsICc8aW5maWxlLm1hZT4nLCAnLW9tYWUnLCAnPG91dGZpbGUubWFlPic=

>  <r_lp_tautomer_probability>  (60) 
1

>  <r_epik_Ionization_Penalty>  (60) 
4.43105e-06

>  <r_epik_Ionization_Penalty_Charging>  (60) 
0

>  <r_epik_Ionization_Penalty_Neutral>  (60) 
4.43105e-06

>  <r_epik_State_Penalty>  (60) 
-0

>  <r_epik_Charging_Adjusted_Penalty>  (60) 
0

>  <i_epik_Tot_Q>  (60) 
0

>  <i_epik_Tot_abs_Q>  (60) 
0

>  <s_epik_Chemistry_Notes>  (60) 
This compound has an ester and may undergo hydrolysis at high or low pH. This compound contains an acetal/aminal-like group ( X-CH(R)-Y where X, Y are N, S, or O) that may be acid/base labile, releasing an aldehyde.

>  <s_lp_Force_Field>  (60) 
OPLS3e

>  <r_lp_Energy>  (60) 
288.321

>  <b_lp_Chiralities_Consistent>  (60) 
1

>  <s_lp_Variant>  (60) 
18:0-1

>  <s_i_glide_gridfile>  (60) 
pfpi4k_grid

>  <i_i_glide_lignum>  (60) 
29

>  <i_i_glide_rotatable_bonds>  (60) 
3

>  <r_i_docking_score>  (60) 
-3.18197

>  <r_i_glide_ligand_efficiency>  (60) 
-0.0935874

>  <r_i_glide_ligand_efficiency_sa>  (60) 
-0.303187

>  <r_i_glide_ligand_efficiency_ln>  (60) 
-0.702987

>  <r_i_glide_gscore>  (60) 
-3.18197

>  <r_i_glide_lipo>  (60) 
-0.468284

>  <r_i_glide_hbond>  (60) 
0

>  <r_i_glide_metal>  (60) 
-0

>  <r_i_glide_rewards>  (60) 
-0.15953

>  <r_i_glide_evdw>  (60) 
-29.0069

>  <r_i_glide_ecoul>  (60) 
-6.84476

>  <r_i_glide_erotb>  (60) 
0

>  <r_i_glide_esite>  (60) 
-0.0770989

>  <r_i_glide_emodel>  (60) 
-42.9598

>  <r_i_glide_energy>  (60) 
-35.8517

>  <r_i_glide_einternal>  (60) 
2.39152

>  <r_i_glide_intrahb_reward>  (60) 
-0

>  <i_i_glide_confnum>  (60) 
1

>  <i_i_glide_posenum>  (60) 
10

>  <r_i_glide_eff_state_penalty>  (60) 
0

>  <ligand_id>  (60) 
18

>  <original_smiles>  (60) 
CC1=CC2C3C(C)C4CC(C)C35CC(C)C(OC4C3(C)C(O)OC(=O)C3(O)C5)OC2(C)CC1O

>  <smiles>  (60) 
[H]OC1([H])OC(=O)C2(O[H])C([H])([H])C34C([H])([H])C([H])(C([H])([H])[H])C5([H])OC([H])(C([H])(C([H])([H])C3([H])C([H])([H])[H])C([H])(C([H])([H])[H])C4([H])C3([H])C([H])=C(C([H])([H])[H])C([H])(O[H])C([H])([H])C3(C([H])([H])[H])O5)C12C([H])([H])[H]

$$$$
18:0:2
     RDKit          3D

 74 79  0  0  1  0  0  0  0  0999 V2000
    4.6224   -4.4566   -4.3058 C   0  0  0  0  0  0  0  0  0  0  0  0
    4.2943   -3.7305   -3.0464 C   0  0  0  0  0  0  0  0  0  0  0  0
    4.7251   -4.1650   -1.8534 C   0  0  0  0  0  0  0  0  0  0  0  0
    4.1319   -3.5940   -0.6000 C   0  0  1  0  0  0  0  0  0  0  0  0
    3.9829   -4.4008    0.7632 C   0  0  2  0  0  0  0  0  0  0  0  0
    2.4981   -4.5618    1.1109 C   0  0  1  0  0  0  0  0  0  0  0  0
    1.7159   -5.6349    0.2971 C   0  0  0  0  0  0  0  0  0  0  0  0
    2.5112   -4.8456    2.5548 C   0  0  1  0  0  0  0  0  0  0  0  0
    3.4297   -6.1478    2.7481 C   0  0  0  0  0  0  0  0  0  0  0  0
    4.9444   -6.0219    2.3318 C   0  0  1  0  0  0  0  0  0  0  0  0
    5.4604   -7.0678    1.3155 C   0  0  0  0  0  0  0  0  0  0  0  0
    5.0781   -4.5174    2.0127 C   0  0  1  0  0  0  0  0  0  0  0  0
    6.2230   -3.7026    1.4025 C   0  0  0  0  0  0  0  0  0  0  0  0
    5.8664   -2.1716    1.5763 C   0  0  1  0  0  0  0  0  0  0  0  0
    6.8516   -1.1805    0.9404 C   0  0  0  0  0  0  0  0  0  0  0  0
    4.2761   -1.7584    1.6393 C   0  0  2  0  0  0  0  0  0  0  0  0
    3.5074   -2.2226    2.7929 O   0  0  0  0  0  0  0  0  0  0  0  0
    2.7067   -3.4163    3.2622 C   0  0  2  0  0  0  0  0  0  0  0  0
    3.0056   -3.6400    4.7640 C   0  0  2  0  0  0  0  0  0  0  0  0
    1.9327   -4.4769    5.5125 C   0  0  0  0  0  0  0  0  0  0  0  0
    3.1627   -2.2691    5.4830 C   0  0  1  0  0  0  0  0  0  0  0  0
    1.9493   -1.8193    6.0937 O   0  0  0  0  0  0  0  0  0  0  0  0
    4.2189   -2.3767    6.3783 O   0  0  0  0  0  0  0  0  0  0  0  0
    4.9489   -3.4274    6.0868 C   0  0  0  0  0  0  0  0  0  0  0  0
    6.0059   -3.7454    6.7043 O   0  0  0  0  0  0  0  0  0  0  0  0
    4.4155   -4.2532    4.9198 C   0  0  1  0  0  0  0  0  0  0  0  0
    4.4762   -5.5896    5.3782 O   0  0  0  0  0  0  0  0  0  0  0  0
    5.2579   -4.0428    3.6084 C   0  0  0  0  0  0  0  0  0  0  0  0
    3.5498   -1.5687    0.4459 O   0  0  0  0  0  0  0  0  0  0  0  0
    3.9945   -2.0867   -0.8013 C   0  0  1  0  0  0  0  0  0  0  0  0
    5.2042   -1.3450   -1.4096 C   0  0  0  0  0  0  0  0  0  0  0  0
    2.9699   -1.9021   -1.9433 C   0  0  0  0  0  0  0  0  0  0  0  0
    3.2238   -2.6666   -3.2373 C   0  0  1  0  0  0  0  0  0  0  0  0
    3.4954   -1.8331   -4.3550 O   0  0  0  0  0  0  0  0  0  0  0  0
    5.1714   -3.8972   -5.0558 H   0  0  0  0  0  0  0  0  0  0  0  0
    3.7248   -4.8820   -4.6768 H   0  0  0  0  0  0  0  0  0  0  0  0
    4.9767   -5.4042   -3.9678 H   0  0  0  0  0  0  0  0  0  0  0  0
    5.3998   -4.9964   -1.7430 H   0  0  0  0  0  0  0  0  0  0  0  0
    3.1591   -3.9336   -0.9368 H   0  0  0  0  0  0  0  0  0  0  0  0
    4.1371   -5.3485    0.2487 H   0  0  0  0  0  0  0  0  0  0  0  0
    1.9889   -3.6020    0.9592 H   0  0  0  0  0  0  0  0  0  0  0  0
    2.2501   -6.5776    0.2053 H   0  0  0  0  0  0  0  0  0  0  0  0
    1.4791   -5.2890   -0.7113 H   0  0  0  0  0  0  0  0  0  0  0  0
    0.7629   -5.8776    0.7687 H   0  0  0  0  0  0  0  0  0  0  0  0
    1.5095   -5.1613    2.8383 H   0  0  0  0  0  0  0  0  0  0  0  0
    3.2758   -6.6092    3.7206 H   0  0  0  0  0  0  0  0  0  0  0  0
    3.0046   -6.9535    2.1453 H   0  0  0  0  0  0  0  0  0  0  0  0
    5.5639   -6.2856    3.1980 H   0  0  0  0  0  0  0  0  0  0  0  0
    4.7735   -7.2867    0.5021 H   0  0  0  0  0  0  0  0  0  0  0  0
    5.6440   -8.0216    1.8140 H   0  0  0  0  0  0  0  0  0  0  0  0
    6.4099   -6.7484    0.8805 H   0  0  0  0  0  0  0  0  0  0  0  0
    7.1694   -3.9327    1.8999 H   0  0  0  0  0  0  0  0  0  0  0  0
    6.4078   -3.9616    0.3591 H   0  0  0  0  0  0  0  0  0  0  0  0
    6.2009   -1.8517    2.5455 H   0  0  0  0  0  0  0  0  0  0  0  0
    7.3281   -1.4940    0.0213 H   0  0  0  0  0  0  0  0  0  0  0  0
    7.7191   -1.0538    1.5925 H   0  0  0  0  0  0  0  0  0  0  0  0
    6.4187   -0.1837    0.8539 H   0  0  0  0  0  0  0  0  0  0  0  0
    4.3074   -0.7073    1.9349 H   0  0  0  0  0  0  0  0  0  0  0  0
    1.7064   -2.9861    3.2312 H   0  0  0  0  0  0  0  0  0  0  0  0
    2.1278   -4.5239    6.5848 H   0  0  0  0  0  0  0  0  0  0  0  0
    1.8838   -5.5086    5.1522 H   0  0  0  0  0  0  0  0  0  0  0  0
    0.9476   -4.0454    5.3555 H   0  0  0  0  0  0  0  0  0  0  0  0
    3.4753   -1.4602    4.8225 H   0  0  0  0  0  0  0  0  0  0  0  0
    1.6600   -2.4731    6.6839 H   0  0  0  0  0  0  0  0  0  0  0  0
    4.0396   -5.6546    6.1992 H   0  0  0  0  0  0  0  0  0  0  0  0
    6.2129   -4.4734    3.9015 H   0  0  0  0  0  0  0  0  0  0  0  0
    5.4395   -2.9990    3.7775 H   0  0  0  0  0  0  0  0  0  0  0  0
    5.0710   -1.0589   -2.4559 H   0  0  0  0  0  0  0  0  0  0  0  0
    6.0811   -1.9766   -1.4353 H   0  0  0  0  0  0  0  0  0  0  0  0
    5.3428   -0.3879   -0.9126 H   0  0  0  0  0  0  0  0  0  0  0  0
    2.0446   -2.3876   -1.6151 H   0  0  0  0  0  0  0  0  0  0  0  0
    2.7212   -0.8497   -2.1553 H   0  0  0  0  0  0  0  0  0  0  0  0
    2.3047   -3.2073   -3.5089 H   0  0  0  0  0  0  0  0  0  0  0  0
    2.6973   -1.7330   -4.8399 H   0  0  0  0  0  0  0  0  0  0  0  0
  1  2  1  0
  1 35  1  0
  1 36  1  0
  1 37  1  0
  2 33  1  0
  2  3  2  0
  3  4  1  0
  3 38  1  0
  4 30  1  0
  4  5  1  0
  4 39  1  6
  5 12  1  0
  5  6  1  0
  5 40  1  6
  6  7  1  0
  6  8  1  0
  6 41  1  1
  7 42  1  0
  7 43  1  0
  7 44  1  0
  8 18  1  0
  8  9  1  0
  8 45  1  1
  9 10  1  0
  9 46  1  0
  9 47  1  0
 10 11  1  0
 10 12  1  0
 10 48  1  1
 11 49  1  0
 11 50  1  0
 11 51  1  0
 12 28  1  1
 12 13  1  0
 13 14  1  0
 13 52  1  0
 13 53  1  0
 14 15  1  0
 14 16  1  0
 14 54  1  1
 15 55  1  0
 15 56  1  0
 15 57  1  0
 16 17  1  0
 16 29  1  0
 16 58  1  1
 17 18  1  0
 18 19  1  0
 18 59  1  1
 19 26  1  0
 19 20  1  1
 19 21  1  0
 20 60  1  0
 20 61  1  0
 20 62  1  0
 21 22  1  0
 21 23  1  0
 21 63  1  6
 22 64  1  0
 23 24  1  0
 24 25  2  0
 24 26  1  0
 26 27  1  1
 26 28  1  0
 27 65  1  0
 28 66  1  0
 28 67  1  0
 29 30  1  0
 30 31  1  6
 30 32  1  0
 31 68  1  0
 31 69  1  0
 31 70  1  0
 32 33  1  0
 32 71  1  0
 32 72  1  0
 33 34  1  0
 33 73  1  6
 34 74  1  0
M  END
>  <i_m_ct_stereo_status>  (61) 
1

>  <s_m_source_file>  (61) 
/var/tmp/pbs.5076255.sched01/tmpnm8fzmj1/0q4giu30i.sdf

>  <i_m_source_file_index>  (61) 
29

>  <i_lp_mmshare_version>  (61) 
48012

>  <i_f3d_flags>  (61) 
0

>  <s_epik_input>  (61) 
W0NIM11DKD1bQ0hdMSlbQ0BIXShbT0hdKVtDSDJdW0NAXShbQ0gzXSkoW0NAQEhdMVtDQEhdMltDQEBdMzQ1KU9bQ0BIXShbQ0BASF0oW0NIMl00KVtDSDNdKU9bQ0BASF0oW0NAQEhdKFtDQEBIXTJbQ0gzXSlbQ0gyXVtDQEhdM1tDSDNdKVtDQEBdNihbQ0gzXSlbQ0BAXShbT0hdKShbQ0gyXTUpQyg9TylPW0NAQEhdNltPSF0=

>  <s_epik_cmdline>  (61) 
J2VwaWtfcHl0aG9uJywgJy1waHQnLCAnMi4wJywgJy1waCcsICc3LjAnLCAnLXRuJywgJzgnLCAnLW1hJywgJzIwMCcsICctaW1hZScsICc8aW5maWxlLm1hZT4nLCAnLW9tYWUnLCAnPG91dGZpbGUubWFlPic=

>  <r_lp_tautomer_probability>  (61) 
1

>  <r_epik_Ionization_Penalty>  (61) 
4.43105e-06

>  <r_epik_Ionization_Penalty_Charging>  (61) 
0

>  <r_epik_Ionization_Penalty_Neutral>  (61) 
4.43105e-06

>  <r_epik_State_Penalty>  (61) 
-0

>  <r_epik_Charging_Adjusted_Penalty>  (61) 
0

>  <i_epik_Tot_Q>  (61) 
0

>  <i_epik_Tot_abs_Q>  (61) 
0

>  <s_epik_Chemistry_Notes>  (61) 
This compound has an ester and may undergo hydrolysis at high or low pH. This compound contains an acetal/aminal-like group ( X-CH(R)-Y where X, Y are N, S, or O) that may be acid/base labile, releasing an aldehyde.

>  <s_lp_Force_Field>  (61) 
OPLS3e

>  <r_lp_Energy>  (61) 
288.321

>  <b_lp_Chiralities_Consistent>  (61) 
1

>  <s_lp_Variant>  (61) 
18:0-1

>  <s_i_glide_gridfile>  (61) 
pfpi4k_grid

>  <i_i_glide_lignum>  (61) 
29

>  <i_i_glide_rotatable_bonds>  (61) 
3

>  <r_i_docking_score>  (61) 
-2.49858

>  <r_i_glide_ligand_efficiency>  (61) 
-0.0734877

>  <r_i_glide_ligand_efficiency_sa>  (61) 
-0.238072

>  <r_i_glide_ligand_efficiency_ln>  (61) 
-0.552007

>  <r_i_glide_gscore>  (61) 
-2.49858

>  <r_i_glide_lipo>  (61) 
-0.46748

>  <r_i_glide_hbond>  (61) 
-0.566238

>  <r_i_glide_metal>  (61) 
-0

>  <r_i_glide_rewards>  (61) 
-0.169668

>  <r_i_glide_evdw>  (61) 
-14.5139

>  <r_i_glide_ecoul>  (61) 
-3.79668

>  <r_i_glide_erotb>  (61) 
0

>  <r_i_glide_esite>  (61) 
0

>  <r_i_glide_emodel>  (61) 
-21.1675

>  <r_i_glide_energy>  (61) 
-18.3106

>  <r_i_glide_einternal>  (61) 
2.56956

>  <r_i_glide_intrahb_reward>  (61) 
-0

>  <i_i_glide_confnum>  (61) 
2

>  <i_i_glide_posenum>  (61) 
1

>  <r_i_glide_eff_state_penalty>  (61) 
0

>  <ligand_id>  (61) 
18

>  <original_smiles>  (61) 
CC1=CC2C3C(C)C4CC(C)C35CC(C)C(OC4C3(C)C(O)OC(=O)C3(O)C5)OC2(C)CC1O

>  <smiles>  (61) 
[H]OC1([H])OC(=O)C2(O[H])C([H])([H])C34C([H])([H])C([H])(C([H])([H])[H])C5([H])OC([H])(C([H])(C([H])([H])C3([H])C([H])([H])[H])C([H])(C([H])([H])[H])C4([H])C3([H])C([H])=C(C([H])([H])[H])C([H])(O[H])C([H])([H])C3(C([H])([H])[H])O5)C12C([H])([H])[H]

$$$$
20:0:0
     RDKit          3D

 68 75  0  0  1  0  0  0  0  0999 V2000
   -0.3871   -7.5567    2.5425 C   0  0  0  0  0  0  0  0  0  0  0  0
    0.9333   -6.8135    2.5674 C   0  0  0  0  0  0  0  0  0  0  0  0
    1.2097   -5.5442    2.9477 C   0  0  0  0  0  0  0  0  0  0  0  0
    2.7121   -5.3369    2.9559 C   0  0  2  0  0  0  0  0  0  0  0  0
    3.1071   -6.0702    4.1545 O   0  0  0  0  0  0  0  0  0  0  0  0
    3.6823   -5.3784    5.2492 C   0  0  2  0  0  0  0  0  0  0  0  0
    2.8203   -4.1774    5.5941 C   0  0  0  0  0  0  0  0  0  0  0  0
    2.7777   -3.2773    4.3739 C   0  0  0  0  0  0  0  0  0  0  0  0
    3.4205   -3.9143    3.0851 C   0  0  2  0  0  0  0  0  0  0  0  0
    3.1865   -2.7294    2.0337 C   0  0  2  0  0  0  0  0  0  0  0  0
    2.8120   -3.0701    0.5640 C   0  0  0  0  0  0  0  0  0  0  0  0
    4.1289   -3.0853   -0.2022 C   0  0  2  0  0  0  0  0  0  0  0  0
    4.2815   -2.7297   -1.6728 C   0  0  0  0  0  0  0  0  0  0  0  0
    5.4264   -3.6196   -1.7539 O   0  0  0  0  0  0  0  0  0  0  0  0
    4.9972   -4.2858   -0.5295 C   0  0  1  0  0  0  0  0  0  0  0  0
    5.7610   -4.0452    0.7975 C   0  0  1  0  0  0  0  0  0  0  0  0
    7.1367   -3.9353    0.4801 O   0  0  0  0  0  0  0  0  0  0  0  0
    5.1847   -2.5738    0.7475 C   0  0  2  0  0  0  0  0  0  0  0  0
    4.4117   -1.7778    1.8086 C   0  0  0  0  0  0  0  0  0  0  0  0
    3.9027   -0.4359    1.1796 C   0  0  0  0  0  0  0  0  0  0  0  0
    5.2735   -1.2616    2.9957 C   0  0  0  0  0  0  0  0  0  0  0  0
    5.5559   -5.1278    2.0151 C   0  0  2  0  0  0  0  0  0  0  0  0
    6.9671   -5.7642    2.2875 C   0  0  0  0  0  0  0  0  0  0  0  0
    4.6800   -6.4297    1.7152 C   0  0  0  0  0  0  0  0  0  0  0  0
    3.1433   -6.2750    1.7862 C   0  0  2  0  0  0  0  0  0  0  0  0
    2.7073   -5.9891    0.4837 O   0  0  0  0  0  0  0  0  0  0  0  0
    2.1957   -7.4396    2.1018 C   0  0  0  0  0  0  0  0  0  0  0  0
    2.4578   -8.6267    1.9339 O   0  0  0  0  0  0  0  0  0  0  0  0
    4.9546   -4.3950    3.2989 C   0  0  2  0  0  0  0  0  0  0  0  0
    5.1019   -5.0305    4.7680 C   0  0  0  0  0  0  0  0  0  0  0  0
    5.7736   -4.0113    5.7230 C   0  0  0  0  0  0  0  0  0  0  0  0
    5.9093   -6.3331    5.0114 C   0  0  0  0  0  0  0  0  0  0  0  0
   -0.5599   -8.0039    1.5640 H   0  0  0  0  0  0  0  0  0  0  0  0
   -1.2324   -6.9168    2.7859 H   0  0  0  0  0  0  0  0  0  0  0  0
   -0.3603   -8.3641    3.2748 H   0  0  0  0  0  0  0  0  0  0  0  0
    0.5028   -4.8138    3.3111 H   0  0  0  0  0  0  0  0  0  0  0  0
    3.6979   -6.0358    6.1180 H   0  0  0  0  0  0  0  0  0  0  0  0
    1.8172   -4.5023    5.8731 H   0  0  0  0  0  0  0  0  0  0  0  0
    3.2083   -3.6423    6.4616 H   0  0  0  0  0  0  0  0  0  0  0  0
    1.7227   -3.0545    4.2018 H   0  0  0  0  0  0  0  0  0  0  0  0
    3.2075   -2.3160    4.6400 H   0  0  0  0  0  0  0  0  0  0  0  0
    2.3427   -2.1240    2.3756 H   0  0  0  0  0  0  0  0  0  0  0  0
    2.1099   -3.8636    0.4234 H   0  0  0  0  0  0  0  0  0  0  0  0
    2.2220   -2.2476    0.1707 H   0  0  0  0  0  0  0  0  0  0  0  0
    3.4415   -3.0350   -2.2963 H   0  0  0  0  0  0  0  0  0  0  0  0
    4.5595   -1.6843   -1.8473 H   0  0  0  0  0  0  0  0  0  0  0  0
    4.5404   -5.2513   -0.7182 H   0  0  0  0  0  0  0  0  0  0  0  0
    7.1633   -3.5320   -0.3716 H   0  0  0  0  0  0  0  0  0  0  0  0
    5.8919   -1.9309    0.2067 H   0  0  0  0  0  0  0  0  0  0  0  0
    4.7252    0.2592    1.0036 H   0  0  0  0  0  0  0  0  0  0  0  0
    3.1936    0.0622    1.8483 H   0  0  0  0  0  0  0  0  0  0  0  0
    3.4101   -0.5361    0.2140 H   0  0  0  0  0  0  0  0  0  0  0  0
    5.2304   -0.1815    3.1265 H   0  0  0  0  0  0  0  0  0  0  0  0
    6.3215   -1.4906    2.8284 H   0  0  0  0  0  0  0  0  0  0  0  0
    5.0060   -1.6488    3.9686 H   0  0  0  0  0  0  0  0  0  0  0  0
    6.9463   -6.7134    2.8057 H   0  0  0  0  0  0  0  0  0  0  0  0
    7.6163   -5.0829    2.8344 H   0  0  0  0  0  0  0  0  0  0  0  0
    7.4893   -6.0660    1.3786 H   0  0  0  0  0  0  0  0  0  0  0  0
    4.9800   -6.8794    0.7719 H   0  0  0  0  0  0  0  0  0  0  0  0
    4.9109   -7.2135    2.4279 H   0  0  0  0  0  0  0  0  0  0  0  0
    3.2375   -5.2978    0.1223 H   0  0  0  0  0  0  0  0  0  0  0  0
    5.6321   -3.5657    3.3659 H   0  0  0  0  0  0  0  0  0  0  0  0
    6.8141   -3.8598    5.4416 H   0  0  0  0  0  0  0  0  0  0  0  0
    5.7757   -4.3630    6.7566 H   0  0  0  0  0  0  0  0  0  0  0  0
    5.2920   -3.0348    5.7083 H   0  0  0  0  0  0  0  0  0  0  0  0
    6.9797   -6.2016    4.8579 H   0  0  0  0  0  0  0  0  0  0  0  0
    5.5456   -7.1816    4.4356 H   0  0  0  0  0  0  0  0  0  0  0  0
    5.8235   -6.6543    6.0510 H   0  0  0  0  0  0  0  0  0  0  0  0
  1  2  1  0
  1 33  1  0
  1 34  1  0
  1 35  1  0
  2 27  1  0
  2  3  2  0
  4  3  1  1
  3 36  1  0
  4  9  1  0
  4 25  1  0
  4  5  1  0
  5  6  1  0
  6 30  1  0
  6  7  1  0
  6 37  1  1
  7  8  1  0
  7 38  1  0
  7 39  1  0
  9  8  1  1
  8 40  1  0
  8 41  1  0
  9 29  1  0
  9 10  1  0
 10 19  1  0
 10 11  1  0
 10 42  1  1
 12 11  1  1
 11 43  1  0
 11 44  1  0
 12 15  1  0
 12 18  1  0
 12 13  1  0
 13 14  1  0
 13 45  1  0
 13 46  1  0
 14 15  1  0
 15 16  1  0
 15 47  1  6
 16 17  1  6
 16 18  1  0
 16 22  1  0
 17 48  1  0
 18 19  1  0
 18 49  1  6
 19 20  1  0
 19 21  1  0
 20 50  1  0
 20 51  1  0
 20 52  1  0
 21 53  1  0
 21 54  1  0
 21 55  1  0
 22 23  1  1
 22 24  1  0
 22 29  1  0
 23 56  1  0
 23 57  1  0
 23 58  1  0
 24 25  1  0
 24 59  1  0
 24 60  1  0
 25 26  1  6
 25 27  1  0
 26 61  1  0
 27 28  2  0
 29 30  1  0
 29 62  1  1
 30 31  1  0
 30 32  1  0
 31 63  1  0
 31 64  1  0
 31 65  1  0
 32 66  1  0
 32 67  1  0
 32 68  1  0
M  END
>  <i_m_ct_stereo_status>  (62) 
1

>  <s_m_source_file>  (62) 
/var/tmp/pbs.5076255.sched01/tmpnm8fzmj1/0q4giu30i.sdf

>  <i_m_source_file_index>  (62) 
31

>  <i_lp_mmshare_version>  (62) 
48012

>  <i_f3d_flags>  (62) 
0

>  <s_epik_input>  (62) 
W0NIM11DKD1bQ0hdMSlDKD1PKVtDQF0yKFtPSF0pW0NIMl1bQ0BdKFtDSDNdKShbQ0BASF0zQyhbQ0gzXSkoW0NIM10pW0NASF0oTzQpW0NIMl1bQ0gyXTUpW0NAXShbT0hdKShbQ0BASF02QzcoW0NIM10pW0NIM10pW0NAQEhdKE9bQ0gyXTgpW0NAQF02OFtDSDJdW0NASF03W0NAQF0zNVtDQEBdMTI0

>  <s_epik_cmdline>  (62) 
J2VwaWtfcHl0aG9uJywgJy1waHQnLCAnMi4wJywgJy1waCcsICc3LjAnLCAnLXRuJywgJzgnLCAnLW1hJywgJzIwMCcsICctaW1hZScsICc8aW5maWxlLm1hZT4nLCAnLW9tYWUnLCAnPG91dGZpbGUubWFlPic=

>  <r_lp_tautomer_probability>  (62) 
1

>  <r_epik_Ionization_Penalty>  (62) 
4.1696e-06

>  <r_epik_Ionization_Penalty_Charging>  (62) 
0

>  <r_epik_Ionization_Penalty_Neutral>  (62) 
4.1696e-06

>  <r_epik_State_Penalty>  (62) 
-0

>  <r_epik_Charging_Adjusted_Penalty>  (62) 
0

>  <i_epik_Tot_Q>  (62) 
0

>  <i_epik_Tot_abs_Q>  (62) 
0

>  <s_lp_Force_Field>  (62) 
OPLS3e

>  <r_lp_Energy>  (62) 
189.349

>  <b_lp_Chiralities_Consistent>  (62) 
1

>  <s_lp_Variant>  (62) 
20:0-1

>  <s_i_glide_gridfile>  (62) 
pfpi4k_grid

>  <i_i_glide_lignum>  (62) 
31

>  <i_i_glide_rotatable_bonds>  (62) 
2

>  <r_i_docking_score>  (62) 
-2.63093

>  <r_i_glide_ligand_efficiency>  (62) 
-0.0822166

>  <r_i_glide_ligand_efficiency_sa>  (62) 
-0.261022

>  <r_i_glide_ligand_efficiency_ln>  (62) 
-0.589137

>  <r_i_glide_gscore>  (62) 
-2.63093

>  <r_i_glide_lipo>  (62) 
-0.499462

>  <r_i_glide_hbond>  (62) 
0

>  <r_i_glide_metal>  (62) 
-0

>  <r_i_glide_rewards>  (62) 
-0.405193

>  <r_i_glide_evdw>  (62) 
-28.5812

>  <r_i_glide_ecoul>  (62) 
-1.90173

>  <r_i_glide_erotb>  (62) 
0

>  <r_i_glide_esite>  (62) 
-0.011957

>  <r_i_glide_emodel>  (62) 
-35.3014

>  <r_i_glide_energy>  (62) 
-30.483

>  <r_i_glide_einternal>  (62) 
0.0843114

>  <r_i_glide_intrahb_reward>  (62) 
-0

>  <i_i_glide_confnum>  (62) 
1

>  <i_i_glide_posenum>  (62) 
37

>  <r_i_glide_eff_state_penalty>  (62) 
0

>  <ligand_id>  (62) 
20

>  <original_smiles>  (62) 
CC1=CC23OC4CCC25C2CC67COC6C(O)(C7C2(C)C)C(C)(CC3(O)C1=O)C5C4(C)C

>  <smiles>  (62) 
[H]OC12C(=O)C(C([H])([H])[H])=C([H])C13OC1([H])C([H])([H])C([H])([H])C34C3([H])C([H])([H])C56C([H])([H])OC5([H])C(O[H])(C6([H])C3(C([H])([H])[H])C([H])([H])[H])C(C([H])([H])[H])(C2([H])[H])C4([H])C1(C([H])([H])[H])C([H])([H])[H]

$$$$
20:0:1
     RDKit          3D

 68 75  0  0  1  0  0  0  0  0999 V2000
   -0.3508   -7.5640    2.5399 C   0  0  0  0  0  0  0  0  0  0  0  0
    0.9647   -6.8130    2.5662 C   0  0  0  0  0  0  0  0  0  0  0  0
    1.2345   -5.5431    2.9515 C   0  0  0  0  0  0  0  0  0  0  0  0
    2.7357   -5.3284    2.9600 C   0  0  2  0  0  0  0  0  0  0  0  0
    3.1375   -6.0669    4.1535 O   0  0  0  0  0  0  0  0  0  0  0  0
    3.7114   -5.3783    5.2515 C   0  0  2  0  0  0  0  0  0  0  0  0
    2.8431   -4.1841    5.6051 C   0  0  0  0  0  0  0  0  0  0  0  0
    2.7924   -3.2771    4.3903 C   0  0  0  0  0  0  0  0  0  0  0  0
    3.4363   -3.9029    3.0970 C   0  0  2  0  0  0  0  0  0  0  0  0
    3.1931   -2.7150    2.0522 C   0  0  2  0  0  0  0  0  0  0  0  0
    2.8190   -3.0563    0.5823 C   0  0  0  0  0  0  0  0  0  0  0  0
    4.1342   -3.0561   -0.1892 C   0  0  2  0  0  0  0  0  0  0  0  0
    4.2731   -2.6864   -1.6577 C   0  0  0  0  0  0  0  0  0  0  0  0
    5.4135   -3.5785   -1.7616 O   0  0  0  0  0  0  0  0  0  0  0  0
    5.0139   -4.2462   -0.5263 C   0  0  1  0  0  0  0  0  0  0  0  0
    5.7787   -4.0037    0.8072 C   0  0  1  0  0  0  0  0  0  0  0  0
    7.1640   -3.8950    0.5311 O   0  0  0  0  0  0  0  0  0  0  0  0
    5.1874   -2.5403    0.7595 C   0  0  2  0  0  0  0  0  0  0  0  0
    4.4115   -1.7526    1.8281 C   0  0  0  0  0  0  0  0  0  0  0  0
    3.8926   -0.4105    1.2092 C   0  0  0  0  0  0  0  0  0  0  0  0
    5.2734   -1.2389    3.0172 C   0  0  0  0  0  0  0  0  0  0  0  0
    5.5767   -5.0998    2.0155 C   0  0  2  0  0  0  0  0  0  0  0  0
    6.9923   -5.7391    2.2836 C   0  0  0  0  0  0  0  0  0  0  0  0
    4.7067   -6.4035    1.7093 C   0  0  0  0  0  0  0  0  0  0  0  0
    3.1697   -6.2578    1.7836 C   0  0  2  0  0  0  0  0  0  0  0  0
    2.7317   -5.9721    0.4816 O   0  0  0  0  0  0  0  0  0  0  0  0
    2.2292   -7.4293    2.0944 C   0  0  0  0  0  0  0  0  0  0  0  0
    2.4971   -8.6145    1.9187 O   0  0  0  0  0  0  0  0  0  0  0  0
    4.9736   -4.3763    3.3040 C   0  0  2  0  0  0  0  0  0  0  0  0
    5.1281   -5.0188    4.7694 C   0  0  0  0  0  0  0  0  0  0  0  0
    5.7955   -4.0009    5.7296 C   0  0  0  0  0  0  0  0  0  0  0  0
    5.9437   -6.3180    5.0035 C   0  0  0  0  0  0  0  0  0  0  0  0
   -0.5232   -8.0068    1.5590 H   0  0  0  0  0  0  0  0  0  0  0  0
   -1.1998   -6.9309    2.7891 H   0  0  0  0  0  0  0  0  0  0  0  0
   -0.3172   -8.3760    3.2671 H   0  0  0  0  0  0  0  0  0  0  0  0
    0.5236   -4.8192    3.3196 H   0  0  0  0  0  0  0  0  0  0  0  0
    3.7325   -6.0409    6.1163 H   0  0  0  0  0  0  0  0  0  0  0  0
    1.8425   -4.5167    5.8843 H   0  0  0  0  0  0  0  0  0  0  0  0
    3.2299   -3.6518    6.4749 H   0  0  0  0  0  0  0  0  0  0  0  0
    1.7356   -3.0596    4.2216 H   0  0  0  0  0  0  0  0  0  0  0  0
    3.2172   -2.3146    4.6608 H   0  0  0  0  0  0  0  0  0  0  0  0
    2.3467   -2.1148    2.3988 H   0  0  0  0  0  0  0  0  0  0  0  0
    2.1200   -3.8522    0.4389 H   0  0  0  0  0  0  0  0  0  0  0  0
    2.2165   -2.2422    0.1934 H   0  0  0  0  0  0  0  0  0  0  0  0
    3.4275   -2.9814   -2.2783 H   0  0  0  0  0  0  0  0  0  0  0  0
    4.5561   -1.6409   -1.8249 H   0  0  0  0  0  0  0  0  0  0  0  0
    4.5560   -5.2128   -0.7138 H   0  0  0  0  0  0  0  0  0  0  0  0
    7.4347   -4.7586    0.2635 H   0  0  0  0  0  0  0  0  0  0  0  0
    5.8939   -1.8955    0.2204 H   0  0  0  0  0  0  0  0  0  0  0  0
    4.7109    0.2905    1.0361 H   0  0  0  0  0  0  0  0  0  0  0  0
    3.1831    0.0789    1.8834 H   0  0  0  0  0  0  0  0  0  0  0  0
    3.3982   -0.5088    0.2447 H   0  0  0  0  0  0  0  0  0  0  0  0
    5.2233   -0.1597    3.1550 H   0  0  0  0  0  0  0  0  0  0  0  0
    6.3237   -1.4590    2.8469 H   0  0  0  0  0  0  0  0  0  0  0  0
    5.0107   -1.6333    3.9889 H   0  0  0  0  0  0  0  0  0  0  0  0
    6.9721   -6.6937    2.7993 H   0  0  0  0  0  0  0  0  0  0  0  0
    7.6417   -5.0677    2.8362 H   0  0  0  0  0  0  0  0  0  0  0  0
    7.5151   -6.0422    1.3723 H   0  0  0  0  0  0  0  0  0  0  0  0
    5.0072   -6.8469    0.7634 H   0  0  0  0  0  0  0  0  0  0  0  0
    4.9423   -7.1926    2.4163 H   0  0  0  0  0  0  0  0  0  0  0  0
    3.2790   -5.2995    0.1088 H   0  0  0  0  0  0  0  0  0  0  0  0
    5.6462   -3.5434    3.3744 H   0  0  0  0  0  0  0  0  0  0  0  0
    6.8349   -3.8419    5.4485 H   0  0  0  0  0  0  0  0  0  0  0  0
    5.8012   -4.3586    6.7613 H   0  0  0  0  0  0  0  0  0  0  0  0
    5.3081   -3.0270    5.7206 H   0  0  0  0  0  0  0  0  0  0  0  0
    7.0129   -6.1786    4.8486 H   0  0  0  0  0  0  0  0  0  0  0  0
    5.5836   -7.1649    4.4229 H   0  0  0  0  0  0  0  0  0  0  0  0
    5.8625   -6.6463    6.0411 H   0  0  0  0  0  0  0  0  0  0  0  0
  1  2  1  0
  1 33  1  0
  1 34  1  0
  1 35  1  0
  2 27  1  0
  2  3  2  0
  4  3  1  1
  3 36  1  0
  4  9  1  0
  4 25  1  0
  4  5  1  0
  5  6  1  0
  6 30  1  0
  6  7  1  0
  6 37  1  1
  7  8  1  0
  7 38  1  0
  7 39  1  0
  9  8  1  1
  8 40  1  0
  8 41  1  0
  9 29  1  0
  9 10  1  0
 10 19  1  0
 10 11  1  0
 10 42  1  1
 12 11  1  1
 11 43  1  0
 11 44  1  0
 12 15  1  0
 12 18  1  0
 12 13  1  0
 13 14  1  0
 13 45  1  0
 13 46  1  0
 14 15  1  0
 15 16  1  0
 15 47  1  6
 16 17  1  6
 16 18  1  0
 16 22  1  0
 17 48  1  0
 18 19  1  0
 18 49  1  6
 19 20  1  0
 19 21  1  0
 20 50  1  0
 20 51  1  0
 20 52  1  0
 21 53  1  0
 21 54  1  0
 21 55  1  0
 22 23  1  1
 22 24  1  0
 22 29  1  0
 23 56  1  0
 23 57  1  0
 23 58  1  0
 24 25  1  0
 24 59  1  0
 24 60  1  0
 25 26  1  6
 25 27  1  0
 26 61  1  0
 27 28  2  0
 29 30  1  0
 29 62  1  1
 30 31  1  0
 30 32  1  0
 31 63  1  0
 31 64  1  0
 31 65  1  0
 32 66  1  0
 32 67  1  0
 32 68  1  0
M  END
>  <i_m_ct_stereo_status>  (63) 
1

>  <s_m_source_file>  (63) 
/var/tmp/pbs.5076255.sched01/tmpnm8fzmj1/0q4giu30i.sdf

>  <i_m_source_file_index>  (63) 
31

>  <i_lp_mmshare_version>  (63) 
48012

>  <i_f3d_flags>  (63) 
0

>  <s_epik_input>  (63) 
W0NIM11DKD1bQ0hdMSlDKD1PKVtDQF0yKFtPSF0pW0NIMl1bQ0BdKFtDSDNdKShbQ0BASF0zQyhbQ0gzXSkoW0NIM10pW0NASF0oTzQpW0NIMl1bQ0gyXTUpW0NAXShbT0hdKShbQ0BASF02QzcoW0NIM10pW0NIM10pW0NAQEhdKE9bQ0gyXTgpW0NAQF02OFtDSDJdW0NASF03W0NAQF0zNVtDQEBdMTI0

>  <s_epik_cmdline>  (63) 
J2VwaWtfcHl0aG9uJywgJy1waHQnLCAnMi4wJywgJy1waCcsICc3LjAnLCAnLXRuJywgJzgnLCAnLW1hJywgJzIwMCcsICctaW1hZScsICc8aW5maWxlLm1hZT4nLCAnLW9tYWUnLCAnPG91dGZpbGUubWFlPic=

>  <r_lp_tautomer_probability>  (63) 
1

>  <r_epik_Ionization_Penalty>  (63) 
4.1696e-06

>  <r_epik_Ionization_Penalty_Charging>  (63) 
0

>  <r_epik_Ionization_Penalty_Neutral>  (63) 
4.1696e-06

>  <r_epik_State_Penalty>  (63) 
-0

>  <r_epik_Charging_Adjusted_Penalty>  (63) 
0

>  <i_epik_Tot_Q>  (63) 
0

>  <i_epik_Tot_abs_Q>  (63) 
0

>  <s_lp_Force_Field>  (63) 
OPLS3e

>  <r_lp_Energy>  (63) 
189.349

>  <b_lp_Chiralities_Consistent>  (63) 
1

>  <s_lp_Variant>  (63) 
20:0-1

>  <s_i_glide_gridfile>  (63) 
pfpi4k_grid

>  <i_i_glide_lignum>  (63) 
31

>  <i_i_glide_rotatable_bonds>  (63) 
2

>  <r_i_docking_score>  (63) 
-2.61491

>  <r_i_glide_ligand_efficiency>  (63) 
-0.0817159

>  <r_i_glide_ligand_efficiency_sa>  (63) 
-0.259432

>  <r_i_glide_ligand_efficiency_ln>  (63) 
-0.585549

>  <r_i_glide_gscore>  (63) 
-2.61491

>  <r_i_glide_lipo>  (63) 
-0.503473

>  <r_i_glide_hbond>  (63) 
0

>  <r_i_glide_metal>  (63) 
-0

>  <r_i_glide_rewards>  (63) 
-0.405193

>  <r_i_glide_evdw>  (63) 
-28.5736

>  <r_i_glide_ecoul>  (63) 
-1.77484

>  <r_i_glide_erotb>  (63) 
0

>  <r_i_glide_esite>  (63) 
-0.0113329

>  <r_i_glide_emodel>  (63) 
-34.8646

>  <r_i_glide_energy>  (63) 
-30.3485

>  <r_i_glide_einternal>  (63) 
0.83267

>  <r_i_glide_intrahb_reward>  (63) 
-0

>  <i_i_glide_confnum>  (63) 
1

>  <i_i_glide_posenum>  (63) 
18

>  <r_i_glide_eff_state_penalty>  (63) 
0

>  <ligand_id>  (63) 
20

>  <original_smiles>  (63) 
CC1=CC23OC4CCC25C2CC67COC6C(O)(C7C2(C)C)C(C)(CC3(O)C1=O)C5C4(C)C

>  <smiles>  (63) 
[H]OC12C(=O)C(C([H])([H])[H])=C([H])C13OC1([H])C([H])([H])C([H])([H])C34C3([H])C([H])([H])C56C([H])([H])OC5([H])C(O[H])(C6([H])C3(C([H])([H])[H])C([H])([H])[H])C(C([H])([H])[H])(C2([H])[H])C4([H])C1(C([H])([H])[H])C([H])([H])[H]

$$$$
20:0:2
     RDKit          3D

 68 75  0  0  1  0  0  0  0  0999 V2000
   -0.4242   -7.6683    2.5427 C   0  0  0  0  0  0  0  0  0  0  0  0
    0.8872   -6.9078    2.5748 C   0  0  0  0  0  0  0  0  0  0  0  0
    1.1576   -5.6701    3.0477 C   0  0  0  0  0  0  0  0  0  0  0  0
    2.6577   -5.4353    3.0068 C   0  0  2  0  0  0  0  0  0  0  0  0
    3.1220   -6.2593    4.1189 O   0  0  0  0  0  0  0  0  0  0  0  0
    3.7335   -5.6513    5.2439 C   0  0  2  0  0  0  0  0  0  0  0  0
    2.8694   -4.5016    5.7271 C   0  0  0  0  0  0  0  0  0  0  0  0
    2.7587   -3.5020    4.5924 C   0  0  0  0  0  0  0  0  0  0  0  0
    3.3521   -4.0167    3.2275 C   0  0  2  0  0  0  0  0  0  0  0  0
    3.0574   -2.7517    2.2925 C   0  0  2  0  0  0  0  0  0  0  0  0
    2.6193   -2.9810    0.8224 C   0  0  0  0  0  0  0  0  0  0  0  0
    3.8977   -2.9017   -0.0062 C   0  0  2  0  0  0  0  0  0  0  0  0
    3.9703   -2.4183   -1.4466 C   0  0  0  0  0  0  0  0  0  0  0  0
    5.1102   -3.2875   -1.6708 O   0  0  0  0  0  0  0  0  0  0  0  0
    4.7662   -4.0541   -0.4750 C   0  0  1  0  0  0  0  0  0  0  0  0
    5.5989   -3.9158    0.8233 C   0  0  1  0  0  0  0  0  0  0  0  0
    6.9627   -3.7823    0.4387 O   0  0  0  0  0  0  0  0  0  0  0  0
    4.9971   -2.4559    0.9288 C   0  0  2  0  0  0  0  0  0  0  0  0
    4.2598   -1.7640    2.0902 C   0  0  0  0  0  0  0  0  0  0  0  0
    3.6967   -0.3830    1.6019 C   0  0  0  0  0  0  0  0  0  0  0  0
    5.1667   -1.3320    3.2765 C   0  0  0  0  0  0  0  0  0  0  0  0
    5.4584   -5.0972    1.9611 C   0  0  2  0  0  0  0  0  0  0  0  0
    6.8874   -5.7253    2.1238 C   0  0  0  0  0  0  0  0  0  0  0  0
    4.5835   -6.3829    1.5947 C   0  0  0  0  0  0  0  0  0  0  0  0
    3.0484   -6.2633    1.7437 C   0  0  2  0  0  0  0  0  0  0  0  0
    2.5433   -5.8780    0.4889 O   0  0  0  0  0  0  0  0  0  0  0  0
    2.1357   -7.4660    2.0040 C   0  0  0  0  0  0  0  0  0  0  0  0
    2.4111   -8.6315    1.7231 O   0  0  0  0  0  0  0  0  0  0  0  0
    4.9010   -4.4850    3.3290 C   0  0  2  0  0  0  0  0  0  0  0  0
    5.1250   -5.2375    4.7321 C   0  0  0  0  0  0  0  0  0  0  0  0
    5.8240   -4.2877    5.7385 C   0  0  0  0  0  0  0  0  0  0  0  0
    5.9608   -6.5418    4.8306 C   0  0  0  0  0  0  0  0  0  0  0  0
   -0.6319   -8.0344    1.5381 H   0  0  0  0  0  0  0  0  0  0  0  0
   -1.2649   -7.0632    2.8761 H   0  0  0  0  0  0  0  0  0  0  0  0
   -0.3522   -8.5337    3.2019 H   0  0  0  0  0  0  0  0  0  0  0  0
    0.4530   -4.9857    3.4974 H   0  0  0  0  0  0  0  0  0  0  0  0
    3.7980   -6.3803    6.0511 H   0  0  0  0  0  0  0  0  0  0  0  0
    1.8843   -4.8674    6.0203 H   0  0  0  0  0  0  0  0  0  0  0  0
    3.2880   -4.0352    6.6203 H   0  0  0  0  0  0  0  0  0  0  0  0
    1.6941   -3.2842    4.4842 H   0  0  0  0  0  0  0  0  0  0  0  0
    3.1873   -2.5583    4.9197 H   0  0  0  0  0  0  0  0  0  0  0  0
    2.2197   -2.1931    2.7185 H   0  0  0  0  0  0  0  0  0  0  0  0
    1.9221   -3.7691    0.6443 H   0  0  0  0  0  0  0  0  0  0  0  0
    1.9908   -2.1483    0.5305 H   0  0  0  0  0  0  0  0  0  0  0  0
    3.1039   -2.6762   -2.0519 H   0  0  0  0  0  0  0  0  0  0  0  0
    4.2364   -1.3612   -1.5442 H   0  0  0  0  0  0  0  0  0  0  0  0
    4.3156   -5.0122   -0.7140 H   0  0  0  0  0  0  0  0  0  0  0  0
    7.4506   -3.5784    1.2140 H   0  0  0  0  0  0  0  0  0  0  0  0
    5.6696   -1.7600    0.4126 H   0  0  0  0  0  0  0  0  0  0  0  0
    4.4998    0.3399    1.4495 H   0  0  0  0  0  0  0  0  0  0  0  0
    3.0113    0.0451    2.3427 H   0  0  0  0  0  0  0  0  0  0  0  0
    3.1602   -0.4101    0.6540 H   0  0  0  0  0  0  0  0  0  0  0  0
    5.1111   -0.2676    3.5006 H   0  0  0  0  0  0  0  0  0  0  0  0
    6.2108   -1.5270    3.0447 H   0  0  0  0  0  0  0  0  0  0  0  0
    4.9467   -1.8041    4.2246 H   0  0  0  0  0  0  0  0  0  0  0  0
    6.9021   -6.7151    2.5600 H   0  0  0  0  0  0  0  0  0  0  0  0
    7.5534   -5.0835    2.6996 H   0  0  0  0  0  0  0  0  0  0  0  0
    7.3718   -5.9506    1.1734 H   0  0  0  0  0  0  0  0  0  0  0  0
    4.8467   -6.7438    0.6048 H   0  0  0  0  0  0  0  0  0  0  0  0
    4.8589   -7.2218    2.2258 H   0  0  0  0  0  0  0  0  0  0  0  0
    3.0599   -5.1634    0.1539 H   0  0  0  0  0  0  0  0  0  0  0  0
    5.5663   -3.6511    3.4406 H   0  0  0  0  0  0  0  0  0  0  0  0
    6.8471   -4.0895    5.4207 H   0  0  0  0  0  0  0  0  0  0  0  0
    5.8819   -4.7266    6.7380 H   0  0  0  0  0  0  0  0  0  0  0  0
    5.3240   -3.3240    5.8311 H   0  0  0  0  0  0  0  0  0  0  0  0
    7.0206   -6.3768    4.6414 H   0  0  0  0  0  0  0  0  0  0  0  0
    5.5832   -7.3456    4.2013 H   0  0  0  0  0  0  0  0  0  0  0  0
    5.9268   -6.9505    5.8423 H   0  0  0  0  0  0  0  0  0  0  0  0
  1  2  1  0
  1 33  1  0
  1 34  1  0
  1 35  1  0
  2 27  1  0
  2  3  2  0
  4  3  1  1
  3 36  1  0
  4  9  1  0
  4 25  1  0
  4  5  1  0
  5  6  1  0
  6 30  1  0
  6  7  1  0
  6 37  1  1
  7  8  1  0
  7 38  1  0
  7 39  1  0
  9  8  1  1
  8 40  1  0
  8 41  1  0
  9 29  1  0
  9 10  1  0
 10 19  1  0
 10 11  1  0
 10 42  1  1
 12 11  1  1
 11 43  1  0
 11 44  1  0
 12 15  1  0
 12 18  1  0
 12 13  1  0
 13 14  1  0
 13 45  1  0
 13 46  1  0
 14 15  1  0
 15 16  1  0
 15 47  1  6
 16 17  1  6
 16 18  1  0
 16 22  1  0
 17 48  1  0
 18 19  1  0
 18 49  1  6
 19 20  1  0
 19 21  1  0
 20 50  1  0
 20 51  1  0
 20 52  1  0
 21 53  1  0
 21 54  1  0
 21 55  1  0
 22 23  1  1
 22 24  1  0
 22 29  1  0
 23 56  1  0
 23 57  1  0
 23 58  1  0
 24 25  1  0
 24 59  1  0
 24 60  1  0
 25 26  1  6
 25 27  1  0
 26 61  1  0
 27 28  2  0
 29 30  1  0
 29 62  1  1
 30 31  1  0
 30 32  1  0
 31 63  1  0
 31 64  1  0
 31 65  1  0
 32 66  1  0
 32 67  1  0
 32 68  1  0
M  END
>  <i_m_ct_stereo_status>  (64) 
1

>  <s_m_source_file>  (64) 
/var/tmp/pbs.5076255.sched01/tmpnm8fzmj1/0q4giu30i.sdf

>  <i_m_source_file_index>  (64) 
31

>  <i_lp_mmshare_version>  (64) 
48012

>  <i_f3d_flags>  (64) 
0

>  <s_epik_input>  (64) 
W0NIM11DKD1bQ0hdMSlDKD1PKVtDQF0yKFtPSF0pW0NIMl1bQ0BdKFtDSDNdKShbQ0BASF0zQyhbQ0gzXSkoW0NIM10pW0NASF0oTzQpW0NIMl1bQ0gyXTUpW0NAXShbT0hdKShbQ0BASF02QzcoW0NIM10pW0NIM10pW0NAQEhdKE9bQ0gyXTgpW0NAQF02OFtDSDJdW0NASF03W0NAQF0zNVtDQEBdMTI0

>  <s_epik_cmdline>  (64) 
J2VwaWtfcHl0aG9uJywgJy1waHQnLCAnMi4wJywgJy1waCcsICc3LjAnLCAnLXRuJywgJzgnLCAnLW1hJywgJzIwMCcsICctaW1hZScsICc8aW5maWxlLm1hZT4nLCAnLW9tYWUnLCAnPG91dGZpbGUubWFlPic=

>  <r_lp_tautomer_probability>  (64) 
1

>  <r_epik_Ionization_Penalty>  (64) 
4.1696e-06

>  <r_epik_Ionization_Penalty_Charging>  (64) 
0

>  <r_epik_Ionization_Penalty_Neutral>  (64) 
4.1696e-06

>  <r_epik_State_Penalty>  (64) 
-0

>  <r_epik_Charging_Adjusted_Penalty>  (64) 
0

>  <i_epik_Tot_Q>  (64) 
0

>  <i_epik_Tot_abs_Q>  (64) 
0

>  <s_lp_Force_Field>  (64) 
OPLS3e

>  <r_lp_Energy>  (64) 
189.349

>  <b_lp_Chiralities_Consistent>  (64) 
1

>  <s_lp_Variant>  (64) 
20:0-1

>  <s_i_glide_gridfile>  (64) 
pfpi4k_grid

>  <i_i_glide_lignum>  (64) 
31

>  <i_i_glide_rotatable_bonds>  (64) 
2

>  <r_i_docking_score>  (64) 
-2.56716

>  <r_i_glide_ligand_efficiency>  (64) 
-0.0802236

>  <r_i_glide_ligand_efficiency_sa>  (64) 
-0.254694

>  <r_i_glide_ligand_efficiency_ln>  (64) 
-0.574856

>  <r_i_glide_gscore>  (64) 
-2.56716

>  <r_i_glide_lipo>  (64) 
-0.403829

>  <r_i_glide_hbond>  (64) 
0

>  <r_i_glide_metal>  (64) 
-0

>  <r_i_glide_rewards>  (64) 
-0.405193

>  <r_i_glide_evdw>  (64) 
-28.1935

>  <r_i_glide_ecoul>  (64) 
-2.23017

>  <r_i_glide_erotb>  (64) 
0

>  <r_i_glide_esite>  (64) 
-0.0139351

>  <r_i_glide_emodel>  (64) 
-34.8507

>  <r_i_glide_energy>  (64) 
-30.4237

>  <r_i_glide_einternal>  (64) 
0.730733

>  <r_i_glide_intrahb_reward>  (64) 
-0

>  <i_i_glide_confnum>  (64) 
2

>  <i_i_glide_posenum>  (64) 
8

>  <r_i_glide_eff_state_penalty>  (64) 
0

>  <ligand_id>  (64) 
20

>  <original_smiles>  (64) 
CC1=CC23OC4CCC25C2CC67COC6C(O)(C7C2(C)C)C(C)(CC3(O)C1=O)C5C4(C)C

>  <smiles>  (64) 
[H]OC12C(=O)C(C([H])([H])[H])=C([H])C13OC1([H])C([H])([H])C([H])([H])C34C3([H])C([H])([H])C56C([H])([H])OC5([H])C(O[H])(C6([H])C3(C([H])([H])[H])C([H])([H])[H])C(C([H])([H])[H])(C2([H])[H])C4([H])C1(C([H])([H])[H])C([H])([H])[H]

$$$$
21:0:0
     RDKit          3D

 53 57  0  0  1  0  0  0  0  0999 V2000
    7.5035   -6.0020    1.1546 C   0  0  0  0  0  0  0  0  0  0  0  0
    6.0346   -5.7060    1.5632 C   0  0  1  0  0  0  0  0  0  0  0  0
    5.2164   -7.0281    1.4487 C   0  0  0  0  0  0  0  0  0  0  0  0
    5.6378   -8.1407    2.4409 C   0  0  0  0  0  0  0  0  0  0  0  0
    5.8189   -7.6110    3.8700 C   0  0  0  0  0  0  0  0  0  0  0  0
    5.4013   -8.2272    4.8452 O   0  0  0  0  0  0  0  0  0  0  0  0
    6.5688   -6.2889    4.0185 C   0  0  0  0  0  0  0  0  0  0  0  0
    5.9508   -5.3020    3.0456 C   0  0  0  0  0  0  0  0  0  0  0  0
    5.2387   -4.2495    3.4868 C   0  0  0  0  0  0  0  0  0  0  0  0
    4.4237   -3.3351    2.6061 C   0  0  0  0  0  0  0  0  0  0  0  0
    4.1548   -3.9399    1.2095 C   0  0  2  0  0  0  0  0  0  0  0  0
    5.4253   -4.6037    0.6146 C   0  0  1  0  0  0  0  0  0  0  0  0
    6.3844   -3.4845    0.1293 C   0  0  0  0  0  0  0  0  0  0  0  0
    5.7179   -2.6202   -0.9553 C   0  0  0  0  0  0  0  0  0  0  0  0
    4.4105   -1.9297   -0.4960 C   0  0  1  0  0  0  0  0  0  0  0  0
    4.7198   -0.6837    0.3728 C   0  0  0  0  0  0  0  0  0  0  0  0
    3.5327   -1.5240   -1.7060 C   0  0  1  0  0  0  0  0  0  0  0  0
    4.1991   -0.7957   -2.8601 C   0  0  2  0  0  0  0  0  0  0  0  0
    3.5476   -0.6555   -4.2128 C   0  0  0  0  0  0  0  0  0  0  0  0
    4.6104   -1.5880   -3.9762 O   0  0  0  0  0  0  0  0  0  0  0  0
    2.7824   -2.7948   -2.1289 C   0  0  0  0  0  0  0  0  0  0  0  0
    2.6764   -3.6465   -0.8703 C   0  0  0  0  0  0  0  0  0  0  0  0
    3.4769   -2.9381    0.2342 C   0  0  1  0  0  0  0  0  0  0  0  0
    7.5768   -6.2066    0.0847 H   0  0  0  0  0  0  0  0  0  0  0  0
    7.9207   -6.8702    1.6619 H   0  0  0  0  0  0  0  0  0  0  0  0
    8.1602   -5.1636    1.3855 H   0  0  0  0  0  0  0  0  0  0  0  0
    4.1609   -6.8207    1.6268 H   0  0  0  0  0  0  0  0  0  0  0  0
    5.2665   -7.4213    0.4345 H   0  0  0  0  0  0  0  0  0  0  0  0
    4.8978   -8.9410    2.4479 H   0  0  0  0  0  0  0  0  0  0  0  0
    6.5777   -8.5960    2.1338 H   0  0  0  0  0  0  0  0  0  0  0  0
    6.4829   -5.9279    5.0433 H   0  0  0  0  0  0  0  0  0  0  0  0
    7.6265   -6.4392    3.8130 H   0  0  0  0  0  0  0  0  0  0  0  0
    5.1924   -4.0421    4.5466 H   0  0  0  0  0  0  0  0  0  0  0  0
    3.4707   -3.1525    3.1011 H   0  0  0  0  0  0  0  0  0  0  0  0
    4.9458   -2.3860    2.5614 H   0  0  0  0  0  0  0  0  0  0  0  0
    3.4268   -4.7338    1.3785 H   0  0  0  0  0  0  0  0  0  0  0  0
    5.1320   -5.1341   -0.2896 H   0  0  0  0  0  0  0  0  0  0  0  0
    6.7175   -2.8673    0.9627 H   0  0  0  0  0  0  0  0  0  0  0  0
    7.2821   -3.9011   -0.3191 H   0  0  0  0  0  0  0  0  0  0  0  0
    6.4228   -1.8670   -1.3065 H   0  0  0  0  0  0  0  0  0  0  0  0
    5.5095   -3.2554   -1.8164 H   0  0  0  0  0  0  0  0  0  0  0  0
    3.8244   -0.2971    0.8585 H   0  0  0  0  0  0  0  0  0  0  0  0
    5.1154    0.1287   -0.2283 H   0  0  0  0  0  0  0  0  0  0  0  0
    5.4614   -0.8762    1.1434 H   0  0  0  0  0  0  0  0  0  0  0  0
    2.7974   -0.8207   -1.3277 H   0  0  0  0  0  0  0  0  0  0  0  0
    4.8904   -0.0071   -2.5708 H   0  0  0  0  0  0  0  0  0  0  0  0
    2.5692   -1.1049   -4.3806 H   0  0  0  0  0  0  0  0  0  0  0  0
    3.8180    0.1727   -4.8643 H   0  0  0  0  0  0  0  0  0  0  0  0
    1.8056   -2.5610   -2.5512 H   0  0  0  0  0  0  0  0  0  0  0  0
    3.3327   -3.3712   -2.8742 H   0  0  0  0  0  0  0  0  0  0  0  0
    1.6345   -3.7815   -0.5954 H   0  0  0  0  0  0  0  0  0  0  0  0
    3.0887   -4.6308   -1.0840 H   0  0  0  0  0  0  0  0  0  0  0  0
    2.7406   -2.3587    0.7928 H   0  0  0  0  0  0  0  0  0  0  0  0
  2  1  1  6
  1 24  1  0
  1 25  1  0
  1 26  1  0
  2  8  1  0
  2 12  1  0
  2  3  1  0
  3  4  1  0
  3 27  1  0
  3 28  1  0
  4  5  1  0
  4 29  1  0
  4 30  1  0
  5  6  2  0
  5  7  1  0
  7  8  1  0
  7 31  1  0
  7 32  1  0
  8  9  2  0
  9 10  1  0
  9 33  1  0
 10 11  1  0
 10 34  1  0
 10 35  1  0
 11 23  1  0
 11 12  1  0
 11 36  1  1
 12 13  1  0
 12 37  1  6
 13 14  1  0
 13 38  1  0
 13 39  1  0
 14 15  1  0
 14 40  1  0
 14 41  1  0
 15 23  1  0
 15 16  1  1
 15 17  1  0
 16 42  1  0
 16 43  1  0
 16 44  1  0
 17 18  1  0
 17 21  1  0
 17 45  1  1
 18 20  1  0
 18 19  1  0
 18 46  1  1
 19 20  1  0
 19 47  1  0
 19 48  1  0
 21 22  1  0
 21 49  1  0
 21 50  1  0
 22 23  1  0
 22 51  1  0
 22 52  1  0
 23 53  1  1
M  END
>  <i_m_ct_stereo_status>  (65) 
1

>  <s_m_source_file>  (65) 
/var/tmp/pbs.5076255.sched01/tmpnm8fzmj1/0q4giu30i.sdf

>  <i_m_source_file_index>  (65) 
32

>  <i_lp_mmshare_version>  (65) 
48012

>  <i_f3d_flags>  (65) 
0

>  <s_epik_input>  (65) 
W0NIMl0xW0NIMl1DKD1PKVtDSDJdQyhbQ0BAXTEyW0NIM10pPVtDSF1bQ0gyXVtDQEBIXTNbQ0BIXTJbQ0gyXVtDSDJdW0NAXTQoW0NIM10pW0NASF0zW0NIMl1bQ0gyXVtDQEBIXTRbQ0BASF01W0NIMl1PNQ==

>  <s_epik_cmdline>  (65) 
J2VwaWtfcHl0aG9uJywgJy1waHQnLCAnMi4wJywgJy1waCcsICc3LjAnLCAnLXRuJywgJzgnLCAnLW1hJywgJzIwMCcsICctaW1hZScsICc8aW5maWxlLm1hZT4nLCAnLW9tYWUnLCAnPG91dGZpbGUubWFlPic=

>  <r_lp_tautomer_probability>  (65) 
1

>  <r_epik_Ionization_Penalty>  (65) 
3.41799e-11

>  <r_epik_Ionization_Penalty_Charging>  (65) 
0

>  <r_epik_Ionization_Penalty_Neutral>  (65) 
3.41799e-11

>  <r_epik_State_Penalty>  (65) 
-0

>  <r_epik_Charging_Adjusted_Penalty>  (65) 
0

>  <i_epik_Tot_Q>  (65) 
0

>  <i_epik_Tot_abs_Q>  (65) 
0

>  <s_lp_Force_Field>  (65) 
OPLS3e

>  <r_lp_Energy>  (65) 
45.8795

>  <b_lp_Chiralities_Consistent>  (65) 
1

>  <s_lp_Variant>  (65) 
21:0-1

>  <s_i_glide_gridfile>  (65) 
pfpi4k_grid

>  <i_i_glide_lignum>  (65) 
32

>  <i_i_glide_rotatable_bonds>  (65) 
1

>  <r_i_docking_score>  (65) 
-3.54846

>  <r_i_glide_ligand_efficiency>  (65) 
-0.154281

>  <r_i_glide_ligand_efficiency_sa>  (65) 
-0.438754

>  <r_i_glide_ligand_efficiency_ln>  (65) 
-0.85805

>  <r_i_glide_gscore>  (65) 
-3.54846

>  <r_i_glide_lipo>  (65) 
-0.852042

>  <r_i_glide_hbond>  (65) 
-0.0659135

>  <r_i_glide_metal>  (65) 
-0

>  <r_i_glide_rewards>  (65) 
-1.26503

>  <r_i_glide_evdw>  (65) 
-24.9108

>  <r_i_glide_ecoul>  (65) 
-2.05274

>  <r_i_glide_erotb>  (65) 
0.187981

>  <r_i_glide_esite>  (65) 
0

>  <r_i_glide_emodel>  (65) 
-31.3494

>  <r_i_glide_energy>  (65) 
-26.9636

>  <r_i_glide_einternal>  (65) 
2.77094

>  <r_i_glide_intrahb_reward>  (65) 
-0

>  <i_i_glide_confnum>  (65) 
4

>  <i_i_glide_posenum>  (65) 
36

>  <r_i_glide_eff_state_penalty>  (65) 
0

>  <ligand_id>  (65) 
21

>  <original_smiles>  (65) 
CC12CCC(=O)CC1=CCC1C2CCC2(C)C(C3CO3)CCC12

>  <smiles>  (65) 
[H]C1=C2C([H])([H])C(=O)C([H])([H])C([H])([H])C2(C([H])([H])[H])C2([H])C([H])([H])C([H])([H])C3(C([H])([H])[H])C([H])(C4([H])OC4([H])[H])C([H])([H])C([H])([H])C3([H])C2([H])C1([H])[H]

$$$$
21:0:1
     RDKit          3D

 53 57  0  0  1  0  0  0  0  0999 V2000
    5.9318   -1.3600    0.1661 C   0  0  0  0  0  0  0  0  0  0  0  0
    4.7293   -2.3232    0.0054 C   0  0  1  0  0  0  0  0  0  0  0  0
    3.5667   -1.5363   -0.6599 C   0  0  0  0  0  0  0  0  0  0  0  0
    3.8229   -1.0826   -2.1211 C   0  0  0  0  0  0  0  0  0  0  0  0
    4.4154   -2.2020   -2.9822 C   0  0  0  0  0  0  0  0  0  0  0  0
    4.0566   -2.3801   -4.1438 O   0  0  0  0  0  0  0  0  0  0  0  0
    5.5326   -3.0266   -2.3473 C   0  0  0  0  0  0  0  0  0  0  0  0
    5.0629   -3.4596   -0.9685 C   0  0  0  0  0  0  0  0  0  0  0  0
    4.7947   -4.7488   -0.7109 C   0  0  0  0  0  0  0  0  0  0  0  0
    4.0998   -5.2558    0.5338 C   0  0  0  0  0  0  0  0  0  0  0  0
    3.3925   -4.1291    1.3226 C   0  0  2  0  0  0  0  0  0  0  0  0
    4.2768   -2.8610    1.4172 C   0  0  1  0  0  0  0  0  0  0  0  0
    5.3991   -3.1229    2.4524 C   0  0  0  0  0  0  0  0  0  0  0  0
    4.8082   -3.4307    3.8406 C   0  0  0  0  0  0  0  0  0  0  0  0
    3.8698   -4.6635    3.8729 C   0  0  1  0  0  0  0  0  0  0  0  0
    4.6947   -5.9716    3.8918 C   0  0  0  0  0  0  0  0  0  0  0  0
    2.9233   -4.6464    5.0993 C   0  0  1  0  0  0  0  0  0  0  0  0
    3.5815   -4.3588    6.4422 C   0  0  2  0  0  0  0  0  0  0  0  0
    3.9427   -5.4598    7.4009 C   0  0  0  0  0  0  0  0  0  0  0  0
    2.7810   -4.6397    7.5974 O   0  0  0  0  0  0  0  0  0  0  0  0
    1.7950   -3.6750    4.7525 C   0  0  0  0  0  0  0  0  0  0  0  0
    1.6853   -3.7220    3.2273 C   0  0  0  0  0  0  0  0  0  0  0  0
    2.8484   -4.5936    2.7061 C   0  0  1  0  0  0  0  0  0  0  0  0
    5.7264   -0.5977    0.9193 H   0  0  0  0  0  0  0  0  0  0  0  0
    6.1601   -0.8261   -0.7529 H   0  0  0  0  0  0  0  0  0  0  0  0
    6.8369   -1.8939    0.4580 H   0  0  0  0  0  0  0  0  0  0  0  0
    2.6758   -2.1650   -0.6797 H   0  0  0  0  0  0  0  0  0  0  0  0
    3.2949   -0.6659   -0.0572 H   0  0  0  0  0  0  0  0  0  0  0  0
    2.8937   -0.7292   -2.5726 H   0  0  0  0  0  0  0  0  0  0  0  0
    4.5126   -0.2401   -2.1445 H   0  0  0  0  0  0  0  0  0  0  0  0
    5.7568   -3.8899   -2.9718 H   0  0  0  0  0  0  0  0  0  0  0  0
    6.4377   -2.4289   -2.2799 H   0  0  0  0  0  0  0  0  0  0  0  0
    5.0132   -5.4938   -1.4604 H   0  0  0  0  0  0  0  0  0  0  0  0
    3.3578   -5.9936    0.2240 H   0  0  0  0  0  0  0  0  0  0  0  0
    4.8444   -5.7861    1.1186 H   0  0  0  0  0  0  0  0  0  0  0  0
    2.5177   -3.8696    0.7262 H   0  0  0  0  0  0  0  0  0  0  0  0
    3.6718   -2.0661    1.8496 H   0  0  0  0  0  0  0  0  0  0  0  0
    6.0568   -3.9276    2.1247 H   0  0  0  0  0  0  0  0  0  0  0  0
    6.0305   -2.2452    2.5732 H   0  0  0  0  0  0  0  0  0  0  0  0
    5.6237   -3.5694    4.5510 H   0  0  0  0  0  0  0  0  0  0  0  0
    4.2683   -2.5451    4.1759 H   0  0  0  0  0  0  0  0  0  0  0  0
    4.0670   -6.8459    3.7230 H   0  0  0  0  0  0  0  0  0  0  0  0
    5.1859   -6.1150    4.8530 H   0  0  0  0  0  0  0  0  0  0  0  0
    5.4839   -5.9798    3.1456 H   0  0  0  0  0  0  0  0  0  0  0  0
    2.4617   -5.6322    5.1731 H   0  0  0  0  0  0  0  0  0  0  0  0
    4.1224   -3.4155    6.5197 H   0  0  0  0  0  0  0  0  0  0  0  0
    3.7362   -6.4886    7.1146 H   0  0  0  0  0  0  0  0  0  0  0  0
    4.7558   -5.2939    8.1051 H   0  0  0  0  0  0  0  0  0  0  0  0
    0.8602   -3.9535    5.2410 H   0  0  0  0  0  0  0  0  0  0  0  0
    2.0369   -2.6605    5.0745 H   0  0  0  0  0  0  0  0  0  0  0  0
    0.7307   -4.1461    2.9207 H   0  0  0  0  0  0  0  0  0  0  0  0
    1.7240   -2.7085    2.8282 H   0  0  0  0  0  0  0  0  0  0  0  0
    2.4319   -5.5944    2.5805 H   0  0  0  0  0  0  0  0  0  0  0  0
  2  1  1  1
  1 24  1  0
  1 25  1  0
  1 26  1  0
  2  8  1  0
  2 12  1  0
  2  3  1  0
  3  4  1  0
  3 27  1  0
  3 28  1  0
  4  5  1  0
  4 29  1  0
  4 30  1  0
  5  6  2  0
  5  7  1  0
  7  8  1  0
  7 31  1  0
  7 32  1  0
  8  9  2  0
  9 10  1  0
  9 33  1  0
 10 11  1  0
 10 34  1  0
 10 35  1  0
 11 23  1  0
 11 12  1  0
 11 36  1  6
 12 13  1  0
 12 37  1  1
 13 14  1  0
 13 38  1  0
 13 39  1  0
 14 15  1  0
 14 40  1  0
 14 41  1  0
 15 23  1  0
 15 16  1  6
 15 17  1  0
 16 42  1  0
 16 43  1  0
 16 44  1  0
 17 18  1  0
 17 21  1  0
 17 45  1  1
 18 20  1  0
 18 19  1  0
 18 46  1  6
 19 20  1  0
 19 47  1  0
 19 48  1  0
 21 22  1  0
 21 49  1  0
 21 50  1  0
 22 23  1  0
 22 51  1  0
 22 52  1  0
 23 53  1  6
M  END
>  <i_m_ct_stereo_status>  (66) 
1

>  <s_m_source_file>  (66) 
/var/tmp/pbs.5076255.sched01/tmpnm8fzmj1/0q4giu30i.sdf

>  <i_m_source_file_index>  (66) 
32

>  <i_lp_mmshare_version>  (66) 
48012

>  <i_f3d_flags>  (66) 
0

>  <s_epik_input>  (66) 
W0NIMl0xW0NIMl1DKD1PKVtDSDJdQyhbQ0BAXTEyW0NIM10pPVtDSF1bQ0gyXVtDQEBIXTNbQ0BIXTJbQ0gyXVtDSDJdW0NAXTQoW0NIM10pW0NASF0zW0NIMl1bQ0gyXVtDQEBIXTRbQ0BASF01W0NIMl1PNQ==

>  <s_epik_cmdline>  (66) 
J2VwaWtfcHl0aG9uJywgJy1waHQnLCAnMi4wJywgJy1waCcsICc3LjAnLCAnLXRuJywgJzgnLCAnLW1hJywgJzIwMCcsICctaW1hZScsICc8aW5maWxlLm1hZT4nLCAnLW9tYWUnLCAnPG91dGZpbGUubWFlPic=

>  <r_lp_tautomer_probability>  (66) 
1

>  <r_epik_Ionization_Penalty>  (66) 
3.41799e-11

>  <r_epik_Ionization_Penalty_Charging>  (66) 
0

>  <r_epik_Ionization_Penalty_Neutral>  (66) 
3.41799e-11

>  <r_epik_State_Penalty>  (66) 
-0

>  <r_epik_Charging_Adjusted_Penalty>  (66) 
0

>  <i_epik_Tot_Q>  (66) 
0

>  <i_epik_Tot_abs_Q>  (66) 
0

>  <s_lp_Force_Field>  (66) 
OPLS3e

>  <r_lp_Energy>  (66) 
45.8795

>  <b_lp_Chiralities_Consistent>  (66) 
1

>  <s_lp_Variant>  (66) 
21:0-1

>  <s_i_glide_gridfile>  (66) 
pfpi4k_grid

>  <i_i_glide_lignum>  (66) 
32

>  <i_i_glide_rotatable_bonds>  (66) 
1

>  <r_i_docking_score>  (66) 
-3.50717

>  <r_i_glide_ligand_efficiency>  (66) 
-0.152486

>  <r_i_glide_ligand_efficiency_sa>  (66) 
-0.433649

>  <r_i_glide_ligand_efficiency_ln>  (66) 
-0.848066

>  <r_i_glide_gscore>  (66) 
-3.50717

>  <r_i_glide_lipo>  (66) 
-0.377048

>  <r_i_glide_hbond>  (66) 
-0.32

>  <r_i_glide_metal>  (66) 
-0

>  <r_i_glide_rewards>  (66) 
-1.40883

>  <r_i_glide_evdw>  (66) 
-22.4251

>  <r_i_glide_ecoul>  (66) 
-3.12016

>  <r_i_glide_erotb>  (66) 
0.187981

>  <r_i_glide_esite>  (66) 
0

>  <r_i_glide_emodel>  (66) 
-31.4976

>  <r_i_glide_energy>  (66) 
-25.5452

>  <r_i_glide_einternal>  (66) 
0.00656041

>  <r_i_glide_intrahb_reward>  (66) 
-0

>  <i_i_glide_confnum>  (66) 
5

>  <i_i_glide_posenum>  (66) 
12

>  <r_i_glide_eff_state_penalty>  (66) 
0

>  <ligand_id>  (66) 
21

>  <original_smiles>  (66) 
CC12CCC(=O)CC1=CCC1C2CCC2(C)C(C3CO3)CCC12

>  <smiles>  (66) 
[H]C1=C2C([H])([H])C(=O)C([H])([H])C([H])([H])C2(C([H])([H])[H])C2([H])C([H])([H])C([H])([H])C3(C([H])([H])[H])C([H])(C4([H])OC4([H])[H])C([H])([H])C([H])([H])C3([H])C2([H])C1([H])[H]

$$$$
21:0:2
     RDKit          3D

 53 57  0  0  1  0  0  0  0  0999 V2000
    3.5598   -2.3793    1.5523 C   0  0  0  0  0  0  0  0  0  0  0  0
    3.6811   -3.7298    0.7982 C   0  0  1  0  0  0  0  0  0  0  0  0
    2.8503   -3.6254   -0.5132 C   0  0  0  0  0  0  0  0  0  0  0  0
    3.3816   -2.6098   -1.5535 C   0  0  0  0  0  0  0  0  0  0  0  0
    4.8945   -2.7257   -1.7595 C   0  0  0  0  0  0  0  0  0  0  0  0
    5.4017   -2.6614   -2.8751 O   0  0  0  0  0  0  0  0  0  0  0  0
    5.7416   -2.8767   -0.4983 C   0  0  0  0  0  0  0  0  0  0  0  0
    5.1268   -3.9818    0.3441 C   0  0  0  0  0  0  0  0  0  0  0  0
    5.7603   -5.1563    0.5117 C   0  0  0  0  0  0  0  0  0  0  0  0
    5.1369   -6.3845    1.1370 C   0  0  0  0  0  0  0  0  0  0  0  0
    3.5973   -6.2960    1.2219 C   0  0  2  0  0  0  0  0  0  0  0  0
    3.1271   -4.9005    1.7018 C   0  0  1  0  0  0  0  0  0  0  0  0
    3.3846   -4.7928    3.2275 C   0  0  0  0  0  0  0  0  0  0  0  0
    2.6080   -5.8758    3.9981 C   0  0  0  0  0  0  0  0  0  0  0  0
    2.9606   -7.3251    3.5827 C   0  0  1  0  0  0  0  0  0  0  0  0
    4.2959   -7.7673    4.2290 C   0  0  0  0  0  0  0  0  0  0  0  0
    1.8387   -8.3268    3.9746 C   0  0  1  0  0  0  0  0  0  0  0  0
    1.2798   -8.2245    5.3945 C   0  0  2  0  0  0  0  0  0  0  0  0
   -0.1199   -8.6602    5.7425 C   0  0  0  0  0  0  0  0  0  0  0  0
    0.2348   -7.2689    5.6284 O   0  0  0  0  0  0  0  0  0  0  0  0
    0.7710   -8.2066    2.8821 C   0  0  0  0  0  0  0  0  0  0  0  0
    1.5023   -7.7327    1.6362 C   0  0  0  0  0  0  0  0  0  0  0  0
    2.9629   -7.4611    2.0334 C   0  0  1  0  0  0  0  0  0  0  0  0
    2.5506   -2.2418    1.9440 H   0  0  0  0  0  0  0  0  0  0  0  0
    3.7610   -1.5179    0.9170 H   0  0  0  0  0  0  0  0  0  0  0  0
    4.2606   -2.3247    2.3859 H   0  0  0  0  0  0  0  0  0  0  0  0
    2.8108   -4.5989   -0.9979 H   0  0  0  0  0  0  0  0  0  0  0  0
    1.8208   -3.3715   -0.2836 H   0  0  0  0  0  0  0  0  0  0  0  0
    2.8696   -2.7505   -2.5057 H   0  0  0  0  0  0  0  0  0  0  0  0
    3.1563   -1.5917   -1.2338 H   0  0  0  0  0  0  0  0  0  0  0  0
    6.7669   -3.1235   -0.7673 H   0  0  0  0  0  0  0  0  0  0  0  0
    5.7619   -1.9369    0.0486 H   0  0  0  0  0  0  0  0  0  0  0  0
    6.7610   -5.2849    0.1298 H   0  0  0  0  0  0  0  0  0  0  0  0
    5.4062   -7.2473    0.5258 H   0  0  0  0  0  0  0  0  0  0  0  0
    5.6075   -6.5222    2.1052 H   0  0  0  0  0  0  0  0  0  0  0  0
    3.2518   -6.4154    0.1959 H   0  0  0  0  0  0  0  0  0  0  0  0
    2.0443   -4.8581    1.5985 H   0  0  0  0  0  0  0  0  0  0  0  0
    4.4506   -4.8510    3.4475 H   0  0  0  0  0  0  0  0  0  0  0  0
    3.0476   -3.8352    3.6169 H   0  0  0  0  0  0  0  0  0  0  0  0
    2.7793   -5.7512    5.0668 H   0  0  0  0  0  0  0  0  0  0  0  0
    1.5442   -5.6979    3.8442 H   0  0  0  0  0  0  0  0  0  0  0  0
    4.6586   -8.7032    3.8064 H   0  0  0  0  0  0  0  0  0  0  0  0
    4.1852   -7.9273    5.3000 H   0  0  0  0  0  0  0  0  0  0  0  0
    5.0829   -7.0278    4.1157 H   0  0  0  0  0  0  0  0  0  0  0  0
    2.2646   -9.3290    3.8922 H   0  0  0  0  0  0  0  0  0  0  0  0
    2.0235   -8.2782    6.1866 H   0  0  0  0  0  0  0  0  0  0  0  0
   -0.7655   -9.0425    4.9559 H   0  0  0  0  0  0  0  0  0  0  0  0
   -0.3353   -8.9988    6.7552 H   0  0  0  0  0  0  0  0  0  0  0  0
    0.2474   -9.1508    2.7182 H   0  0  0  0  0  0  0  0  0  0  0  0
    0.0262   -7.4543    3.1381 H   0  0  0  0  0  0  0  0  0  0  0  0
    1.4537   -8.5017    0.8715 H   0  0  0  0  0  0  0  0  0  0  0  0
    1.0064   -6.8457    1.2442 H   0  0  0  0  0  0  0  0  0  0  0  0
    3.5041   -8.3755    1.7849 H   0  0  0  0  0  0  0  0  0  0  0  0
  2  1  1  1
  1 24  1  0
  1 25  1  0
  1 26  1  0
  2  8  1  0
  2 12  1  0
  2  3  1  0
  3  4  1  0
  3 27  1  0
  3 28  1  0
  4  5  1  0
  4 29  1  0
  4 30  1  0
  5  6  2  0
  5  7  1  0
  7  8  1  0
  7 31  1  0
  7 32  1  0
  8  9  2  0
  9 10  1  0
  9 33  1  0
 10 11  1  0
 10 34  1  0
 10 35  1  0
 11 23  1  0
 11 12  1  0
 11 36  1  6
 12 13  1  0
 12 37  1  1
 13 14  1  0
 13 38  1  0
 13 39  1  0
 14 15  1  0
 14 40  1  0
 14 41  1  0
 15 23  1  0
 15 16  1  1
 15 17  1  0
 16 42  1  0
 16 43  1  0
 16 44  1  0
 17 18  1  0
 17 21  1  0
 17 45  1  1
 18 20  1  0
 18 19  1  0
 18 46  1  1
 19 20  1  0
 19 47  1  0
 19 48  1  0
 21 22  1  0
 21 49  1  0
 21 50  1  0
 22 23  1  0
 22 51  1  0
 22 52  1  0
 23 53  1  1
M  END
>  <i_m_ct_stereo_status>  (67) 
1

>  <s_m_source_file>  (67) 
/var/tmp/pbs.5076255.sched01/tmpnm8fzmj1/0q4giu30i.sdf

>  <i_m_source_file_index>  (67) 
32

>  <i_lp_mmshare_version>  (67) 
48012

>  <i_f3d_flags>  (67) 
0

>  <s_epik_input>  (67) 
W0NIMl0xW0NIMl1DKD1PKVtDSDJdQyhbQ0BAXTEyW0NIM10pPVtDSF1bQ0gyXVtDQEBIXTNbQ0BIXTJbQ0gyXVtDSDJdW0NAXTQoW0NIM10pW0NASF0zW0NIMl1bQ0gyXVtDQEBIXTRbQ0BASF01W0NIMl1PNQ==

>  <s_epik_cmdline>  (67) 
J2VwaWtfcHl0aG9uJywgJy1waHQnLCAnMi4wJywgJy1waCcsICc3LjAnLCAnLXRuJywgJzgnLCAnLW1hJywgJzIwMCcsICctaW1hZScsICc8aW5maWxlLm1hZT4nLCAnLW9tYWUnLCAnPG91dGZpbGUubWFlPic=

>  <r_lp_tautomer_probability>  (67) 
1

>  <r_epik_Ionization_Penalty>  (67) 
3.41799e-11

>  <r_epik_Ionization_Penalty_Charging>  (67) 
0

>  <r_epik_Ionization_Penalty_Neutral>  (67) 
3.41799e-11

>  <r_epik_State_Penalty>  (67) 
-0

>  <r_epik_Charging_Adjusted_Penalty>  (67) 
0

>  <i_epik_Tot_Q>  (67) 
0

>  <i_epik_Tot_abs_Q>  (67) 
0

>  <s_lp_Force_Field>  (67) 
OPLS3e

>  <r_lp_Energy>  (67) 
45.8795

>  <b_lp_Chiralities_Consistent>  (67) 
1

>  <s_lp_Variant>  (67) 
21:0-1

>  <s_i_glide_gridfile>  (67) 
pfpi4k_grid

>  <i_i_glide_lignum>  (67) 
32

>  <i_i_glide_rotatable_bonds>  (67) 
1

>  <r_i_docking_score>  (67) 
-2.90307

>  <r_i_glide_ligand_efficiency>  (67) 
-0.126221

>  <r_i_glide_ligand_efficiency_sa>  (67) 
-0.358955

>  <r_i_glide_ligand_efficiency_ln>  (67) 
-0.70199

>  <r_i_glide_gscore>  (67) 
-2.90307

>  <r_i_glide_lipo>  (67) 
-0.336679

>  <r_i_glide_hbond>  (67) 
0

>  <r_i_glide_metal>  (67) 
-0

>  <r_i_glide_rewards>  (67) 
-1.26503

>  <r_i_glide_evdw>  (67) 
-24.0517

>  <r_i_glide_ecoul>  (67) 
-1.9103

>  <r_i_glide_erotb>  (67) 
0.187981

>  <r_i_glide_esite>  (67) 
-0.000212788

>  <r_i_glide_emodel>  (67) 
-29.7444

>  <r_i_glide_energy>  (67) 
-25.962

>  <r_i_glide_einternal>  (67) 
2.08011

>  <r_i_glide_intrahb_reward>  (67) 
-0

>  <i_i_glide_confnum>  (67) 
3

>  <i_i_glide_posenum>  (67) 
39

>  <r_i_glide_eff_state_penalty>  (67) 
0

>  <ligand_id>  (67) 
21

>  <original_smiles>  (67) 
CC12CCC(=O)CC1=CCC1C2CCC2(C)C(C3CO3)CCC12

>  <smiles>  (67) 
[H]C1=C2C([H])([H])C(=O)C([H])([H])C([H])([H])C2(C([H])([H])[H])C2([H])C([H])([H])C([H])([H])C3(C([H])([H])[H])C([H])(C4([H])OC4([H])[H])C([H])([H])C([H])([H])C3([H])C2([H])C1([H])[H]

$$$$
22:0:0
     RDKit          3D

 95102  0  0  1  0  0  0  0  0999 V2000
    3.6725   -3.0457    8.7087 C   0  0  0  0  0  0  0  0  0  0  0  0
    2.8935   -2.9889    7.3778 C   0  0  2  0  0  0  0  0  0  0  0  0
    1.6614   -3.9242    7.4874 C   0  0  0  0  0  0  0  0  0  0  0  0
    1.6869   -5.1346    6.5733 C   0  0  0  0  0  0  0  0  0  0  0  0
    1.6078   -4.7815    5.0757 C   0  0  2  0  0  0  0  0  0  0  0  0
    0.7243   -5.7733    4.3142 C   0  0  0  0  0  0  0  0  0  0  0  0
    1.3502   -7.1609    4.1985 C   0  0  0  0  0  0  0  0  0  0  0  0
    2.8713   -7.1947    4.4462 C   0  0  1  0  0  0  0  0  0  0  0  0
    3.3262   -8.4854    4.0911 O   0  0  0  0  0  0  0  0  0  0  0  0
    3.7825   -5.9752    3.9790 C   0  0  2  0  0  0  0  0  0  0  0  0
    4.9829   -6.0967    4.9626 C   0  0  0  0  0  0  0  0  0  0  0  0
    2.9729   -4.5769    4.3625 C   0  0  2  0  0  0  0  0  0  0  0  0
    3.7454   -3.3185    5.0260 C   0  0  2  0  0  0  0  0  0  0  0  0
    3.9076   -3.3494    6.4412 O   0  0  0  0  0  0  0  0  0  0  0  0
    3.5784   -1.7987    4.4138 C   0  0  1  0  0  0  0  0  0  0  0  0
    4.8786   -1.2254    4.4722 O   0  0  0  0  0  0  0  0  0  0  0  0
    3.2434   -1.9795    3.0442 O   0  0  0  0  0  0  0  0  0  0  0  0
    2.8788   -0.9872    2.0455 C   0  0  2  0  0  0  0  0  0  0  0  0
    3.7812   -0.7709    0.7461 C   0  0  0  0  0  0  0  0  0  0  0  0
    4.5568   -1.8715   -0.1468 C   0  0  1  0  0  0  0  0  0  0  0  0
    4.8310   -1.2255   -1.3768 O   0  0  0  0  0  0  0  0  0  0  0  0
    5.9685   -2.0520    0.3688 C   0  0  0  0  0  0  0  0  0  0  0  0
    5.8426   -2.7306    1.6896 C   0  0  0  0  0  0  0  0  0  0  0  0
    4.8245   -3.9072    1.7815 C   0  0  1  0  0  0  0  0  0  0  0  0
    3.4888   -3.8724    0.9028 C   0  0  2  0  0  0  0  0  0  0  0  0
    2.5664   -5.1476    0.9725 C   0  0  1  0  0  0  0  0  0  0  0  0
    1.7022   -5.4417   -0.1129 O   0  0  0  0  0  0  0  0  0  0  0  0
    3.2165   -6.4468    1.3857 C   0  0  0  0  0  0  0  0  0  0  0  0
    4.3373   -6.2255    2.4088 C   0  0  2  0  0  0  0  0  0  0  0  0
    4.9662   -7.4908    2.3269 O   0  0  0  0  0  0  0  0  0  0  0  0
    5.4214   -5.2745    1.6783 C   0  0  2  0  0  0  0  0  0  0  0  0
    6.8346   -5.4720    2.3108 C   0  0  0  0  0  0  0  0  0  0  0  0
    5.6661   -5.3481    0.1200 C   0  0  0  0  0  0  0  0  0  0  0  0
    4.8839   -4.4333   -0.9258 C   0  0  0  0  0  0  0  0  0  0  0  0
    3.9226   -3.3064   -0.4380 C   0  0  2  0  0  0  0  0  0  0  0  0
    2.7643   -3.1085   -1.4584 C   0  0  0  0  0  0  0  0  0  0  0  0
    2.4122    0.2804    2.7503 C   0  0  1  0  0  0  0  0  0  0  0  0
    1.5713    1.0260    1.8997 O   0  0  0  0  0  0  0  0  0  0  0  0
    1.6243   -0.1594    4.0020 C   0  0  0  0  0  0  0  0  0  0  0  0
    2.5398   -0.7895    5.0836 C   0  0  2  0  0  0  0  0  0  0  0  0
    3.2576    0.3905    5.8191 C   0  0  0  0  0  0  0  0  0  0  0  0
    1.6795   -1.4954    5.9770 O   0  0  0  0  0  0  0  0  0  0  0  0
    2.4754   -1.6347    7.3003 O   0  0  0  0  0  0  0  0  0  0  0  0
    4.5347   -2.3701    8.6955 H   0  0  0  0  0  0  0  0  0  0  0  0
    4.0543   -4.0496    8.8978 H   0  0  0  0  0  0  0  0  0  0  0  0
    3.0537   -2.7635    9.5675 H   0  0  0  0  0  0  0  0  0  0  0  0
    1.5996   -4.3029    8.5161 H   0  0  0  0  0  0  0  0  0  0  0  0
    0.7425   -3.3526    7.3542 H   0  0  0  0  0  0  0  0  0  0  0  0
    2.5591   -5.7222    6.8390 H   0  0  0  0  0  0  0  0  0  0  0  0
    0.8245   -5.7466    6.8443 H   0  0  0  0  0  0  0  0  0  0  0  0
    1.0744   -3.8303    5.0171 H   0  0  0  0  0  0  0  0  0  0  0  0
   -0.2634   -5.8434    4.7642 H   0  0  0  0  0  0  0  0  0  0  0  0
    0.5350   -5.3870    3.3188 H   0  0  0  0  0  0  0  0  0  0  0  0
    0.8842   -7.8025    4.9523 H   0  0  0  0  0  0  0  0  0  0  0  0
    1.0681   -7.6233    3.2561 H   0  0  0  0  0  0  0  0  0  0  0  0
    2.9434   -7.2706    5.5238 H   0  0  0  0  0  0  0  0  0  0  0  0
    4.0777   -8.7033    4.6197 H   0  0  0  0  0  0  0  0  0  0  0  0
    5.7302   -5.3259    4.8624 H   0  0  0  0  0  0  0  0  0  0  0  0
    5.4987   -7.0525    4.8789 H   0  0  0  0  0  0  0  0  0  0  0  0
    4.6630   -6.0010    6.0010 H   0  0  0  0  0  0  0  0  0  0  0  0
    2.6292   -4.1867    3.4267 H   0  0  0  0  0  0  0  0  0  0  0  0
    4.7825   -3.4937    4.7771 H   0  0  0  0  0  0  0  0  0  0  0  0
    4.8015   -0.3478    4.1220 H   0  0  0  0  0  0  0  0  0  0  0  0
    1.9408   -1.3735    1.6567 H   0  0  0  0  0  0  0  0  0  0  0  0
    3.0808   -0.2867    0.0716 H   0  0  0  0  0  0  0  0  0  0  0  0
    4.4977    0.0190    0.9783 H   0  0  0  0  0  0  0  0  0  0  0  0
    4.0053   -1.0065   -1.7730 H   0  0  0  0  0  0  0  0  0  0  0  0
    6.5941   -2.6283   -0.3201 H   0  0  0  0  0  0  0  0  0  0  0  0
    6.4830   -1.0938    0.4702 H   0  0  0  0  0  0  0  0  0  0  0  0
    6.8517   -3.0111    1.9629 H   0  0  0  0  0  0  0  0  0  0  0  0
    5.5755   -1.9546    2.3778 H   0  0  0  0  0  0  0  0  0  0  0  0
    4.6070   -3.8583    2.8107 H   0  0  0  0  0  0  0  0  0  0  0  0
    2.7548   -3.1792    1.2234 H   0  0  0  0  0  0  0  0  0  0  0  0
    1.8315   -4.9346    1.7382 H   0  0  0  0  0  0  0  0  0  0  0  0
    2.2310   -5.5280   -0.8985 H   0  0  0  0  0  0  0  0  0  0  0  0
    2.4692   -7.1507    1.7438 H   0  0  0  0  0  0  0  0  0  0  0  0
    3.6008   -6.9530    0.4980 H   0  0  0  0  0  0  0  0  0  0  0  0
    4.3504   -8.1090    2.7098 H   0  0  0  0  0  0  0  0  0  0  0  0
    7.1420   -6.5138    2.3808 H   0  0  0  0  0  0  0  0  0  0  0  0
    6.9127   -5.0755    3.3096 H   0  0  0  0  0  0  0  0  0  0  0  0
    7.6411   -4.9917    1.7534 H   0  0  0  0  0  0  0  0  0  0  0  0
    6.7120   -5.1774   -0.1007 H   0  0  0  0  0  0  0  0  0  0  0  0
    5.5220   -6.3844   -0.1900 H   0  0  0  0  0  0  0  0  0  0  0  0
    5.5864   -4.0480   -1.6717 H   0  0  0  0  0  0  0  0  0  0  0  0
    4.2785   -5.0923   -1.5074 H   0  0  0  0  0  0  0  0  0  0  0  0
    2.3969   -4.0272   -1.9066 H   0  0  0  0  0  0  0  0  0  0  0  0
    3.0249   -2.5057   -2.3240 H   0  0  0  0  0  0  0  0  0  0  0  0
    1.9140   -2.6726   -0.9717 H   0  0  0  0  0  0  0  0  0  0  0  0
    3.2559    0.9117    3.0202 H   0  0  0  0  0  0  0  0  0  0  0  0
    1.0272    0.4529    1.3865 H   0  0  0  0  0  0  0  0  0  0  0  0
    1.0990    0.6923    4.4328 H   0  0  0  0  0  0  0  0  0  0  0  0
    0.8420   -0.8721    3.7191 H   0  0  0  0  0  0  0  0  0  0  0  0
    3.7858    1.0474    5.1290 H   0  0  0  0  0  0  0  0  0  0  0  0
    3.9778    0.0718    6.5688 H   0  0  0  0  0  0  0  0  0  0  0  0
    2.5151    1.0202    6.3257 H   0  0  0  0  0  0  0  0  0  0  0  0
  2  1  1  1
  1 44  1  0
  1 45  1  0
  1 46  1  0
  2 14  1  0
  2 43  1  0
  2  3  1  0
  3  4  1  0
  3 47  1  0
  3 48  1  0
  4  5  1  0
  4 49  1  0
  4 50  1  0
  5 12  1  0
  5  6  1  0
  5 51  1  1
  6  7  1  0
  6 52  1  0
  6 53  1  0
  7  8  1  0
  7 54  1  0
  7 55  1  0
  8  9  1  0
  8 10  1  0
  8 56  1  1
  9 57  1  0
 10 29  1  0
 10 11  1  1
 10 12  1  0
 11 58  1  0
 11 59  1  0
 11 60  1  0
 12 13  1  0
 12 61  1  6
 13 14  1  0
 13 15  1  0
 13 62  1  6
 15 40  1  0
 15 16  1  6
 15 17  1  0
 16 63  1  0
 17 18  1  0
 18 19  1  0
 18 37  1  0
 18 64  1  6
 19 20  1  0
 19 65  1  0
 19 66  1  0
 20 35  1  0
 20 21  1  6
 20 22  1  0
 21 67  1  0
 22 23  1  0
 22 68  1  0
 22 69  1  0
 23 24  1  0
 23 70  1  0
 23 71  1  0
 24 31  1  0
 24 25  1  0
 24 72  1  1
 25 35  1  0
 25 26  1  0
 25 73  1  1
 26 27  1  0
 26 28  1  0
 26 74  1  1
 27 75  1  0
 28 29  1  0
 28 76  1  0
 28 77  1  0
 29 30  1  1
 29 31  1  0
 30 78  1  0
 31 32  1  1
 31 33  1  0
 32 79  1  0
 32 80  1  0
 32 81  1  0
 33 34  1  0
 33 82  1  0
 33 83  1  0
 34 35  1  0
 34 84  1  0
 34 85  1  0
 35 36  1  6
 36 86  1  0
 36 87  1  0
 36 88  1  0
 37 38  1  0
 37 39  1  0
 37 89  1  1
 38 90  1  0
 39 40  1  0
 39 91  1  0
 39 92  1  0
 40 41  1  1
 40 42  1  0
 41 93  1  0
 41 94  1  0
 41 95  1  0
 42 43  1  0
M  END
>  <i_m_ct_stereo_status>  (68) 
1

>  <s_m_source_file>  (68) 
/var/tmp/pbs.5076255.sched01/tmpnm8fzmj1/0q4giu30i.sdf

>  <i_m_source_file_index>  (68) 
33

>  <i_lp_mmshare_version>  (68) 
48012

>  <i_f3d_flags>  (68) 
0

>  <s_epik_input>  (68) 
W0NIM11bQ0BdMTJbQ0gyXVtDSDJdW0NASF0zW0NAQEhdNFtDQEBdKFtDSDNdKShbQ0BIXShbT0hdKVtDSDJdW0NIMl0zKVtDQF01KFtPSF0pW0NAXTYoW0NIM10pW0NAQEhdN1tDQEhdKFtDQEBIXShbT0hdKVtDSDJdNSlbQ0BdKFtDSDNdKShbQ0gyXVtDSDJdNilbQ0BdKFtPSF0pKFtDSDJdW0NIMl03KVtDSDJdW0NASF04T1tDQEBdKFtDQEhdNE8xKShbT0hdKVtDQF0oW0NIM10pKE9PMilbQ0gyXVtDQEBIXThbT0hd

>  <s_epik_cmdline>  (68) 
J2VwaWtfcHl0aG9uJywgJy1waHQnLCAnMi4wJywgJy1waCcsICc3LjAnLCAnLXRuJywgJzgnLCAnLW1hJywgJzIwMCcsICctaW1hZScsICc8aW5maWxlLm1hZT4nLCAnLW9tYWUnLCAnPG91dGZpbGUubWFlPic=

>  <r_lp_tautomer_probability>  (68) 
1

>  <r_epik_Ionization_Penalty>  (68) 
4.46486e-05

>  <r_epik_Ionization_Penalty_Charging>  (68) 
0

>  <r_epik_Ionization_Penalty_Neutral>  (68) 
4.46486e-05

>  <r_epik_State_Penalty>  (68) 
-0

>  <r_epik_Charging_Adjusted_Penalty>  (68) 
0

>  <i_epik_Tot_Q>  (68) 
0

>  <i_epik_Tot_abs_Q>  (68) 
0

>  <s_lp_Force_Field>  (68) 
OPLS3e

>  <r_lp_Energy>  (68) 
223.983

>  <b_lp_Chiralities_Consistent>  (68) 
1

>  <s_lp_Variant>  (68) 
22:0-1

>  <s_i_glide_gridfile>  (68) 
pfpi4k_grid

>  <i_i_glide_lignum>  (68) 
33

>  <i_i_glide_rotatable_bonds>  (68) 
6

>  <r_i_docking_score>  (68) 
-3.95754

>  <r_i_glide_ligand_efficiency>  (68) 
-0.0920359

>  <r_i_glide_ligand_efficiency_sa>  (68) 
-0.322438

>  <r_i_glide_ligand_efficiency_ln>  (68) 
-0.831207

>  <r_i_glide_gscore>  (68) 
-3.95754

>  <r_i_glide_lipo>  (68) 
-0.439236

>  <r_i_glide_hbond>  (68) 
-0.403053

>  <r_i_glide_metal>  (68) 
-0

>  <r_i_glide_rewards>  (68) 
-0.5

>  <r_i_glide_evdw>  (68) 
-27.5929

>  <r_i_glide_ecoul>  (68) 
-8.23741

>  <r_i_glide_erotb>  (68) 
0

>  <r_i_glide_esite>  (68) 
0

>  <r_i_glide_emodel>  (68) 
-49.2764

>  <r_i_glide_energy>  (68) 
-35.8303

>  <r_i_glide_einternal>  (68) 
0.912265

>  <r_i_glide_intrahb_reward>  (68) 
-0.5

>  <i_i_glide_confnum>  (68) 
1

>  <i_i_glide_posenum>  (68) 
8

>  <r_i_glide_eff_state_penalty>  (68) 
0

>  <ligand_id>  (68) 
22

>  <original_smiles>  (68) 
CC12CCC3CCC(O)C4(C)C3C(O1)C1(O)OC(CC3(O)CCC5C6C(O)CC4(O)C5(C)CCC63C)C(O)CC1(C)OO2

>  <smiles>  (68) 
[H]OC1([H])C([H])([H])C2(C([H])([H])[H])OOC3(C([H])([H])[H])OC4([H])C2(O[H])OC1([H])C([H])([H])C1(O[H])C([H])([H])C([H])([H])C2([H])C5([H])C([H])(O[H])C([H])([H])C(O[H])(C2(C([H])([H])[H])C([H])([H])C([H])([H])C51C([H])([H])[H])C1(C([H])([H])[H])C([H])(O[H])C([H])([H])C([H])([H])C([H])(C([H])([H])C3([H])[H])C41[H]

$$$$
22:0:1
     RDKit          3D

 95102  0  0  1  0  0  0  0  0999 V2000
    3.0831   -2.5161    8.8651 C   0  0  0  0  0  0  0  0  0  0  0  0
    2.3769   -2.5302    7.4941 C   0  0  2  0  0  0  0  0  0  0  0  0
    1.1315   -3.4425    7.6042 C   0  0  0  0  0  0  0  0  0  0  0  0
    1.1917   -4.7277    6.7830 C   0  0  0  0  0  0  0  0  0  0  0  0
    1.1970   -4.4879    5.2643 C   0  0  2  0  0  0  0  0  0  0  0  0
    0.3466   -5.5217    4.5351 C   0  0  0  0  0  0  0  0  0  0  0  0
    0.9410   -6.9188    4.5410 C   0  0  0  0  0  0  0  0  0  0  0  0
    2.4480   -6.9596    4.8560 C   0  0  1  0  0  0  0  0  0  0  0  0
    2.9270   -8.2570    4.5851 O   0  0  0  0  0  0  0  0  0  0  0  0
    3.3981   -5.7862    4.3549 C   0  0  2  0  0  0  0  0  0  0  0  0
    4.5429   -5.8531    5.4079 C   0  0  0  0  0  0  0  0  0  0  0  0
    2.5957   -4.3494    4.6077 C   0  0  2  0  0  0  0  0  0  0  0  0
    3.3565   -3.0501    5.2179 C   0  0  2  0  0  0  0  0  0  0  0  0
    3.4212   -2.9823    6.6435 O   0  0  0  0  0  0  0  0  0  0  0  0
    3.2432   -1.5757    4.5064 C   0  0  1  0  0  0  0  0  0  0  0  0
    4.5533   -1.0176    4.5931 O   0  0  0  0  0  0  0  0  0  0  0  0
    2.9731   -1.8497    3.1466 O   0  0  0  0  0  0  0  0  0  0  0  0
    2.6814   -0.9361    2.0502 C   0  0  2  0  0  0  0  0  0  0  0  0
    3.6605   -0.8316    0.7875 C   0  0  0  0  0  0  0  0  0  0  0  0
    4.4653   -2.0031    0.0172 C   0  0  1  0  0  0  0  0  0  0  0  0
    4.8224   -1.4509   -1.2307 O   0  0  0  0  0  0  0  0  0  0  0  0
    5.8415   -2.1629    0.6250 C   0  0  0  0  0  0  0  0  0  0  0  0
    5.5962   -2.7248    1.9879 C   0  0  0  0  0  0  0  0  0  0  0  0
    4.5780   -3.9002    2.0787 C   0  0  1  0  0  0  0  0  0  0  0  0
    3.2980   -3.8980    1.1305 C   0  0  2  0  0  0  0  0  0  0  0  0
    2.3559   -5.1499    1.2322 C   0  0  1  0  0  0  0  0  0  0  0  0
    1.5777   -5.4929    0.1070 O   0  0  0  0  0  0  0  0  0  0  0  0
    2.9618   -6.4210    1.7734 C   0  0  0  0  0  0  0  0  0  0  0  0
    4.0302   -6.1557    2.8330 C   0  0  2  0  0  0  0  0  0  0  0  0
    4.6910   -7.4002    2.8124 O   0  0  0  0  0  0  0  0  0  0  0  0
    5.1714   -5.2755    2.1046 C   0  0  2  0  0  0  0  0  0  0  0  0
    6.5370   -5.4328    2.8392 C   0  0  0  0  0  0  0  0  0  0  0  0
    5.5263   -5.4654    0.5671 C   0  0  0  0  0  0  0  0  0  0  0  0
    4.7658   -4.6587   -0.5701 C   0  0  0  0  0  0  0  0  0  0  0  0
    3.8189   -3.4470   -0.2155 C   0  0  2  0  0  0  0  0  0  0  0  0
    2.7242   -3.2638   -1.2996 C   0  0  0  0  0  0  0  0  0  0  0  0
    2.2037    0.3837    2.6358 C   0  0  1  0  0  0  0  0  0  0  0  0
    1.4169    1.0711    1.6982 O   0  0  0  0  0  0  0  0  0  0  0  0
    1.3374    0.0429    3.8710 C   0  0  0  0  0  0  0  0  0  0  0  0
    2.1802   -0.5302    5.0476 C   0  0  2  0  0  0  0  0  0  0  0  0
    2.8818    0.6945    5.7313 C   0  0  0  0  0  0  0  0  0  0  0  0
    1.2667   -1.1701    5.9368 O   0  0  0  0  0  0  0  0  0  0  0  0
    1.9787   -1.1856    7.2763 O   0  0  0  0  0  0  0  0  0  0  0  0
    3.9538   -1.8611    8.8471 H   0  0  0  0  0  0  0  0  0  0  0  0
    3.4378   -3.5121    9.1383 H   0  0  0  0  0  0  0  0  0  0  0  0
    2.4255   -2.1692    9.6615 H   0  0  0  0  0  0  0  0  0  0  0  0
    1.0127   -3.7524    8.6480 H   0  0  0  0  0  0  0  0  0  0  0  0
    0.2313   -2.8749    7.3802 H   0  0  0  0  0  0  0  0  0  0  0  0
    2.0371   -5.3081    7.1363 H   0  0  0  0  0  0  0  0  0  0  0  0
    0.3009   -5.3058    7.0443 H   0  0  0  0  0  0  0  0  0  0  0  0
    0.6850   -3.5389    5.1118 H   0  0  0  0  0  0  0  0  0  0  0  0
   -0.6658   -5.5433    4.9210 H   0  0  0  0  0  0  0  0  0  0  0  0
    0.2414   -5.2025    3.5089 H   0  0  0  0  0  0  0  0  0  0  0  0
    0.4315   -7.4994    5.3113 H   0  0  0  0  0  0  0  0  0  0  0  0
    0.6922   -7.4287    3.6151 H   0  0  0  0  0  0  0  0  0  0  0  0
    2.4711   -6.9435    5.9409 H   0  0  0  0  0  0  0  0  0  0  0  0
    2.3970   -8.6564    3.9080 H   0  0  0  0  0  0  0  0  0  0  0  0
    5.3129   -5.1065    5.2902 H   0  0  0  0  0  0  0  0  0  0  0  0
    5.0387   -6.8242    5.4199 H   0  0  0  0  0  0  0  0  0  0  0  0
    4.1710   -5.6762    6.4125 H   0  0  0  0  0  0  0  0  0  0  0  0
    2.3019   -4.0136    3.6322 H   0  0  0  0  0  0  0  0  0  0  0  0
    4.4053   -3.2579    5.0360 H   0  0  0  0  0  0  0  0  0  0  0  0
    4.5129   -0.1633    4.1709 H   0  0  0  0  0  0  0  0  0  0  0  0
    1.7543   -1.3291    1.6344 H   0  0  0  0  0  0  0  0  0  0  0  0
    3.0132   -0.3922    0.0409 H   0  0  0  0  0  0  0  0  0  0  0  0
    4.3794   -0.0341    1.0020 H   0  0  0  0  0  0  0  0  0  0  0  0
    4.0172   -1.2308   -1.6834 H   0  0  0  0  0  0  0  0  0  0  0  0
    6.4912   -2.7963    0.0160 H   0  0  0  0  0  0  0  0  0  0  0  0
    6.3644   -1.2088    0.6716 H   0  0  0  0  0  0  0  0  0  0  0  0
    6.5449   -2.9978    2.3828 H   0  0  0  0  0  0  0  0  0  0  0  0
    5.2865   -1.8924    2.5823 H   0  0  0  0  0  0  0  0  0  0  0  0
    4.3172   -3.7809    3.0833 H   0  0  0  0  0  0  0  0  0  0  0  0
    2.5647   -3.1649    1.3610 H   0  0  0  0  0  0  0  0  0  0  0  0
    1.6010   -4.8669    1.9520 H   0  0  0  0  0  0  0  0  0  0  0  0
    2.1725   -5.6386   -0.6228 H   0  0  0  0  0  0  0  0  0  0  0  0
    2.1815   -7.0807    2.1377 H   0  0  0  0  0  0  0  0  0  0  0  0
    3.3738   -7.0009    0.9503 H   0  0  0  0  0  0  0  0  0  0  0  0
    4.2417   -7.9835    3.4161 H   0  0  0  0  0  0  0  0  0  0  0  0
    6.8313   -6.4590    3.0426 H   0  0  0  0  0  0  0  0  0  0  0  0
    6.5653   -4.8990    3.7759 H   0  0  0  0  0  0  0  0  0  0  0  0
    7.3804   -5.0302    2.2709 H   0  0  0  0  0  0  0  0  0  0  0  0
    6.5948   -5.3224    0.3809 H   0  0  0  0  0  0  0  0  0  0  0  0
    5.4032   -6.5158    0.3347 H   0  0  0  0  0  0  0  0  0  0  0  0
    5.5011   -4.3207   -1.2969 H   0  0  0  0  0  0  0  0  0  0  0  0
    4.2115   -5.4312   -1.0987 H   0  0  0  0  0  0  0  0  0  0  0  0
    2.3357   -4.1776   -1.7260 H   0  0  0  0  0  0  0  0  0  0  0  0
    3.0416   -2.7261   -2.1901 H   0  0  0  0  0  0  0  0  0  0  0  0
    1.8603   -2.7588   -0.8894 H   0  0  0  0  0  0  0  0  0  0  0  0
    3.0460    1.0275    2.9089 H   0  0  0  0  0  0  0  0  0  0  0  0
    0.9591    0.4588    1.1199 H   0  0  0  0  0  0  0  0  0  0  0  0
    0.8172    0.9360    4.2077 H   0  0  0  0  0  0  0  0  0  0  0  0
    0.5656   -0.6699    3.5950 H   0  0  0  0  0  0  0  0  0  0  0  0
    3.4627    1.2958    5.0252 H   0  0  0  0  0  0  0  0  0  0  0  0
    3.5628    0.4206    6.5435 H   0  0  0  0  0  0  0  0  0  0  0  0
    2.1337    1.3648    6.1499 H   0  0  0  0  0  0  0  0  0  0  0  0
  2  1  1  1
  1 44  1  0
  1 45  1  0
  1 46  1  0
  2 14  1  0
  2 43  1  0
  2  3  1  0
  3  4  1  0
  3 47  1  0
  3 48  1  0
  4  5  1  0
  4 49  1  0
  4 50  1  0
  5 12  1  0
  5  6  1  0
  5 51  1  1
  6  7  1  0
  6 52  1  0
  6 53  1  0
  7  8  1  0
  7 54  1  0
  7 55  1  0
  8  9  1  0
  8 10  1  0
  8 56  1  1
  9 57  1  0
 10 29  1  0
 10 11  1  1
 10 12  1  0
 11 58  1  0
 11 59  1  0
 11 60  1  0
 12 13  1  0
 12 61  1  6
 13 14  1  0
 13 15  1  0
 13 62  1  6
 15 40  1  0
 15 16  1  6
 15 17  1  0
 16 63  1  0
 17 18  1  0
 18 19  1  0
 18 37  1  0
 18 64  1  6
 19 20  1  0
 19 65  1  0
 19 66  1  0
 20 35  1  0
 20 21  1  6
 20 22  1  0
 21 67  1  0
 22 23  1  0
 22 68  1  0
 22 69  1  0
 23 24  1  0
 23 70  1  0
 23 71  1  0
 24 31  1  0
 24 25  1  0
 24 72  1  1
 25 35  1  0
 25 26  1  0
 25 73  1  1
 26 27  1  0
 26 28  1  0
 26 74  1  1
 27 75  1  0
 28 29  1  0
 28 76  1  0
 28 77  1  0
 29 30  1  1
 29 31  1  0
 30 78  1  0
 31 32  1  1
 31 33  1  0
 32 79  1  0
 32 80  1  0
 32 81  1  0
 33 34  1  0
 33 82  1  0
 33 83  1  0
 34 35  1  0
 34 84  1  0
 34 85  1  0
 35 36  1  6
 36 86  1  0
 36 87  1  0
 36 88  1  0
 37 38  1  0
 37 39  1  0
 37 89  1  1
 38 90  1  0
 39 40  1  0
 39 91  1  0
 39 92  1  0
 40 41  1  1
 40 42  1  0
 41 93  1  0
 41 94  1  0
 41 95  1  0
 42 43  1  0
M  END
>  <i_m_ct_stereo_status>  (69) 
1

>  <s_m_source_file>  (69) 
/var/tmp/pbs.5076255.sched01/tmpnm8fzmj1/0q4giu30i.sdf

>  <i_m_source_file_index>  (69) 
33

>  <i_lp_mmshare_version>  (69) 
48012

>  <i_f3d_flags>  (69) 
0

>  <s_epik_input>  (69) 
W0NIM11bQ0BdMTJbQ0gyXVtDSDJdW0NASF0zW0NAQEhdNFtDQEBdKFtDSDNdKShbQ0BIXShbT0hdKVtDSDJdW0NIMl0zKVtDQF01KFtPSF0pW0NAXTYoW0NIM10pW0NAQEhdN1tDQEhdKFtDQEBIXShbT0hdKVtDSDJdNSlbQ0BdKFtDSDNdKShbQ0gyXVtDSDJdNilbQ0BdKFtPSF0pKFtDSDJdW0NIMl03KVtDSDJdW0NASF04T1tDQEBdKFtDQEhdNE8xKShbT0hdKVtDQF0oW0NIM10pKE9PMilbQ0gyXVtDQEBIXThbT0hd

>  <s_epik_cmdline>  (69) 
J2VwaWtfcHl0aG9uJywgJy1waHQnLCAnMi4wJywgJy1waCcsICc3LjAnLCAnLXRuJywgJzgnLCAnLW1hJywgJzIwMCcsICctaW1hZScsICc8aW5maWxlLm1hZT4nLCAnLW9tYWUnLCAnPG91dGZpbGUubWFlPic=

>  <r_lp_tautomer_probability>  (69) 
1

>  <r_epik_Ionization_Penalty>  (69) 
4.46486e-05

>  <r_epik_Ionization_Penalty_Charging>  (69) 
0

>  <r_epik_Ionization_Penalty_Neutral>  (69) 
4.46486e-05

>  <r_epik_State_Penalty>  (69) 
-0

>  <r_epik_Charging_Adjusted_Penalty>  (69) 
0

>  <i_epik_Tot_Q>  (69) 
0

>  <i_epik_Tot_abs_Q>  (69) 
0

>  <s_lp_Force_Field>  (69) 
OPLS3e

>  <r_lp_Energy>  (69) 
223.983

>  <b_lp_Chiralities_Consistent>  (69) 
1

>  <s_lp_Variant>  (69) 
22:0-1

>  <s_i_glide_gridfile>  (69) 
pfpi4k_grid

>  <i_i_glide_lignum>  (69) 
33

>  <i_i_glide_rotatable_bonds>  (69) 
6

>  <r_i_docking_score>  (69) 
-3.90492

>  <r_i_glide_ligand_efficiency>  (69) 
-0.0908121

>  <r_i_glide_ligand_efficiency_sa>  (69) 
-0.318151

>  <r_i_glide_ligand_efficiency_ln>  (69) 
-0.820154

>  <r_i_glide_gscore>  (69) 
-3.90492

>  <r_i_glide_lipo>  (69) 
-0.380644

>  <r_i_glide_hbond>  (69) 
-0.357349

>  <r_i_glide_metal>  (69) 
-0

>  <r_i_glide_rewards>  (69) 
-0.5

>  <r_i_glide_evdw>  (69) 
-27.7165

>  <r_i_glide_ecoul>  (69) 
-8.54069

>  <r_i_glide_erotb>  (69) 
0

>  <r_i_glide_esite>  (69) 
0

>  <r_i_glide_emodel>  (69) 
-49.2678

>  <r_i_glide_energy>  (69) 
-36.2571

>  <r_i_glide_einternal>  (69) 
0.751048

>  <r_i_glide_intrahb_reward>  (69) 
-0.5

>  <i_i_glide_confnum>  (69) 
2

>  <i_i_glide_posenum>  (69) 
2

>  <r_i_glide_eff_state_penalty>  (69) 
0

>  <ligand_id>  (69) 
22

>  <original_smiles>  (69) 
CC12CCC3CCC(O)C4(C)C3C(O1)C1(O)OC(CC3(O)CCC5C6C(O)CC4(O)C5(C)CCC63C)C(O)CC1(C)OO2

>  <smiles>  (69) 
[H]OC1([H])C([H])([H])C2(C([H])([H])[H])OOC3(C([H])([H])[H])OC4([H])C2(O[H])OC1([H])C([H])([H])C1(O[H])C([H])([H])C([H])([H])C2([H])C5([H])C([H])(O[H])C([H])([H])C(O[H])(C2(C([H])([H])[H])C([H])([H])C([H])([H])C51C([H])([H])[H])C1(C([H])([H])[H])C([H])(O[H])C([H])([H])C([H])([H])C([H])(C([H])([H])C3([H])[H])C41[H]

$$$$
22:0:2
     RDKit          3D

 95102  0  0  1  0  0  0  0  0999 V2000
    4.0434    0.1843    7.8072 C   0  0  0  0  0  0  0  0  0  0  0  0
    3.1552   -0.4427    6.7290 C   0  0  2  0  0  0  0  0  0  0  0  0
    1.6697   -0.1996    7.0903 C   0  0  0  0  0  0  0  0  0  0  0  0
    0.8870   -1.4459    7.4373 C   0  0  0  0  0  0  0  0  0  0  0  0
    0.6912   -2.4015    6.2492 C   0  0  2  0  0  0  0  0  0  0  0  0
   -0.7165   -2.9990    6.2340 C   0  0  0  0  0  0  0  0  0  0  0  0
   -0.9508   -4.0113    7.3537 C   0  0  0  0  0  0  0  0  0  0  0  0
    0.3368   -4.5370    8.0039 C   0  0  1  0  0  0  0  0  0  0  0  0
   -0.0930   -5.5658    8.8725 O   0  0  0  0  0  0  0  0  0  0  0  0
    1.6385   -4.7985    7.1064 C   0  0  2  0  0  0  0  0  0  0  0  0
    2.7752   -4.6585    8.1568 C   0  0  0  0  0  0  0  0  0  0  0  0
    1.7742   -3.4988    6.0716 C   0  0  2  0  0  0  0  0  0  0  0  0
    3.2060   -2.7883    5.7871 C   0  0  2  0  0  0  0  0  0  0  0  0
    3.6108   -1.8031    6.7277 O   0  0  0  0  0  0  0  0  0  0  0  0
    3.7112   -2.5170    4.2541 C   0  0  1  0  0  0  0  0  0  0  0  0
    5.0954   -2.7996    4.2665 O   0  0  0  0  0  0  0  0  0  0  0  0
    3.0550   -3.4825    3.4441 O   0  0  0  0  0  0  0  0  0  0  0  0
    3.0616   -3.6183    1.9967 C   0  0  2  0  0  0  0  0  0  0  0  0
    3.6435   -4.9534    1.3259 C   0  0  0  0  0  0  0  0  0  0  0  0
    3.5461   -6.4868    1.8480 C   0  0  1  0  0  0  0  0  0  0  0  0
    3.8676   -7.2778    0.7368 O   0  0  0  0  0  0  0  0  0  0  0  0
    4.7418   -6.8224    2.7161 C   0  0  0  0  0  0  0  0  0  0  0  0
    4.5752   -6.0471    3.9826 C   0  0  0  0  0  0  0  0  0  0  0  0
    3.1294   -6.0414    4.5783 C   0  0  1  0  0  0  0  0  0  0  0  0
    1.8566   -6.0741    3.6078 C   0  0  2  0  0  0  0  0  0  0  0  0
    0.4452   -6.1292    4.2913 C   0  0  1  0  0  0  0  0  0  0  0  0
   -0.6334   -6.6576    3.5535 O   0  0  0  0  0  0  0  0  0  0  0  0
    0.3912   -6.7178    5.6899 C   0  0  0  0  0  0  0  0  0  0  0  0
    1.6442   -6.3697    6.5013 C   0  0  2  0  0  0  0  0  0  0  0  0
    1.4723   -7.2671    7.5857 O   0  0  0  0  0  0  0  0  0  0  0  0
    2.8917   -7.0241    5.6870 C   0  0  2  0  0  0  0  0  0  0  0  0
    4.1184   -7.2406    6.6265 C   0  0  0  0  0  0  0  0  0  0  0  0
    2.7139   -8.3884    4.8756 C   0  0  0  0  0  0  0  0  0  0  0  0
    2.2578   -8.4030    3.3399 C   0  0  0  0  0  0  0  0  0  0  0  0
    2.1982   -7.0558    2.5122 C   0  0  2  0  0  0  0  0  0  0  0  0
    1.1258   -7.1738    1.3888 C   0  0  0  0  0  0  0  0  0  0  0  0
    3.4810   -2.2940    1.3592 C   0  0  1  0  0  0  0  0  0  0  0  0
    3.0313   -2.2206    0.0236 O   0  0  0  0  0  0  0  0  0  0  0  0
    2.8665   -1.1669    2.2106 C   0  0  0  0  0  0  0  0  0  0  0  0
    3.5141   -1.0759    3.6066 C   0  0  2  0  0  0  0  0  0  0  0  0
    4.8691   -0.3109    3.4271 C   0  0  0  0  0  0  0  0  0  0  0  0
    2.6415   -0.3051    4.4125 O   0  0  0  0  0  0  0  0  0  0  0  0
    3.4638    0.2780    5.5597 O   0  0  0  0  0  0  0  0  0  0  0  0
    5.1095    0.0704    7.5689 H   0  0  0  0  0  0  0  0  0  0  0  0
    3.8715   -0.2994    8.7685 H   0  0  0  0  0  0  0  0  0  0  0  0
    3.8474    1.2572    7.9378 H   0  0  0  0  0  0  0  0  0  0  0  0
    1.6403    0.4467    7.9727 H   0  0  0  0  0  0  0  0  0  0  0  0
    1.1749    0.3805    6.3077 H   0  0  0  0  0  0  0  0  0  0  0  0
    1.3615   -1.9109    8.2961 H   0  0  0  0  0  0  0  0  0  0  0  0
   -0.0887   -1.1096    7.7859 H   0  0  0  0  0  0  0  0  0  0  0  0
    0.7271   -1.7779    5.3553 H   0  0  0  0  0  0  0  0  0  0  0  0
   -1.4839   -2.2262    6.2552 H   0  0  0  0  0  0  0  0  0  0  0  0
   -0.8490   -3.4819    5.2774 H   0  0  0  0  0  0  0  0  0  0  0  0
   -1.5113   -3.5299    8.1577 H   0  0  0  0  0  0  0  0  0  0  0  0
   -1.6123   -4.8073    7.0146 H   0  0  0  0  0  0  0  0  0  0  0  0
    0.5958   -3.7756    8.7328 H   0  0  0  0  0  0  0  0  0  0  0  0
    0.0799   -6.3882    8.4271 H   0  0  0  0  0  0  0  0  0  0  0  0
    3.7718   -4.7599    7.7546 H   0  0  0  0  0  0  0  0  0  0  0  0
    2.6804   -5.3845    8.9670 H   0  0  0  0  0  0  0  0  0  0  0  0
    2.7761   -3.6733    8.6179 H   0  0  0  0  0  0  0  0  0  0  0  0
    1.4987   -3.8771    5.1108 H   0  0  0  0  0  0  0  0  0  0  0  0
    3.9203   -3.5489    6.0782 H   0  0  0  0  0  0  0  0  0  0  0  0
    5.4330   -2.6288    3.3973 H   0  0  0  0  0  0  0  0  0  0  0  0
    2.0030   -3.6380    1.7528 H   0  0  0  0  0  0  0  0  0  0  0  0
    3.1981   -4.9592    0.3311 H   0  0  0  0  0  0  0  0  0  0  0  0
    4.6969   -4.7489    1.1171 H   0  0  0  0  0  0  0  0  0  0  0  0
    4.6168   -6.8957    0.3144 H   0  0  0  0  0  0  0  0  0  0  0  0
    4.8161   -7.8971    2.9159 H   0  0  0  0  0  0  0  0  0  0  0  0
    5.6913   -6.5656    2.2369 H   0  0  0  0  0  0  0  0  0  0  0  0
    5.3478   -6.3644    4.6760 H   0  0  0  0  0  0  0  0  0  0  0  0
    4.8622   -5.0442    3.7286 H   0  0  0  0  0  0  0  0  0  0  0  0
    3.1693   -5.1393    5.1069 H   0  0  0  0  0  0  0  0  0  0  0  0
    1.6946   -5.1796    3.0642 H   0  0  0  0  0  0  0  0  0  0  0  0
    0.1210   -5.1052    4.3750 H   0  0  0  0  0  0  0  0  0  0  0  0
   -0.5195   -7.5976    3.5024 H   0  0  0  0  0  0  0  0  0  0  0  0
   -0.5197   -6.3982    6.1828 H   0  0  0  0  0  0  0  0  0  0  0  0
    0.2671   -7.7998    5.6293 H   0  0  0  0  0  0  0  0  0  0  0  0
    1.5589   -8.1522    7.2571 H   0  0  0  0  0  0  0  0  0  0  0  0
    3.8649   -7.7456    7.5597 H   0  0  0  0  0  0  0  0  0  0  0  0
    4.6455   -6.3245    6.8683 H   0  0  0  0  0  0  0  0  0  0  0  0
    4.8899   -7.8699    6.1788 H   0  0  0  0  0  0  0  0  0  0  0  0
    3.6497   -8.9528    4.8910 H   0  0  0  0  0  0  0  0  0  0  0  0
    2.0446   -9.0475    5.4232 H   0  0  0  0  0  0  0  0  0  0  0  0
    2.9050   -9.0962    2.8122 H   0  0  0  0  0  0  0  0  0  0  0  0
    1.2842   -8.8909    3.3061 H   0  0  0  0  0  0  0  0  0  0  0  0
    0.2704   -7.7809    1.6795 H   0  0  0  0  0  0  0  0  0  0  0  0
    1.4607   -7.6979    0.5008 H   0  0  0  0  0  0  0  0  0  0  0  0
    0.7718   -6.1934    1.0693 H   0  0  0  0  0  0  0  0  0  0  0  0
    4.5722   -2.2196    1.3465 H   0  0  0  0  0  0  0  0  0  0  0  0
    2.1678   -1.7878   -0.0438 H   0  0  0  0  0  0  0  0  0  0  0  0
    2.9558   -0.2067    1.6999 H   0  0  0  0  0  0  0  0  0  0  0  0
    1.7811   -1.3358    2.3186 H   0  0  0  0  0  0  0  0  0  0  0  0
    5.5036   -0.7860    2.6849 H   0  0  0  0  0  0  0  0  0  0  0  0
    5.4657   -0.2151    4.3299 H   0  0  0  0  0  0  0  0  0  0  0  0
    4.6572    0.6904    3.0580 H   0  0  0  0  0  0  0  0  0  0  0  0
  2  1  1  1
  1 44  1  0
  1 45  1  0
  1 46  1  0
  2 14  1  0
  2 43  1  0
  2  3  1  0
  3  4  1  0
  3 47  1  0
  3 48  1  0
  4  5  1  0
  4 49  1  0
  4 50  1  0
  5 12  1  0
  5  6  1  0
  5 51  1  6
  6  7  1  0
  6 52  1  0
  6 53  1  0
  7  8  1  0
  7 54  1  0
  7 55  1  0
  8  9  1  0
  8 10  1  0
  8 56  1  1
  9 57  1  0
 10 29  1  0
 10 11  1  1
 10 12  1  0
 11 58  1  0
 11 59  1  0
 11 60  1  0
 12 13  1  0
 12 61  1  6
 13 14  1  0
 13 15  1  0
 13 62  1  1
 15 40  1  0
 15 16  1  1
 15 17  1  0
 16 63  1  0
 17 18  1  0
 18 19  1  0
 18 37  1  0
 18 64  1  6
 19 20  1  0
 19 65  1  0
 19 66  1  0
 20 35  1  0
 20 21  1  6
 20 22  1  0
 21 67  1  0
 22 23  1  0
 22 68  1  0
 22 69  1  0
 23 24  1  0
 23 70  1  0
 23 71  1  0
 24 31  1  0
 24 25  1  0
 24 72  1  1
 25 35  1  0
 25 26  1  0
 25 73  1  6
 26 27  1  0
 26 28  1  0
 26 74  1  1
 27 75  1  0
 28 29  1  0
 28 76  1  0
 28 77  1  0
 29 30  1  1
 29 31  1  0
 30 78  1  0
 31 32  1  1
 31 33  1  0
 32 79  1  0
 32 80  1  0
 32 81  1  0
 33 34  1  0
 33 82  1  0
 33 83  1  0
 34 35  1  0
 34 84  1  0
 34 85  1  0
 35 36  1  6
 36 86  1  0
 36 87  1  0
 36 88  1  0
 37 38  1  0
 37 39  1  0
 37 89  1  6
 38 90  1  0
 39 40  1  0
 39 91  1  0
 39 92  1  0
 40 41  1  6
 40 42  1  0
 41 93  1  0
 41 94  1  0
 41 95  1  0
 42 43  1  0
M  END
>  <i_m_ct_stereo_status>  (70) 
1

>  <s_m_source_file>  (70) 
/var/tmp/pbs.5076255.sched01/tmpnm8fzmj1/0q4giu30i.sdf

>  <i_m_source_file_index>  (70) 
33

>  <i_lp_mmshare_version>  (70) 
48012

>  <i_f3d_flags>  (70) 
0

>  <s_epik_input>  (70) 
W0NIM11bQ0BdMTJbQ0gyXVtDSDJdW0NASF0zW0NAQEhdNFtDQEBdKFtDSDNdKShbQ0BIXShbT0hdKVtDSDJdW0NIMl0zKVtDQF01KFtPSF0pW0NAXTYoW0NIM10pW0NAQEhdN1tDQEhdKFtDQEBIXShbT0hdKVtDSDJdNSlbQ0BdKFtDSDNdKShbQ0gyXVtDSDJdNilbQ0BdKFtPSF0pKFtDSDJdW0NIMl03KVtDSDJdW0NASF04T1tDQEBdKFtDQEhdNE8xKShbT0hdKVtDQF0oW0NIM10pKE9PMilbQ0gyXVtDQEBIXThbT0hd

>  <s_epik_cmdline>  (70) 
J2VwaWtfcHl0aG9uJywgJy1waHQnLCAnMi4wJywgJy1waCcsICc3LjAnLCAnLXRuJywgJzgnLCAnLW1hJywgJzIwMCcsICctaW1hZScsICc8aW5maWxlLm1hZT4nLCAnLW9tYWUnLCAnPG91dGZpbGUubWFlPic=

>  <r_lp_tautomer_probability>  (70) 
1

>  <r_epik_Ionization_Penalty>  (70) 
4.46486e-05

>  <r_epik_Ionization_Penalty_Charging>  (70) 
0

>  <r_epik_Ionization_Penalty_Neutral>  (70) 
4.46486e-05

>  <r_epik_State_Penalty>  (70) 
-0

>  <r_epik_Charging_Adjusted_Penalty>  (70) 
0

>  <i_epik_Tot_Q>  (70) 
0

>  <i_epik_Tot_abs_Q>  (70) 
0

>  <s_lp_Force_Field>  (70) 
OPLS3e

>  <r_lp_Energy>  (70) 
223.983

>  <b_lp_Chiralities_Consistent>  (70) 
1

>  <s_lp_Variant>  (70) 
22:0-1

>  <s_i_glide_gridfile>  (70) 
pfpi4k_grid

>  <i_i_glide_lignum>  (70) 
33

>  <i_i_glide_rotatable_bonds>  (70) 
6

>  <r_i_docking_score>  (70) 
-3.21455

>  <r_i_glide_ligand_efficiency>  (70) 
-0.074757

>  <r_i_glide_ligand_efficiency_sa>  (70) 
-0.261904

>  <r_i_glide_ligand_efficiency_ln>  (70) 
-0.675156

>  <r_i_glide_gscore>  (70) 
-3.21455

>  <r_i_glide_lipo>  (70) 
-0.159419

>  <r_i_glide_hbond>  (70) 
-0.28938

>  <r_i_glide_metal>  (70) 
-0

>  <r_i_glide_rewards>  (70) 
-0.5

>  <r_i_glide_evdw>  (70) 
-25.6026

>  <r_i_glide_ecoul>  (70) 
-6.57084

>  <r_i_glide_erotb>  (70) 
0

>  <r_i_glide_esite>  (70) 
0

>  <r_i_glide_emodel>  (70) 
-43.6039

>  <r_i_glide_energy>  (70) 
-32.1734

>  <r_i_glide_einternal>  (70) 
1.06701

>  <r_i_glide_intrahb_reward>  (70) 
-0.5

>  <i_i_glide_confnum>  (70) 
1

>  <i_i_glide_posenum>  (70) 
21

>  <r_i_glide_eff_state_penalty>  (70) 
0

>  <ligand_id>  (70) 
22

>  <original_smiles>  (70) 
CC12CCC3CCC(O)C4(C)C3C(O1)C1(O)OC(CC3(O)CCC5C6C(O)CC4(O)C5(C)CCC63C)C(O)CC1(C)OO2

>  <smiles>  (70) 
[H]OC1([H])C([H])([H])C2(C([H])([H])[H])OOC3(C([H])([H])[H])OC4([H])C2(O[H])OC1([H])C([H])([H])C1(O[H])C([H])([H])C([H])([H])C2([H])C5([H])C([H])(O[H])C([H])([H])C(O[H])(C2(C([H])([H])[H])C([H])([H])C([H])([H])C51C([H])([H])[H])C1(C([H])([H])[H])C([H])(O[H])C([H])([H])C([H])([H])C([H])(C([H])([H])C3([H])[H])C41[H]

$$$$
25:0:0
     RDKit          3D

 65 71  0  0  1  0  0  0  0  0999 V2000
    4.8169   -1.8448   -1.3774 C   0  0  0  0  0  0  0  0  0  0  0  0
    5.7602   -2.5946   -0.4344 C   0  0  1  0  0  0  0  0  0  0  0  0
    6.9889   -1.8114    0.0649 C   0  0  0  0  0  0  0  0  0  0  0  0
    8.1532   -2.5559   -0.5618 C   0  0  2  0  0  0  0  0  0  0  0  0
    8.7492   -3.8705   -0.5595 O   0  0  0  0  0  0  0  0  0  0  0  0
    7.4288   -3.8889   -0.1866 C   0  0  1  0  0  0  0  0  0  0  0  0
    7.0815   -4.4076    1.1988 C   0  0  0  0  0  0  0  0  0  0  0  0
    5.5475   -4.2945    1.4650 C   0  0  2  0  0  0  0  0  0  0  0  0
    5.2567   -4.1022    2.9676 C   0  0  0  0  0  0  0  0  0  0  0  0
    5.6199   -5.3511    3.8062 C   0  0  0  0  0  0  0  0  0  0  0  0
    5.0338   -6.6790    3.2685 C   0  0  2  0  0  0  0  0  0  0  0  0
    5.2397   -6.8307    1.7342 C   0  0  1  0  0  0  0  0  0  0  0  0
    4.6572   -8.1364    1.1675 C   0  0  0  0  0  0  0  0  0  0  0  0
    3.2205   -8.3577    1.6317 C   0  0  0  0  0  0  0  0  0  0  0  0
    3.1245   -8.3726    3.1758 C   0  0  1  0  0  0  0  0  0  0  0  0
    3.6139   -7.0388    3.7992 C   0  0  2  0  0  0  0  0  0  0  0  0
    2.5364   -5.9375    3.7030 C   0  0  0  0  0  0  0  0  0  0  0  0
    1.1991   -6.3923    4.3058 C   0  0  0  0  0  0  0  0  0  0  0  0
    0.6407   -7.6679    3.6283 C   0  0  2  0  0  0  0  0  0  0  0  0
    0.1354   -7.3082    2.2016 C   0  0  0  0  0  0  0  0  0  0  0  0
   -0.4854   -8.2851    4.5029 C   0  0  1  0  0  0  0  0  0  0  0  0
   -1.3907   -9.0339    3.7173 O   0  0  0  0  0  0  0  0  0  0  0  0
    0.2284   -9.1901    5.5417 C   0  0  0  0  0  0  0  0  0  0  0  0
    1.6780   -9.3429    5.0840 C   0  0  0  0  0  0  0  0  0  0  0  0
    1.7119   -8.7835    3.6517 C   0  0  2  0  0  0  0  0  0  0  0  0
    4.8189   -5.5576    0.9600 C   0  0  0  0  0  0  0  0  0  0  0  0
    4.9983   -3.1136    0.7391 N   0  0  0  0  0  0  0  0  0  0  0  0
    6.3515   -3.6688   -1.0760 O   0  0  0  0  0  0  0  0  0  0  0  0
    4.3836   -0.9786   -0.8706 H   0  0  0  0  0  0  0  0  0  0  0  0
    4.0102   -2.5137   -1.6806 H   0  0  0  0  0  0  0  0  0  0  0  0
    5.3472   -1.5076   -2.2714 H   0  0  0  0  0  0  0  0  0  0  0  0
    6.9468   -0.7717   -0.2746 H   0  0  0  0  0  0  0  0  0  0  0  0
    7.0534   -1.7763    1.1573 H   0  0  0  0  0  0  0  0  0  0  0  0
    8.2408   -2.2271   -1.5851 H   0  0  0  0  0  0  0  0  0  0  0  0
    7.4886   -5.4151    1.2993 H   0  0  0  0  0  0  0  0  0  0  0  0
    7.6571   -3.8130    1.8929 H   0  0  0  0  0  0  0  0  0  0  0  0
    5.8025   -3.2354    3.3586 H   0  0  0  0  0  0  0  0  0  0  0  0
    4.2053   -3.8440    3.1069 H   0  0  0  0  0  0  0  0  0  0  0  0
    6.7037   -5.4371    3.8090 H   0  0  0  0  0  0  0  0  0  0  0  0
    5.3410   -5.1943    4.8501 H   0  0  0  0  0  0  0  0  0  0  0  0
    5.6703   -7.4519    3.6951 H   0  0  0  0  0  0  0  0  0  0  0  0
    6.3059   -6.9527    1.5725 H   0  0  0  0  0  0  0  0  0  0  0  0
    4.6748   -8.1083    0.0780 H   0  0  0  0  0  0  0  0  0  0  0  0
    5.2914   -8.9783    1.4617 H   0  0  0  0  0  0  0  0  0  0  0  0
    2.6215   -7.5655    1.2014 H   0  0  0  0  0  0  0  0  0  0  0  0
    2.8655   -9.3076    1.2173 H   0  0  0  0  0  0  0  0  0  0  0  0
    3.8133   -9.1489    3.5227 H   0  0  0  0  0  0  0  0  0  0  0  0
    3.7472   -7.2068    4.8690 H   0  0  0  0  0  0  0  0  0  0  0  0
    2.8532   -5.0488    4.2495 H   0  0  0  0  0  0  0  0  0  0  0  0
    2.3868   -5.6191    2.6734 H   0  0  0  0  0  0  0  0  0  0  0  0
    1.3535   -6.5554    5.3721 H   0  0  0  0  0  0  0  0  0  0  0  0
    0.4744   -5.5798    4.2463 H   0  0  0  0  0  0  0  0  0  0  0  0
   -0.2168   -8.1907    1.6631 H   0  0  0  0  0  0  0  0  0  0  0  0
    0.8883   -6.8449    1.5639 H   0  0  0  0  0  0  0  0  0  0  0  0
   -0.7307   -6.6430    2.2742 H   0  0  0  0  0  0  0  0  0  0  0  0
   -1.0641   -7.5139    5.0142 H   0  0  0  0  0  0  0  0  0  0  0  0
   -1.7423   -9.7641    4.2661 H   0  0  0  0  0  0  0  0  0  0  0  0
    0.1886   -8.7548    6.5431 H   0  0  0  0  0  0  0  0  0  0  0  0
   -0.1828  -10.1959    5.6322 H   0  0  0  0  0  0  0  0  0  0  0  0
    2.3350   -8.8000    5.7651 H   0  0  0  0  0  0  0  0  0  0  0  0
    1.9926  -10.3894    5.1250 H   0  0  0  0  0  0  0  0  0  0  0  0
    1.3729   -9.6055    3.0178 H   0  0  0  0  0  0  0  0  0  0  0  0
    3.7415   -5.3972    1.0060 H   0  0  0  0  0  0  0  0  0  0  0  0
    5.0273   -5.6996   -0.0999 H   0  0  0  0  0  0  0  0  0  0  0  0
    3.9989   -3.1579    0.5760 H   0  0  0  0  0  0  0  0  0  0  0  0
  2  1  1  6
  1 29  1  0
  1 30  1  0
  1 31  1  0
  2 27  1  0
  2 28  1  0
  2  3  1  0
  3  4  1  0
  3 32  1  0
  3 33  1  0
  4  6  1  0
  4  5  1  0
  4 34  1  6
  6  5  1  6
  6  7  1  0
  6 28  1  0
  7  8  1  0
  7 35  1  0
  7 36  1  0
  8 26  1  0
  8  9  1  0
  8 27  1  6
  9 10  1  0
  9 37  1  0
  9 38  1  0
 10 11  1  0
 10 39  1  0
 10 40  1  0
 11 16  1  0
 11 12  1  0
 11 41  1  1
 12 13  1  0
 12 26  1  0
 12 42  1  1
 13 14  1  0
 13 43  1  0
 13 44  1  0
 14 15  1  0
 14 45  1  0
 14 46  1  0
 15 25  1  0
 15 16  1  0
 15 47  1  1
 16 17  1  0
 16 48  1  1
 17 18  1  0
 17 49  1  0
 17 50  1  0
 18 19  1  0
 18 51  1  0
 18 52  1  0
 19 25  1  0
 19 20  1  6
 19 21  1  0
 20 53  1  0
 20 54  1  0
 20 55  1  0
 21 22  1  0
 21 23  1  0
 21 56  1  1
 22 57  1  0
 23 24  1  0
 23 58  1  0
 23 59  1  0
 24 25  1  0
 24 60  1  0
 24 61  1  0
 25 62  1  6
 26 63  1  0
 26 64  1  0
 27 65  1  0
M  END
>  <i_m_ct_stereo_status>  (71) 
1

>  <s_m_source_file>  (71) 
/var/tmp/pbs.5076255.sched01/tmpnm8fzmj1/0q4giu30i.sdf

>  <i_m_source_file_index>  (71) 
36

>  <i_lp_mmshare_version>  (71) 
48012

>  <i_f3d_flags>  (71) 
0

>  <s_epik_input>  (71) 
TzFbQ0BASF0oW0NAQF0xMjMpW0NIMl1bQ0BdKE8zKShbQ0gzXSlbTkhdW0NAQF00KFtDSDJdMilbQ0gyXVtDSDJdW0NAQEhdNVtDQEhdKFtDSDJdNClbQ0gyXVtDSDJdW0NASF02W0NAQEhdNVtDSDJdW0NIMl1bQ0BAXTcoW0NIM10pW0NAQEhdNltDSDJdW0NIMl1bQ0BASF03W09IXQ==

>  <s_epik_cmdline>  (71) 
J2VwaWtfcHl0aG9uJywgJy1waHQnLCAnMi4wJywgJy1waCcsICc3LjAnLCAnLXRuJywgJzgnLCAnLW1hJywgJzIwMCcsICctaW1hZScsICc8aW5maWxlLm1hZT4nLCAnLW9tYWUnLCAnPG91dGZpbGUubWFlPic=

>  <r_epik_Ionization_Penalty>  (71) 
0.333435

>  <r_epik_Ionization_Penalty_Charging>  (71) 
0

>  <r_epik_Ionization_Penalty_Neutral>  (71) 
0.333435

>  <r_epik_State_Penalty>  (71) 
0.328663

>  <r_epik_Charging_Adjusted_Penalty>  (71) 
0.328663

>  <i_epik_Tot_Q>  (71) 
0

>  <i_epik_Tot_abs_Q>  (71) 
0

>  <s_lp_Force_Field>  (71) 
OPLS3e

>  <r_lp_Energy>  (71) 
103.47

>  <b_lp_Chiralities_Consistent>  (71) 
1

>  <s_lp_Variant>  (71) 
25:0-1

>  <s_i_glide_gridfile>  (71) 
pfpi4k_grid

>  <i_i_glide_lignum>  (71) 
36

>  <i_i_glide_rotatable_bonds>  (71) 
1

>  <r_i_docking_score>  (71) 
-3.52034

>  <r_i_glide_ligand_efficiency>  (71) 
-0.125726

>  <r_i_glide_ligand_efficiency_sa>  (71) 
-0.381779

>  <r_i_glide_ligand_efficiency_ln>  (71) 
-0.812597

>  <r_i_glide_gscore>  (71) 
-3.52034

>  <r_i_glide_lipo>  (71) 
-0.344696

>  <r_i_glide_hbond>  (71) 
-0.190789

>  <r_i_glide_metal>  (71) 
-0

>  <r_i_glide_rewards>  (71) 
-0.933308

>  <r_i_glide_evdw>  (71) 
-27.6093

>  <r_i_glide_ecoul>  (71) 
-4.43922

>  <r_i_glide_erotb>  (71) 
0

>  <r_i_glide_esite>  (71) 
-0.00519969

>  <r_i_glide_emodel>  (71) 
-38.1175

>  <r_i_glide_energy>  (71) 
-32.0485

>  <r_i_glide_einternal>  (71) 
0.748996

>  <r_i_glide_intrahb_reward>  (71) 
-0

>  <i_i_glide_confnum>  (71) 
2

>  <i_i_glide_posenum>  (71) 
36

>  <r_i_glide_eff_state_penalty>  (71) 
0

>  <ligand_id>  (71) 
25

>  <original_smiles>  (71) 
CC12CC3OC3(CC3(CCC4C(CCC5C4CCC4(C)C(O)CCC54)C3)N1)O2

>  <smiles>  (71) 
[H]OC1([H])C([H])([H])C([H])([H])C2([H])C3([H])C([H])([H])C([H])([H])C4([H])C([H])([H])C5(N([H])C6(C([H])([H])[H])OC7(OC7([H])C6([H])[H])C5([H])[H])C([H])([H])C([H])([H])C4([H])C3([H])C([H])([H])C([H])([H])C12C([H])([H])[H]

$$$$
25:0:1
     RDKit          3D

 65 71  0  0  1  0  0  0  0  0999 V2000
   -0.9066   -9.4411    2.8405 C   0  0  0  0  0  0  0  0  0  0  0  0
    0.1206   -8.9113    3.8481 C   0  0  1  0  0  0  0  0  0  0  0  0
    0.6422   -9.9250    4.8928 C   0  0  0  0  0  0  0  0  0  0  0  0
    0.1707   -9.3526    6.2104 C   0  0  2  0  0  0  0  0  0  0  0  0
    0.2694   -8.1460    6.9962 O   0  0  0  0  0  0  0  0  0  0  0  0
    0.5728   -7.9429    5.6755 C   0  0  1  0  0  0  0  0  0  0  0  0
    1.9820   -7.4567    5.3166 C   0  0  0  0  0  0  0  0  0  0  0  0
    2.1238   -7.3197    3.7707 C   0  0  2  0  0  0  0  0  0  0  0  0
    3.5898   -7.5383    3.3329 C   0  0  0  0  0  0  0  0  0  0  0  0
    4.5338   -6.4095    3.8191 C   0  0  0  0  0  0  0  0  0  0  0  0
    4.0442   -4.9746    3.4935 C   0  0  2  0  0  0  0  0  0  0  0  0
    2.5421   -4.7805    3.8416 C   0  0  1  0  0  0  0  0  0  0  0  0
    2.0157   -3.3686    3.5212 C   0  0  0  0  0  0  0  0  0  0  0  0
    2.3929   -2.9420    2.0992 C   0  0  0  0  0  0  0  0  0  0  0  0
    3.9298   -2.9911    1.8944 C   0  0  1  0  0  0  0  0  0  0  0  0
    4.5002   -4.4170    2.1148 C   0  0  2  0  0  0  0  0  0  0  0  0
    4.2624   -5.3223    0.8884 C   0  0  0  0  0  0  0  0  0  0  0  0
    4.8065   -4.6810   -0.3946 C   0  0  0  0  0  0  0  0  0  0  0  0
    4.1739   -3.3009   -0.6996 C   0  0  2  0  0  0  0  0  0  0  0  0
    2.6922   -3.5102   -1.1432 C   0  0  0  0  0  0  0  0  0  0  0  0
    5.0220   -2.5670   -1.7727 C   0  0  1  0  0  0  0  0  0  0  0  0
    4.3037   -1.5379   -2.4279 O   0  0  0  0  0  0  0  0  0  0  0  0
    6.1476   -1.8586   -1.0150 C   0  0  0  0  0  0  0  0  0  0  0  0
    5.7930   -1.8995    0.4740 C   0  0  0  0  0  0  0  0  0  0  0  0
    4.3339   -2.3771    0.5326 C   0  0  2  0  0  0  0  0  0  0  0  0
    1.6629   -5.9247    3.2836 C   0  0  0  0  0  0  0  0  0  0  0  0
    1.2853   -8.3502    3.0887 N   0  0  0  0  0  0  0  0  0  0  0  0
   -0.4059   -7.9097    4.6517 O   0  0  0  0  0  0  0  0  0  0  0  0
   -0.4731  -10.2595    2.2548 H   0  0  0  0  0  0  0  0  0  0  0  0
   -1.2041   -8.6375    2.1691 H   0  0  0  0  0  0  0  0  0  0  0  0
   -1.8062   -9.8168    3.3360 H   0  0  0  0  0  0  0  0  0  0  0  0
    0.2135  -10.9321    4.7446 H   0  0  0  0  0  0  0  0  0  0  0  0
    1.7331  -10.0418    4.8599 H   0  0  0  0  0  0  0  0  0  0  0  0
   -0.8428   -9.6740    6.3311 H   0  0  0  0  0  0  0  0  0  0  0  0
    2.1828   -6.5358    5.8748 H   0  0  0  0  0  0  0  0  0  0  0  0
    2.6659   -8.2024    5.7319 H   0  0  0  0  0  0  0  0  0  0  0  0
    3.9705   -8.4997    3.7031 H   0  0  0  0  0  0  0  0  0  0  0  0
    3.6511   -7.6372    2.2466 H   0  0  0  0  0  0  0  0  0  0  0  0
    4.6160   -6.5057    4.8995 H   0  0  0  0  0  0  0  0  0  0  0  0
    5.5452   -6.5728    3.4375 H   0  0  0  0  0  0  0  0  0  0  0  0
    4.5595   -4.3407    4.2108 H   0  0  0  0  0  0  0  0  0  0  0  0
    2.4564   -4.8297    4.9216 H   0  0  0  0  0  0  0  0  0  0  0  0
    0.9305   -3.3450    3.6193 H   0  0  0  0  0  0  0  0  0  0  0  0
    2.4072   -2.6587    4.2603 H   0  0  0  0  0  0  0  0  0  0  0  0
    1.8866   -3.6058    1.4061 H   0  0  0  0  0  0  0  0  0  0  0  0
    2.0167   -1.9216    1.9325 H   0  0  0  0  0  0  0  0  0  0  0  0
    4.3765   -2.3566    2.6688 H   0  0  0  0  0  0  0  0  0  0  0  0
    5.5833   -4.3314    2.1901 H   0  0  0  0  0  0  0  0  0  0  0  0
    4.7713   -6.2784    1.0127 H   0  0  0  0  0  0  0  0  0  0  0  0
    3.2092   -5.5628    0.7632 H   0  0  0  0  0  0  0  0  0  0  0  0
    5.8871   -4.6026   -0.3022 H   0  0  0  0  0  0  0  0  0  0  0  0
    4.6450   -5.3625   -1.2271 H   0  0  0  0  0  0  0  0  0  0  0  0
    2.1982   -2.5581   -1.3323 H   0  0  0  0  0  0  0  0  0  0  0  0
    2.0733   -4.0639   -0.4192 H   0  0  0  0  0  0  0  0  0  0  0  0
    2.6627   -4.0139   -2.1261 H   0  0  0  0  0  0  0  0  0  0  0  0
    5.4128   -3.2411   -2.5320 H   0  0  0  0  0  0  0  0  0  0  0  0
    3.6452   -1.2094   -1.8371 H   0  0  0  0  0  0  0  0  0  0  0  0
    7.1190   -2.3285   -1.2103 H   0  0  0  0  0  0  0  0  0  0  0  0
    6.2029   -0.8195   -1.3224 H   0  0  0  0  0  0  0  0  0  0  0  0
    6.4781   -2.5791    0.9834 H   0  0  0  0  0  0  0  0  0  0  0  0
    5.9239   -0.9191    0.9408 H   0  0  0  0  0  0  0  0  0  0  0  0
    3.7277   -1.4794    0.3836 H   0  0  0  0  0  0  0  0  0  0  0  0
    1.6308   -5.9172    2.1956 H   0  0  0  0  0  0  0  0  0  0  0  0
    0.6348   -5.7627    3.5889 H   0  0  0  0  0  0  0  0  0  0  0  0
    1.0862   -8.1826    2.1176 H   0  0  0  0  0  0  0  0  0  0  0  0
  2  1  1  6
  1 29  1  0
  1 30  1  0
  1 31  1  0
  2 27  1  0
  2 28  1  0
  2  3  1  0
  3  4  1  0
  3 32  1  0
  3 33  1  0
  4  6  1  0
  4  5  1  0
  4 34  1  6
  6  5  1  1
  6  7  1  0
  6 28  1  0
  7  8  1  0
  7 35  1  0
  7 36  1  0
  8 26  1  0
  8  9  1  0
  8 27  1  6
  9 10  1  0
  9 37  1  0
  9 38  1  0
 10 11  1  0
 10 39  1  0
 10 40  1  0
 11 16  1  0
 11 12  1  0
 11 41  1  1
 12 13  1  0
 12 26  1  0
 12 42  1  1
 13 14  1  0
 13 43  1  0
 13 44  1  0
 14 15  1  0
 14 45  1  0
 14 46  1  0
 15 25  1  0
 15 16  1  0
 15 47  1  1
 16 17  1  0
 16 48  1  1
 17 18  1  0
 17 49  1  0
 17 50  1  0
 18 19  1  0
 18 51  1  0
 18 52  1  0
 19 25  1  0
 19 20  1  6
 19 21  1  0
 20 53  1  0
 20 54  1  0
 20 55  1  0
 21 22  1  0
 21 23  1  0
 21 56  1  6
 22 57  1  0
 23 24  1  0
 23 58  1  0
 23 59  1  0
 24 25  1  0
 24 60  1  0
 24 61  1  0
 25 62  1  6
 26 63  1  0
 26 64  1  0
 27 65  1  0
M  END
>  <i_m_ct_stereo_status>  (72) 
1

>  <s_m_source_file>  (72) 
/var/tmp/pbs.5076255.sched01/tmpnm8fzmj1/0q4giu30i.sdf

>  <i_m_source_file_index>  (72) 
36

>  <i_lp_mmshare_version>  (72) 
48012

>  <i_f3d_flags>  (72) 
0

>  <s_epik_input>  (72) 
TzFbQ0BASF0oW0NAQF0xMjMpW0NIMl1bQ0BdKE8zKShbQ0gzXSlbTkhdW0NAQF00KFtDSDJdMilbQ0gyXVtDSDJdW0NAQEhdNVtDQEhdKFtDSDJdNClbQ0gyXVtDSDJdW0NASF02W0NAQEhdNVtDSDJdW0NIMl1bQ0BAXTcoW0NIM10pW0NAQEhdNltDSDJdW0NIMl1bQ0BASF03W09IXQ==

>  <s_epik_cmdline>  (72) 
J2VwaWtfcHl0aG9uJywgJy1waHQnLCAnMi4wJywgJy1waCcsICc3LjAnLCAnLXRuJywgJzgnLCAnLW1hJywgJzIwMCcsICctaW1hZScsICc8aW5maWxlLm1hZT4nLCAnLW9tYWUnLCAnPG91dGZpbGUubWFlPic=

>  <r_epik_Ionization_Penalty>  (72) 
0.333435

>  <r_epik_Ionization_Penalty_Charging>  (72) 
0

>  <r_epik_Ionization_Penalty_Neutral>  (72) 
0.333435

>  <r_epik_State_Penalty>  (72) 
0.328663

>  <r_epik_Charging_Adjusted_Penalty>  (72) 
0.328663

>  <i_epik_Tot_Q>  (72) 
0

>  <i_epik_Tot_abs_Q>  (72) 
0

>  <s_lp_Force_Field>  (72) 
OPLS3e

>  <r_lp_Energy>  (72) 
103.47

>  <b_lp_Chiralities_Consistent>  (72) 
1

>  <s_lp_Variant>  (72) 
25:0-1

>  <s_i_glide_gridfile>  (72) 
pfpi4k_grid

>  <i_i_glide_lignum>  (72) 
36

>  <i_i_glide_rotatable_bonds>  (72) 
1

>  <r_i_docking_score>  (72) 
-2.84933

>  <r_i_glide_ligand_efficiency>  (72) 
-0.101762

>  <r_i_glide_ligand_efficiency_sa>  (72) 
-0.309009

>  <r_i_glide_ligand_efficiency_ln>  (72) 
-0.657709

>  <r_i_glide_gscore>  (72) 
-2.84933

>  <r_i_glide_lipo>  (72) 
-0.199454

>  <r_i_glide_hbond>  (72) 
0

>  <r_i_glide_metal>  (72) 
-0

>  <r_i_glide_rewards>  (72) 
-0.766667

>  <r_i_glide_evdw>  (72) 
-27.0824

>  <r_i_glide_ecoul>  (72) 
-3.10688

>  <r_i_glide_erotb>  (72) 
0

>  <r_i_glide_esite>  (72) 
-0.0630546

>  <r_i_glide_emodel>  (72) 
-34.7435

>  <r_i_glide_energy>  (72) 
-30.1893

>  <r_i_glide_einternal>  (72) 
0.297154

>  <r_i_glide_intrahb_reward>  (72) 
-0

>  <i_i_glide_confnum>  (72) 
2

>  <i_i_glide_posenum>  (72) 
39

>  <r_i_glide_eff_state_penalty>  (72) 
0

>  <ligand_id>  (72) 
25

>  <original_smiles>  (72) 
CC12CC3OC3(CC3(CCC4C(CCC5C4CCC4(C)C(O)CCC54)C3)N1)O2

>  <smiles>  (72) 
[H]OC1([H])C([H])([H])C([H])([H])C2([H])C3([H])C([H])([H])C([H])([H])C4([H])C([H])([H])C5(N([H])C6(C([H])([H])[H])OC7(OC7([H])C6([H])[H])C5([H])[H])C([H])([H])C([H])([H])C4([H])C3([H])C([H])([H])C([H])([H])C12C([H])([H])[H]

$$$$
25:0:2
     RDKit          3D

 65 71  0  0  1  0  0  0  0  0999 V2000
   -1.0248   -9.1899    3.0493 C   0  0  0  0  0  0  0  0  0  0  0  0
    0.1072   -8.8079    4.0049 C   0  0  1  0  0  0  0  0  0  0  0  0
    0.6054   -9.9071    4.9805 C   0  0  0  0  0  0  0  0  0  0  0  0
    0.2180   -9.3517    6.3347 C   0  0  2  0  0  0  0  0  0  0  0  0
    0.4542   -8.1991    7.1695 O   0  0  0  0  0  0  0  0  0  0  0  0
    0.7142   -7.9594    5.8438 C   0  0  1  0  0  0  0  0  0  0  0  0
    2.1465   -7.5821    5.4275 C   0  0  0  0  0  0  0  0  0  0  0  0
    2.2256   -7.3970    3.8793 C   0  0  2  0  0  0  0  0  0  0  0  0
    3.6394   -7.7290    3.3544 C   0  0  0  0  0  0  0  0  0  0  0  0
    4.7042   -6.7084    3.8260 C   0  0  0  0  0  0  0  0  0  0  0  0
    4.3293   -5.2232    3.5766 C   0  0  2  0  0  0  0  0  0  0  0  0
    2.8693   -4.9109    4.0146 C   0  0  1  0  0  0  0  0  0  0  0  0
    2.4525   -3.4495    3.7709 C   0  0  0  0  0  0  0  0  0  0  0  0
    2.7894   -3.0045    2.3427 C   0  0  0  0  0  0  0  0  0  0  0  0
    4.3061   -3.1785    2.0555 C   0  0  1  0  0  0  0  0  0  0  0  0
    4.7589   -4.6542    2.1947 C   0  0  2  0  0  0  0  0  0  0  0  0
    4.3777   -5.4854    0.9566 C   0  0  0  0  0  0  0  0  0  0  0  0
    4.9086   -4.8484   -0.3283 C   0  0  0  0  0  0  0  0  0  0  0  0
    4.3895   -3.4087   -0.5547 C   0  0  2  0  0  0  0  0  0  0  0  0
    2.8717   -3.4618   -0.9297 C   0  0  0  0  0  0  0  0  0  0  0  0
    5.2480   -2.7293   -1.6521 C   0  0  1  0  0  0  0  0  0  0  0  0
    4.5813   -1.6600   -2.2896 O   0  0  0  0  0  0  0  0  0  0  0  0
    6.4592   -2.1301   -0.9300 C   0  0  0  0  0  0  0  0  0  0  0  0
    6.1853   -2.2002    0.5758 C   0  0  0  0  0  0  0  0  0  0  0  0
    4.6950   -2.5480    0.6968 C   0  0  2  0  0  0  0  0  0  0  0  0
    1.8642   -5.9510    3.4659 C   0  0  0  0  0  0  0  0  0  0  0  0
    1.2689   -8.3221    3.2043 N   0  0  0  0  0  0  0  0  0  0  0  0
   -0.2985   -7.8008    4.8725 O   0  0  0  0  0  0  0  0  0  0  0  0
   -0.7289  -10.0448    2.4277 H   0  0  0  0  0  0  0  0  0  0  0  0
   -1.2702   -8.3446    2.4052 H   0  0  0  0  0  0  0  0  0  0  0  0
   -1.9258   -9.4487    3.6169 H   0  0  0  0  0  0  0  0  0  0  0  0
    0.1040  -10.8743    4.8160 H   0  0  0  0  0  0  0  0  0  0  0  0
    1.6799  -10.1037    4.8990 H   0  0  0  0  0  0  0  0  0  0  0  0
   -0.8171   -9.6044    6.4869 H   0  0  0  0  0  0  0  0  0  0  0  0
    2.4602   -6.7005    6.0012 H   0  0  0  0  0  0  0  0  0  0  0  0
    2.7802   -8.4020    5.7814 H   0  0  0  0  0  0  0  0  0  0  0  0
    3.9506   -8.7317    3.6704 H   0  0  0  0  0  0  0  0  0  0  0  0
    3.6361   -7.7907    2.2636 H   0  0  0  0  0  0  0  0  0  0  0  0
    4.8329   -6.8540    4.8952 H   0  0  0  0  0  0  0  0  0  0  0  0
    5.6750   -6.9450    3.3838 H   0  0  0  0  0  0  0  0  0  0  0  0
    4.9357   -4.6668    4.2864 H   0  0  0  0  0  0  0  0  0  0  0  0
    2.8341   -5.0008    5.0951 H   0  0  0  0  0  0  0  0  0  0  0  0
    1.3813   -3.3368    3.9300 H   0  0  0  0  0  0  0  0  0  0  0  0
    2.9459   -2.8051    4.5086 H   0  0  0  0  0  0  0  0  0  0  0  0
    2.1913   -3.5910    1.6466 H   0  0  0  0  0  0  0  0  0  0  0  0
    2.4992   -1.9462    2.2375 H   0  0  0  0  0  0  0  0  0  0  0  0
    4.8444   -2.6153    2.8270 H   0  0  0  0  0  0  0  0  0  0  0  0
    5.8473   -4.6675    2.2152 H   0  0  0  0  0  0  0  0  0  0  0  0
    4.8062   -6.4853    1.0193 H   0  0  0  0  0  0  0  0  0  0  0  0
    3.3006   -5.6289    0.8789 H   0  0  0  0  0  0  0  0  0  0  0  0
    5.9959   -4.8657   -0.2951 H   0  0  0  0  0  0  0  0  0  0  0  0
    4.6408   -5.4793   -1.1719 H   0  0  0  0  0  0  0  0  0  0  0  0
    2.4553   -2.4507   -1.0288 H   0  0  0  0  0  0  0  0  0  0  0  0
    2.2472   -3.9874   -0.1903 H   0  0  0  0  0  0  0  0  0  0  0  0
    2.7462   -3.9234   -1.9302 H   0  0  0  0  0  0  0  0  0  0  0  0
    5.5430   -3.4248   -2.4346 H   0  0  0  0  0  0  0  0  0  0  0  0
    3.6659   -1.8730   -2.3491 H   0  0  0  0  0  0  0  0  0  0  0  0
    7.3796   -2.6547   -1.1950 H   0  0  0  0  0  0  0  0  0  0  0  0
    6.5795   -1.0826   -1.1895 H   0  0  0  0  0  0  0  0  0  0  0  0
    6.8350   -2.9565    1.0212 H   0  0  0  0  0  0  0  0  0  0  0  0
    6.4287   -1.2557    1.0735 H   0  0  0  0  0  0  0  0  0  0  0  0
    4.1665   -1.5952    0.6026 H   0  0  0  0  0  0  0  0  0  0  0  0
    1.7766   -5.9005    2.3824 H   0  0  0  0  0  0  0  0  0  0  0  0
    0.8696   -5.7145    3.8315 H   0  0  0  0  0  0  0  0  0  0  0  0
    1.0338   -8.0992    2.2512 H   0  0  0  0  0  0  0  0  0  0  0  0
  2  1  1  6
  1 29  1  0
  1 30  1  0
  1 31  1  0
  2 27  1  0
  2 28  1  0
  2  3  1  0
  3  4  1  0
  3 32  1  0
  3 33  1  0
  4  6  1  0
  4  5  1  0
  4 34  1  6
  6  5  1  1
  6  7  1  0
  6 28  1  0
  7  8  1  0
  7 35  1  0
  7 36  1  0
  8 26  1  0
  8  9  1  0
  8 27  1  6
  9 10  1  0
  9 37  1  0
  9 38  1  0
 10 11  1  0
 10 39  1  0
 10 40  1  0
 11 16  1  0
 11 12  1  0
 11 41  1  1
 12 13  1  0
 12 26  1  0
 12 42  1  1
 13 14  1  0
 13 43  1  0
 13 44  1  0
 14 15  1  0
 14 45  1  0
 14 46  1  0
 15 25  1  0
 15 16  1  0
 15 47  1  1
 16 17  1  0
 16 48  1  1
 17 18  1  0
 17 49  1  0
 17 50  1  0
 18 19  1  0
 18 51  1  0
 18 52  1  0
 19 25  1  0
 19 20  1  6
 19 21  1  0
 20 53  1  0
 20 54  1  0
 20 55  1  0
 21 22  1  0
 21 23  1  0
 21 56  1  6
 22 57  1  0
 23 24  1  0
 23 58  1  0
 23 59  1  0
 24 25  1  0
 24 60  1  0
 24 61  1  0
 25 62  1  6
 26 63  1  0
 26 64  1  0
 27 65  1  0
M  END
>  <i_m_ct_stereo_status>  (73) 
1

>  <s_m_source_file>  (73) 
/var/tmp/pbs.5076255.sched01/tmpnm8fzmj1/0q4giu30i.sdf

>  <i_m_source_file_index>  (73) 
36

>  <i_lp_mmshare_version>  (73) 
48012

>  <i_f3d_flags>  (73) 
0

>  <s_epik_input>  (73) 
TzFbQ0BASF0oW0NAQF0xMjMpW0NIMl1bQ0BdKE8zKShbQ0gzXSlbTkhdW0NAQF00KFtDSDJdMilbQ0gyXVtDSDJdW0NAQEhdNVtDQEhdKFtDSDJdNClbQ0gyXVtDSDJdW0NASF02W0NAQEhdNVtDSDJdW0NIMl1bQ0BAXTcoW0NIM10pW0NAQEhdNltDSDJdW0NIMl1bQ0BASF03W09IXQ==

>  <s_epik_cmdline>  (73) 
J2VwaWtfcHl0aG9uJywgJy1waHQnLCAnMi4wJywgJy1waCcsICc3LjAnLCAnLXRuJywgJzgnLCAnLW1hJywgJzIwMCcsICctaW1hZScsICc8aW5maWxlLm1hZT4nLCAnLW9tYWUnLCAnPG91dGZpbGUubWFlPic=

>  <r_epik_Ionization_Penalty>  (73) 
0.333435

>  <r_epik_Ionization_Penalty_Charging>  (73) 
0

>  <r_epik_Ionization_Penalty_Neutral>  (73) 
0.333435

>  <r_epik_State_Penalty>  (73) 
0.328663

>  <r_epik_Charging_Adjusted_Penalty>  (73) 
0.328663

>  <i_epik_Tot_Q>  (73) 
0

>  <i_epik_Tot_abs_Q>  (73) 
0

>  <s_lp_Force_Field>  (73) 
OPLS3e

>  <r_lp_Energy>  (73) 
103.47

>  <b_lp_Chiralities_Consistent>  (73) 
1

>  <s_lp_Variant>  (73) 
25:0-1

>  <s_i_glide_gridfile>  (73) 
pfpi4k_grid

>  <i_i_glide_lignum>  (73) 
36

>  <i_i_glide_rotatable_bonds>  (73) 
1

>  <r_i_docking_score>  (73) 
-2.83282

>  <r_i_glide_ligand_efficiency>  (73) 
-0.101172

>  <r_i_glide_ligand_efficiency_sa>  (73) 
-0.307218

>  <r_i_glide_ligand_efficiency_ln>  (73) 
-0.653897

>  <r_i_glide_gscore>  (73) 
-2.83282

>  <r_i_glide_lipo>  (73) 
-0.241548

>  <r_i_glide_hbond>  (73) 
0

>  <r_i_glide_metal>  (73) 
-0

>  <r_i_glide_rewards>  (73) 
-0.766667

>  <r_i_glide_evdw>  (73) 
-27.2497

>  <r_i_glide_ecoul>  (73) 
-2.66027

>  <r_i_glide_erotb>  (73) 
0

>  <r_i_glide_esite>  (73) 
-0.0630778

>  <r_i_glide_emodel>  (73) 
-34.1104

>  <r_i_glide_energy>  (73) 
-29.9099

>  <r_i_glide_einternal>  (73) 
0.568025

>  <r_i_glide_intrahb_reward>  (73) 
-0

>  <i_i_glide_confnum>  (73) 
4

>  <i_i_glide_posenum>  (73) 
27

>  <r_i_glide_eff_state_penalty>  (73) 
0

>  <ligand_id>  (73) 
25

>  <original_smiles>  (73) 
CC12CC3OC3(CC3(CCC4C(CCC5C4CCC4(C)C(O)CCC54)C3)N1)O2

>  <smiles>  (73) 
[H]OC1([H])C([H])([H])C([H])([H])C2([H])C3([H])C([H])([H])C([H])([H])C4([H])C([H])([H])C5(N([H])C6(C([H])([H])[H])OC7(OC7([H])C6([H])[H])C5([H])[H])C([H])([H])C([H])([H])C4([H])C3([H])C([H])([H])C([H])([H])C12C([H])([H])[H]

$$$$
25:1:0
     RDKit          3D

 66 72  0  0  1  0  0  0  0  0999 V2000
    1.4478    2.5181    2.7303 C   0  0  0  0  0  0  0  0  0  0  0  0
    0.8001    1.5459    3.7286 C   0  0  1  0  0  0  0  0  0  0  0  0
   -0.7161    1.5834    3.9523 C   0  0  0  0  0  0  0  0  0  0  0  0
   -0.8468    1.8426    5.4411 C   0  0  2  0  0  0  0  0  0  0  0  0
   -0.4210    1.2965    6.7124 O   0  0  0  0  0  0  0  0  0  0  0  0
    0.3509    0.8412    5.6872 C   0  0  1  0  0  0  0  0  0  0  0  0
    0.3668   -0.6556    5.3729 C   0  0  0  0  0  0  0  0  0  0  0  0
    1.2969   -0.9630    4.1809 C   0  0  2  0  0  0  0  0  0  0  0  0
    0.9922   -2.3664    3.6239 C   0  0  0  0  0  0  0  0  0  0  0  0
    1.9694   -2.7822    2.5002 C   0  0  0  0  0  0  0  0  0  0  0  0
    3.4474   -2.7523    2.9415 C   0  0  2  0  0  0  0  0  0  0  0  0
    3.7961   -1.3989    3.5983 C   0  0  1  0  0  0  0  0  0  0  0  0
    4.0588   -0.2957    2.5503 C   0  0  0  0  0  0  0  0  0  0  0  0
    5.2043   -0.6781    1.6241 C   0  0  0  0  0  0  0  0  0  0  0  0
    4.9138   -2.0039    0.8716 C   0  0  1  0  0  0  0  0  0  0  0  0
    4.5196   -3.1247    1.8699 C   0  0  2  0  0  0  0  0  0  0  0  0
    4.3009   -4.4601    1.1359 C   0  0  0  0  0  0  0  0  0  0  0  0
    3.3653   -4.3705   -0.0851 C   0  0  0  0  0  0  0  0  0  0  0  0
    3.6484   -3.2195   -1.0826 C   0  0  2  0  0  0  0  0  0  0  0  0
    2.3930   -3.0655   -2.0124 C   0  0  0  0  0  0  0  0  0  0  0  0
    4.9369   -3.4477   -1.9103 C   0  0  1  0  0  0  0  0  0  0  0  0
    4.7581   -4.2355   -3.0676 O   0  0  0  0  0  0  0  0  0  0  0  0
    5.4151   -2.0527   -2.3131 C   0  0  0  0  0  0  0  0  0  0  0  0
    4.6126   -1.0584   -1.4825 C   0  0  0  0  0  0  0  0  0  0  0  0
    3.9496   -1.8776   -0.3605 C   0  0  2  0  0  0  0  0  0  0  0  0
    2.7683   -0.9832    4.6672 C   0  0  0  0  0  0  0  0  0  0  0  0
    1.0786    0.0718    3.1373 N   0  0  0  0  0  0  0  0  0  0  0  0
    1.3126    1.6248    5.0094 O   0  0  0  0  0  0  0  0  0  0  0  0
    1.0035    2.4128    1.7461 H   0  0  0  0  0  0  0  0  0  0  0  0
    2.5169    2.3521    2.6698 H   0  0  0  0  0  0  0  0  0  0  0  0
    1.2881    3.5496    3.0645 H   0  0  0  0  0  0  0  0  0  0  0  0
   -1.1575    2.4203    3.4017 H   0  0  0  0  0  0  0  0  0  0  0  0
   -1.2197    0.6773    3.6240 H   0  0  0  0  0  0  0  0  0  0  0  0
   -0.7770    2.9139    5.5674 H   0  0  0  0  0  0  0  0  0  0  0  0
    0.6762   -1.2116    6.2578 H   0  0  0  0  0  0  0  0  0  0  0  0
   -0.6641   -0.9350    5.1772 H   0  0  0  0  0  0  0  0  0  0  0  0
    1.0615   -3.1055    4.4280 H   0  0  0  0  0  0  0  0  0  0  0  0
   -0.0427   -2.4270    3.2807 H   0  0  0  0  0  0  0  0  0  0  0  0
    1.7115   -3.7997    2.2180 H   0  0  0  0  0  0  0  0  0  0  0  0
    1.8138   -2.1601    1.6189 H   0  0  0  0  0  0  0  0  0  0  0  0
    3.5270   -3.5100    3.7229 H   0  0  0  0  0  0  0  0  0  0  0  0
    4.7352   -1.5485    4.1391 H   0  0  0  0  0  0  0  0  0  0  0  0
    3.2021   -0.1176    1.9073 H   0  0  0  0  0  0  0  0  0  0  0  0
    4.2833    0.6407    3.0668 H   0  0  0  0  0  0  0  0  0  0  0  0
    5.3586    0.1484    0.9381 H   0  0  0  0  0  0  0  0  0  0  0  0
    6.1271   -0.7626    2.2063 H   0  0  0  0  0  0  0  0  0  0  0  0
    5.8830   -2.2990    0.4690 H   0  0  0  0  0  0  0  0  0  0  0  0
    5.4176   -3.2881    2.4676 H   0  0  0  0  0  0  0  0  0  0  0  0
    5.2685   -4.8358    0.8033 H   0  0  0  0  0  0  0  0  0  0  0  0
    3.9205   -5.2089    1.8307 H   0  0  0  0  0  0  0  0  0  0  0  0
    3.4113   -5.3245   -0.6097 H   0  0  0  0  0  0  0  0  0  0  0  0
    2.3375   -4.2976    0.2650 H   0  0  0  0  0  0  0  0  0  0  0  0
    2.3992   -2.1644   -2.6223 H   0  0  0  0  0  0  0  0  0  0  0  0
    1.4720   -3.0611   -1.4231 H   0  0  0  0  0  0  0  0  0  0  0  0
    2.2565   -3.8958   -2.7121 H   0  0  0  0  0  0  0  0  0  0  0  0
    5.7128   -3.9197   -1.3028 H   0  0  0  0  0  0  0  0  0  0  0  0
    4.1178   -4.9251   -2.8556 H   0  0  0  0  0  0  0  0  0  0  0  0
    6.4845   -1.9555   -2.1176 H   0  0  0  0  0  0  0  0  0  0  0  0
    5.2484   -1.8628   -3.3716 H   0  0  0  0  0  0  0  0  0  0  0  0
    5.2640   -0.2642   -1.1203 H   0  0  0  0  0  0  0  0  0  0  0  0
    3.8498   -0.5836   -2.1053 H   0  0  0  0  0  0  0  0  0  0  0  0
    3.0232   -1.3947   -0.0499 H   0  0  0  0  0  0  0  0  0  0  0  0
    3.0853   -0.0435    5.1137 H   0  0  0  0  0  0  0  0  0  0  0  0
    2.8353   -1.7102    5.4763 H   0  0  0  0  0  0  0  0  0  0  0  0
    0.3226   -0.1750    2.5202 H   0  0  0  0  0  0  0  0  0  0  0  0
    1.9447    0.0876    2.6130 H   0  0  0  0  0  0  0  0  0  0  0  0
  2  1  1  6
  1 29  1  0
  1 30  1  0
  1 31  1  0
  2 27  1  0
  2 28  1  0
  2  3  1  0
  3  4  1  0
  3 32  1  0
  3 33  1  0
  4  6  1  0
  4  5  1  0
  4 34  1  1
  6  5  1  1
  6  7  1  0
  6 28  1  0
  8  7  1  1
  7 35  1  0
  7 36  1  0
  8 26  1  0
  8  9  1  0
  8 27  1  0
  9 10  1  0
  9 37  1  0
  9 38  1  0
 10 11  1  0
 10 39  1  0
 10 40  1  0
 11 16  1  0
 11 12  1  0
 11 41  1  1
 12 13  1  0
 12 26  1  0
 12 42  1  1
 13 14  1  0
 13 43  1  0
 13 44  1  0
 14 15  1  0
 14 45  1  0
 14 46  1  0
 15 25  1  0
 15 16  1  0
 15 47  1  6
 16 17  1  0
 16 48  1  1
 17 18  1  0
 17 49  1  0
 17 50  1  0
 18 19  1  0
 18 51  1  0
 18 52  1  0
 19 25  1  0
 19 20  1  6
 19 21  1  0
 20 53  1  0
 20 54  1  0
 20 55  1  0
 21 22  1  0
 21 23  1  0
 21 56  1  1
 22 57  1  0
 23 24  1  0
 23 58  1  0
 23 59  1  0
 24 25  1  0
 24 60  1  0
 24 61  1  0
 25 62  1  1
 26 63  1  0
 26 64  1  0
 27 65  1  0
 27 66  1  0
M  CHG  1  27   1
M  END
>  <i_m_ct_stereo_status>  (74) 
1

>  <s_m_source_file>  (74) 
/var/tmp/pbs.5076255.sched01/tmpnm8fzmj1/0q4giu30i.sdf

>  <i_m_source_file_index>  (74) 
37

>  <i_lp_mmshare_version>  (74) 
48012

>  <i_f3d_flags>  (74) 
0

>  <s_epik_input>  (74) 
TzFbQ0BASF0oW0NAQF0xMjMpW0NIMl1bQ0BdKE8zKShbQ0gzXSlbTkhdW0NAQF00KFtDSDJdMilbQ0gyXVtDSDJdW0NAQEhdNVtDQEhdKFtDSDJdNClbQ0gyXVtDSDJdW0NASF02W0NAQEhdNVtDSDJdW0NIMl1bQ0BAXTcoW0NIM10pW0NAQEhdNltDSDJdW0NIMl1bQ0BASF03W09IXQ==

>  <s_epik_cmdline>  (74) 
J2VwaWtfcHl0aG9uJywgJy1waHQnLCAnMi4wJywgJy1waCcsICc3LjAnLCAnLXRuJywgJzgnLCAnLW1hJywgJzIwMCcsICctaW1hZScsICc8aW5maWxlLm1hZT4nLCAnLW9tYWUnLCAnPG91dGZpbGUubWFlPic=

>  <r_epik_Ionization_Penalty>  (74) 
0.499534

>  <r_epik_Ionization_Penalty_Charging>  (74) 
0.499531

>  <r_epik_Ionization_Penalty_Neutral>  (74) 
3.22761e-06

>  <r_epik_State_Penalty>  (74) 
0.505903

>  <r_epik_Charging_Adjusted_Penalty>  (74) 
1.00543

>  <i_epik_Tot_Q>  (74) 
1

>  <i_epik_Tot_abs_Q>  (74) 
1

>  <s_lp_Force_Field>  (74) 
OPLS3e

>  <r_lp_Energy>  (74) 
91.3301

>  <b_lp_Chiralities_Consistent>  (74) 
1

>  <s_lp_Variant>  (74) 
25:0-2

>  <s_i_glide_gridfile>  (74) 
pfpi4k_grid

>  <i_i_glide_lignum>  (74) 
37

>  <i_i_glide_rotatable_bonds>  (74) 
1

>  <r_i_docking_score>  (74) 
-4.31369

>  <r_i_glide_ligand_efficiency>  (74) 
-0.15406

>  <r_i_glide_ligand_efficiency_sa>  (74) 
-0.467817

>  <r_i_glide_ligand_efficiency_ln>  (74) 
-0.995725

>  <r_i_glide_gscore>  (74) 
-4.31369

>  <r_i_glide_lipo>  (74) 
-0.43983

>  <r_i_glide_hbond>  (74) 
-0.32

>  <r_i_glide_metal>  (74) 
-0

>  <r_i_glide_rewards>  (74) 
-0.759795

>  <r_i_glide_evdw>  (74) 
-25.2901

>  <r_i_glide_ecoul>  (74) 
-9.89737

>  <r_i_glide_erotb>  (74) 
0

>  <r_i_glide_esite>  (74) 
-0.0449479

>  <r_i_glide_emodel>  (74) 
-43.6565

>  <r_i_glide_energy>  (74) 
-35.1875

>  <r_i_glide_einternal>  (74) 
0.58869

>  <r_i_glide_intrahb_reward>  (74) 
-0

>  <i_i_glide_confnum>  (74) 
2

>  <i_i_glide_posenum>  (74) 
6

>  <r_i_glide_eff_state_penalty>  (74) 
0

>  <ligand_id>  (74) 
25

>  <original_smiles>  (74) 
CC12CC3OC3(CC3(CCC4C(CCC5C4CCC4(C)C(O)CCC54)C3)N1)O2

>  <smiles>  (74) 
[H]OC1([H])C([H])([H])C([H])([H])C2([H])C3([H])C([H])([H])C([H])([H])C4([H])C([H])([H])C5(C([H])([H])C([H])([H])C4([H])C3([H])C([H])([H])C([H])([H])C12C([H])([H])[H])C([H])([H])C12OC1([H])C([H])([H])C(C([H])([H])[H])(O2)[N+]5([H])[H]

$$$$
25:1:1
     RDKit          3D

 66 72  0  0  1  0  0  0  0  0999 V2000
    1.8462   -3.8571   -1.1449 C   0  0  0  0  0  0  0  0  0  0  0  0
    3.0869   -2.9976   -1.4080 C   0  0  1  0  0  0  0  0  0  0  0  0
    3.1232   -2.1212   -2.6622 C   0  0  0  0  0  0  0  0  0  0  0  0
    4.3523   -2.6002   -3.4137 C   0  0  2  0  0  0  0  0  0  0  0  0
    5.7641   -2.8886   -3.1721 O   0  0  0  0  0  0  0  0  0  0  0  0
    5.0731   -2.7105   -2.0197 C   0  0  1  0  0  0  0  0  0  0  0  0
    5.4293   -1.5679   -1.0658 C   0  0  0  0  0  0  0  0  0  0  0  0
    4.5669   -1.6306    0.2150 C   0  0  2  0  0  0  0  0  0  0  0  0
    4.5982   -0.2811    0.9520 C   0  0  0  0  0  0  0  0  0  0  0  0
    3.8544   -0.3300    2.3042 C   0  0  0  0  0  0  0  0  0  0  0  0
    4.3886   -1.4281    3.2538 C   0  0  2  0  0  0  0  0  0  0  0  0
    4.4619   -2.7957    2.5349 C   0  0  1  0  0  0  0  0  0  0  0  0
    3.0831   -3.4844    2.4587 C   0  0  0  0  0  0  0  0  0  0  0  0
    2.5098   -3.7151    3.8543 C   0  0  0  0  0  0  0  0  0  0  0  0
    2.3484   -2.3884    4.6416 C   0  0  1  0  0  0  0  0  0  0  0  0
    3.6739   -1.5808    4.6354 C   0  0  2  0  0  0  0  0  0  0  0  0
    3.5377   -0.2929    5.4710 C   0  0  0  0  0  0  0  0  0  0  0  0
    2.3015    0.5663    5.1366 C   0  0  0  0  0  0  0  0  0  0  0  0
    0.9591   -0.2015    5.0384 C   0  0  2  0  0  0  0  0  0  0  0  0
   -0.0635    0.7332    4.3128 C   0  0  0  0  0  0  0  0  0  0  0  0
    0.4167   -0.6646    6.4110 C   0  0  1  0  0  0  0  0  0  0  0  0
   -0.2965    0.3326    7.1157 O   0  0  0  0  0  0  0  0  0  0  0  0
   -0.4833   -1.8773    6.1292 C   0  0  0  0  0  0  0  0  0  0  0  0
   -0.2029   -2.2801    4.6806 C   0  0  0  0  0  0  0  0  0  0  0  0
    1.0865   -1.5460    4.2663 C   0  0  2  0  0  0  0  0  0  0  0  0
    5.1619   -2.7012    1.1688 C   0  0  0  0  0  0  0  0  0  0  0  0
    3.1738   -1.9800   -0.1698 N   0  0  0  0  0  0  0  0  0  0  0  0
    4.2446   -3.7139   -1.4851 O   0  0  0  0  0  0  0  0  0  0  0  0
    0.9587   -3.2113   -1.1182 H   0  0  0  0  0  0  0  0  0  0  0  0
    1.9473   -4.4098   -0.2218 H   0  0  0  0  0  0  0  0  0  0  0  0
    1.6677   -4.5546   -1.9598 H   0  0  0  0  0  0  0  0  0  0  0  0
    2.2324   -2.2813   -3.2831 H   0  0  0  0  0  0  0  0  0  0  0  0
    3.1453   -1.0572   -2.4312 H   0  0  0  0  0  0  0  0  0  0  0  0
    4.0142   -3.4422   -4.0049 H   0  0  0  0  0  0  0  0  0  0  0  0
    6.4942   -1.6098   -0.8217 H   0  0  0  0  0  0  0  0  0  0  0  0
    5.2704   -0.6516   -1.6216 H   0  0  0  0  0  0  0  0  0  0  0  0
    5.6401    0.0037    1.1423 H   0  0  0  0  0  0  0  0  0  0  0  0
    4.1825    0.5292    0.3420 H   0  0  0  0  0  0  0  0  0  0  0  0
    3.9866    0.6439    2.7722 H   0  0  0  0  0  0  0  0  0  0  0  0
    2.7859   -0.4539    2.1306 H   0  0  0  0  0  0  0  0  0  0  0  0
    5.4176   -1.1406    3.4759 H   0  0  0  0  0  0  0  0  0  0  0  0
    5.1008   -3.4380    3.1462 H   0  0  0  0  0  0  0  0  0  0  0  0
    2.3636   -2.8874    1.9023 H   0  0  0  0  0  0  0  0  0  0  0  0
    3.1837   -4.4424    1.9429 H   0  0  0  0  0  0  0  0  0  0  0  0
    1.5655   -4.2414    3.7416 H   0  0  0  0  0  0  0  0  0  0  0  0
    3.1617   -4.4029    4.4062 H   0  0  0  0  0  0  0  0  0  0  0  0
    2.2024   -2.7009    5.6762 H   0  0  0  0  0  0  0  0  0  0  0  0
    4.3715   -2.2009    5.2028 H   0  0  0  0  0  0  0  0  0  0  0  0
    3.4953   -0.5716    6.5255 H   0  0  0  0  0  0  0  0  0  0  0  0
    4.4435    0.3077    5.3693 H   0  0  0  0  0  0  0  0  0  0  0  0
    2.2209    1.3655    5.8757 H   0  0  0  0  0  0  0  0  0  0  0  0
    2.4857    1.0837    4.1980 H   0  0  0  0  0  0  0  0  0  0  0  0
   -0.9869    0.2241    4.0212 H   0  0  0  0  0  0  0  0  0  0  0  0
    0.3562    1.1400    3.3858 H   0  0  0  0  0  0  0  0  0  0  0  0
   -0.3530    1.5900    4.9351 H   0  0  0  0  0  0  0  0  0  0  0  0
    1.2411   -0.9929    7.0415 H   0  0  0  0  0  0  0  0  0  0  0  0
    0.2207    1.1256    7.1355 H   0  0  0  0  0  0  0  0  0  0  0  0
   -0.2524   -2.6913    6.8202 H   0  0  0  0  0  0  0  0  0  0  0  0
   -1.5416   -1.6388    6.2382 H   0  0  0  0  0  0  0  0  0  0  0  0
   -0.1732   -3.3632    4.5578 H   0  0  0  0  0  0  0  0  0  0  0  0
   -1.0276   -1.9195    4.0688 H   0  0  0  0  0  0  0  0  0  0  0  0
    1.0808   -1.3680    3.1917 H   0  0  0  0  0  0  0  0  0  0  0  0
    5.2021   -3.6950    0.7247 H   0  0  0  0  0  0  0  0  0  0  0  0
    6.2056   -2.4407    1.3570 H   0  0  0  0  0  0  0  0  0  0  0  0
    2.6096   -1.1671   -0.4216 H   0  0  0  0  0  0  0  0  0  0  0  0
    2.7672   -2.4080    0.6488 H   0  0  0  0  0  0  0  0  0  0  0  0
  2  1  1  1
  1 29  1  0
  1 30  1  0
  1 31  1  0
  2 27  1  0
  2 28  1  0
  2  3  1  0
  3  4  1  0
  3 32  1  0
  3 33  1  0
  4  6  1  0
  4  5  1  0
  4 34  1  1
  6  5  1  6
  6  7  1  0
  6 28  1  0
  8  7  1  6
  7 35  1  0
  7 36  1  0
  8 26  1  0
  8  9  1  0
  8 27  1  0
  9 10  1  0
  9 37  1  0
  9 38  1  0
 10 11  1  0
 10 39  1  0
 10 40  1  0
 11 16  1  0
 11 12  1  0
 11 41  1  1
 12 13  1  0
 12 26  1  0
 12 42  1  1
 13 14  1  0
 13 43  1  0
 13 44  1  0
 14 15  1  0
 14 45  1  0
 14 46  1  0
 15 25  1  0
 15 16  1  0
 15 47  1  1
 16 17  1  0
 16 48  1  1
 17 18  1  0
 17 49  1  0
 17 50  1  0
 18 19  1  0
 18 51  1  0
 18 52  1  0
 19 25  1  0
 19 20  1  6
 19 21  1  0
 20 53  1  0
 20 54  1  0
 20 55  1  0
 21 22  1  0
 21 23  1  0
 21 56  1  1
 22 57  1  0
 23 24  1  0
 23 58  1  0
 23 59  1  0
 24 25  1  0
 24 60  1  0
 24 61  1  0
 25 62  1  6
 26 63  1  0
 26 64  1  0
 27 65  1  0
 27 66  1  0
M  CHG  1  27   1
M  END
>  <i_m_ct_stereo_status>  (75) 
1

>  <s_m_source_file>  (75) 
/var/tmp/pbs.5076255.sched01/tmpnm8fzmj1/0q4giu30i.sdf

>  <i_m_source_file_index>  (75) 
37

>  <i_lp_mmshare_version>  (75) 
48012

>  <i_f3d_flags>  (75) 
0

>  <s_epik_input>  (75) 
TzFbQ0BASF0oW0NAQF0xMjMpW0NIMl1bQ0BdKE8zKShbQ0gzXSlbTkhdW0NAQF00KFtDSDJdMilbQ0gyXVtDSDJdW0NAQEhdNVtDQEhdKFtDSDJdNClbQ0gyXVtDSDJdW0NASF02W0NAQEhdNVtDSDJdW0NIMl1bQ0BAXTcoW0NIM10pW0NAQEhdNltDSDJdW0NIMl1bQ0BASF03W09IXQ==

>  <s_epik_cmdline>  (75) 
J2VwaWtfcHl0aG9uJywgJy1waHQnLCAnMi4wJywgJy1waCcsICc3LjAnLCAnLXRuJywgJzgnLCAnLW1hJywgJzIwMCcsICctaW1hZScsICc8aW5maWxlLm1hZT4nLCAnLW9tYWUnLCAnPG91dGZpbGUubWFlPic=

>  <r_epik_Ionization_Penalty>  (75) 
0.499534

>  <r_epik_Ionization_Penalty_Charging>  (75) 
0.499531

>  <r_epik_Ionization_Penalty_Neutral>  (75) 
3.22761e-06

>  <r_epik_State_Penalty>  (75) 
0.505903

>  <r_epik_Charging_Adjusted_Penalty>  (75) 
1.00543

>  <i_epik_Tot_Q>  (75) 
1

>  <i_epik_Tot_abs_Q>  (75) 
1

>  <s_lp_Force_Field>  (75) 
OPLS3e

>  <r_lp_Energy>  (75) 
91.3301

>  <b_lp_Chiralities_Consistent>  (75) 
1

>  <s_lp_Variant>  (75) 
25:0-2

>  <s_i_glide_gridfile>  (75) 
pfpi4k_grid

>  <i_i_glide_lignum>  (75) 
37

>  <i_i_glide_rotatable_bonds>  (75) 
1

>  <r_i_docking_score>  (75) 
-3.68167

>  <r_i_glide_ligand_efficiency>  (75) 
-0.131488

>  <r_i_glide_ligand_efficiency_sa>  (75) 
-0.399276

>  <r_i_glide_ligand_efficiency_ln>  (75) 
-0.849838

>  <r_i_glide_gscore>  (75) 
-3.68167

>  <r_i_glide_lipo>  (75) 
-0.422528

>  <r_i_glide_hbond>  (75) 
-0.126299

>  <r_i_glide_metal>  (75) 
-0

>  <r_i_glide_rewards>  (75) 
-0.847282

>  <r_i_glide_evdw>  (75) 
-25.8101

>  <r_i_glide_ecoul>  (75) 
-6.02913

>  <r_i_glide_erotb>  (75) 
0

>  <r_i_glide_esite>  (75) 
-0.0906865

>  <r_i_glide_emodel>  (75) 
-39.1225

>  <r_i_glide_energy>  (75) 
-31.8392

>  <r_i_glide_einternal>  (75) 
0.330404

>  <r_i_glide_intrahb_reward>  (75) 
-0

>  <i_i_glide_confnum>  (75) 
1

>  <i_i_glide_posenum>  (75) 
37

>  <r_i_glide_eff_state_penalty>  (75) 
0

>  <ligand_id>  (75) 
25

>  <original_smiles>  (75) 
CC12CC3OC3(CC3(CCC4C(CCC5C4CCC4(C)C(O)CCC54)C3)N1)O2

>  <smiles>  (75) 
[H]OC1([H])C([H])([H])C([H])([H])C2([H])C3([H])C([H])([H])C([H])([H])C4([H])C([H])([H])C5(C([H])([H])C([H])([H])C4([H])C3([H])C([H])([H])C([H])([H])C12C([H])([H])[H])C([H])([H])C12OC1([H])C([H])([H])C(C([H])([H])[H])(O2)[N+]5([H])[H]

$$$$
25:1:2
     RDKit          3D

 66 72  0  0  1  0  0  0  0  0999 V2000
    2.5923   -4.5663   -0.1062 C   0  0  0  0  0  0  0  0  0  0  0  0
    3.6514   -3.5677   -0.5724 C   0  0  1  0  0  0  0  0  0  0  0  0
    3.6469   -3.0729   -2.0175 C   0  0  0  0  0  0  0  0  0  0  0  0
    5.0281   -3.4564   -2.5365 C   0  0  2  0  0  0  0  0  0  0  0  0
    6.4334   -3.2844   -2.1986 O   0  0  0  0  0  0  0  0  0  0  0  0
    5.6252   -3.0072   -1.1434 C   0  0  1  0  0  0  0  0  0  0  0  0
    5.6106   -1.6042   -0.5444 C   0  0  0  0  0  0  0  0  0  0  0  0
    4.6393   -1.5044    0.6534 C   0  0  2  0  0  0  0  0  0  0  0  0
    4.3114   -0.0272    0.9558 C   0  0  0  0  0  0  0  0  0  0  0  0
    3.4352    0.1375    2.2085 C   0  0  0  0  0  0  0  0  0  0  0  0
    4.0668   -0.4900    3.4718 C   0  0  2  0  0  0  0  0  0  0  0  0
    4.4974   -1.9538    3.2080 C   0  0  1  0  0  0  0  0  0  0  0  0
    3.3077   -2.9262    3.2764 C   0  0  0  0  0  0  0  0  0  0  0  0
    2.6407   -2.8749    4.6460 C   0  0  0  0  0  0  0  0  0  0  0  0
    2.1208   -1.4549    4.9856 C   0  0  1  0  0  0  0  0  0  0  0  0
    3.2468   -0.4004    4.7991 C   0  0  2  0  0  0  0  0  0  0  0  0
    2.7578    1.0046    5.2005 C   0  0  0  0  0  0  0  0  0  0  0  0
    1.4221    1.4302    4.5583 C   0  0  0  0  0  0  0  0  0  0  0  0
    0.2792    0.3805    4.6145 C   0  0  2  0  0  0  0  0  0  0  0  0
   -0.8149    0.8233    3.5917 C   0  0  0  0  0  0  0  0  0  0  0  0
   -0.3208    0.2028    6.0318 C   0  0  1  0  0  0  0  0  0  0  0  0
   -1.3178    1.1459    6.3570 O   0  0  0  0  0  0  0  0  0  0  0  0
   -0.9101   -1.2121    6.0711 C   0  0  0  0  0  0  0  0  0  0  0  0
   -0.3884   -1.9334    4.8367 C   0  0  0  0  0  0  0  0  0  0  0  0
    0.7686   -1.0671    4.3002 C   0  0  2  0  0  0  0  0  0  0  0  0
    5.3148   -2.0955    1.9161 C   0  0  0  0  0  0  0  0  0  0  0  0
    3.3882   -2.2425    0.3174 N   0  0  0  0  0  0  0  0  0  0  0  0
    4.9409   -3.9808   -0.3802 O   0  0  0  0  0  0  0  0  0  0  0  0
    1.5926   -4.1844   -0.3278 H   0  0  0  0  0  0  0  0  0  0  0  0
    2.6827   -4.7769    0.9575 H   0  0  0  0  0  0  0  0  0  0  0  0
    2.7103   -5.5017   -0.6334 H   0  0  0  0  0  0  0  0  0  0  0  0
    2.8966   -3.6036   -2.6007 H   0  0  0  0  0  0  0  0  0  0  0  0
    3.4414   -2.0226   -2.1074 H   0  0  0  0  0  0  0  0  0  0  0  0
    4.9586   -4.4981   -2.8435 H   0  0  0  0  0  0  0  0  0  0  0  0
    6.6185   -1.3263   -0.2375 H   0  0  0  0  0  0  0  0  0  0  0  0
    5.3321   -0.9421   -1.3564 H   0  0  0  0  0  0  0  0  0  0  0  0
    5.2317    0.5481    1.0835 H   0  0  0  0  0  0  0  0  0  0  0  0
    3.8189    0.4219    0.0917 H   0  0  0  0  0  0  0  0  0  0  0  0
    3.3243    1.2101    2.3610 H   0  0  0  0  0  0  0  0  0  0  0  0
    2.4382   -0.2605    2.0351 H   0  0  0  0  0  0  0  0  0  0  0  0
    4.9847    0.0766    3.6473 H   0  0  0  0  0  0  0  0  0  0  0  0
    5.1832   -2.2269    4.0108 H   0  0  0  0  0  0  0  0  0  0  0  0
    2.5515   -2.6889    2.5238 H   0  0  0  0  0  0  0  0  0  0  0  0
    3.6575   -3.9405    3.0787 H   0  0  0  0  0  0  0  0  0  0  0  0
    1.8412   -3.6132    4.6519 H   0  0  0  0  0  0  0  0  0  0  0  0
    3.3490   -3.2105    5.4120 H   0  0  0  0  0  0  0  0  0  0  0  0
    1.9217   -1.4827    6.0583 H   0  0  0  0  0  0  0  0  0  0  0  0
    3.9865   -0.6590    5.5615 H   0  0  0  0  0  0  0  0  0  0  0  0
    2.6495    1.0345    6.2864 H   0  0  0  0  0  0  0  0  0  0  0  0
    3.5293    1.7409    4.9653 H   0  0  0  0  0  0  0  0  0  0  0  0
    1.0919    2.3646    5.0186 H   0  0  0  0  0  0  0  0  0  0  0  0
    1.6073    1.6914    3.5183 H   0  0  0  0  0  0  0  0  0  0  0  0
   -1.5832    0.0657    3.4388 H   0  0  0  0  0  0  0  0  0  0  0  0
   -0.3778    1.0079    2.6076 H   0  0  0  0  0  0  0  0  0  0  0  0
   -1.3219    1.7472    3.8847 H   0  0  0  0  0  0  0  0  0  0  0  0
    0.4543    0.2855    6.7960 H   0  0  0  0  0  0  0  0  0  0  0  0
   -1.7851    1.3785    5.5651 H   0  0  0  0  0  0  0  0  0  0  0  0
   -0.6002   -1.7112    6.9926 H   0  0  0  0  0  0  0  0  0  0  0  0
   -2.0003   -1.1953    6.0585 H   0  0  0  0  0  0  0  0  0  0  0  0
   -0.1270   -2.9638    5.0697 H   0  0  0  0  0  0  0  0  0  0  0  0
   -1.1805   -1.9597    4.0824 H   0  0  0  0  0  0  0  0  0  0  0  0
    0.8506   -1.2025    3.2260 H   0  0  0  0  0  0  0  0  0  0  0  0
    5.6127   -3.1430    1.7902 H   0  0  0  0  0  0  0  0  0  0  0  0
    6.2496   -1.5514    2.0586 H   0  0  0  0  0  0  0  0  0  0  0  0
    2.7483   -1.6613   -0.2059 H   0  0  0  0  0  0  0  0  0  0  0  0
    2.9801   -2.5004    1.2088 H   0  0  0  0  0  0  0  0  0  0  0  0
  2  1  1  6
  1 29  1  0
  1 30  1  0
  1 31  1  0
  2 27  1  0
  2 28  1  0
  2  3  1  0
  3  4  1  0
  3 32  1  0
  3 33  1  0
  4  6  1  0
  4  5  1  0
  4 34  1  1
  6  5  1  6
  6  7  1  0
  6 28  1  0
  8  7  1  6
  7 35  1  0
  7 36  1  0
  8 26  1  0
  8  9  1  0
  8 27  1  0
  9 10  1  0
  9 37  1  0
  9 38  1  0
 10 11  1  0
 10 39  1  0
 10 40  1  0
 11 16  1  0
 11 12  1  0
 11 41  1  1
 12 13  1  0
 12 26  1  0
 12 42  1  1
 13 14  1  0
 13 43  1  0
 13 44  1  0
 14 15  1  0
 14 45  1  0
 14 46  1  0
 15 25  1  0
 15 16  1  0
 15 47  1  1
 16 17  1  0
 16 48  1  1
 17 18  1  0
 17 49  1  0
 17 50  1  0
 18 19  1  0
 18 51  1  0
 18 52  1  0
 19 25  1  0
 19 20  1  6
 19 21  1  0
 20 53  1  0
 20 54  1  0
 20 55  1  0
 21 22  1  0
 21 23  1  0
 21 56  1  1
 22 57  1  0
 23 24  1  0
 23 58  1  0
 23 59  1  0
 24 25  1  0
 24 60  1  0
 24 61  1  0
 25 62  1  6
 26 63  1  0
 26 64  1  0
 27 65  1  0
 27 66  1  0
M  CHG  1  27   1
M  END
>  <i_m_ct_stereo_status>  (76) 
1

>  <s_m_source_file>  (76) 
/var/tmp/pbs.5076255.sched01/tmpnm8fzmj1/0q4giu30i.sdf

>  <i_m_source_file_index>  (76) 
37

>  <i_lp_mmshare_version>  (76) 
48012

>  <i_f3d_flags>  (76) 
0

>  <s_epik_input>  (76) 
TzFbQ0BASF0oW0NAQF0xMjMpW0NIMl1bQ0BdKE8zKShbQ0gzXSlbTkhdW0NAQF00KFtDSDJdMilbQ0gyXVtDSDJdW0NAQEhdNVtDQEhdKFtDSDJdNClbQ0gyXVtDSDJdW0NASF02W0NAQEhdNVtDSDJdW0NIMl1bQ0BAXTcoW0NIM10pW0NAQEhdNltDSDJdW0NIMl1bQ0BASF03W09IXQ==

>  <s_epik_cmdline>  (76) 
J2VwaWtfcHl0aG9uJywgJy1waHQnLCAnMi4wJywgJy1waCcsICc3LjAnLCAnLXRuJywgJzgnLCAnLW1hJywgJzIwMCcsICctaW1hZScsICc8aW5maWxlLm1hZT4nLCAnLW9tYWUnLCAnPG91dGZpbGUubWFlPic=

>  <r_epik_Ionization_Penalty>  (76) 
0.499534

>  <r_epik_Ionization_Penalty_Charging>  (76) 
0.499531

>  <r_epik_Ionization_Penalty_Neutral>  (76) 
3.22761e-06

>  <r_epik_State_Penalty>  (76) 
0.505903

>  <r_epik_Charging_Adjusted_Penalty>  (76) 
1.00543

>  <i_epik_Tot_Q>  (76) 
1

>  <i_epik_Tot_abs_Q>  (76) 
1

>  <s_lp_Force_Field>  (76) 
OPLS3e

>  <r_lp_Energy>  (76) 
91.3301

>  <b_lp_Chiralities_Consistent>  (76) 
1

>  <s_lp_Variant>  (76) 
25:0-2

>  <s_i_glide_gridfile>  (76) 
pfpi4k_grid

>  <i_i_glide_lignum>  (76) 
37

>  <i_i_glide_rotatable_bonds>  (76) 
1

>  <r_i_docking_score>  (76) 
-3.57275

>  <r_i_glide_ligand_efficiency>  (76) 
-0.127598

>  <r_i_glide_ligand_efficiency_sa>  (76) 
-0.387463

>  <r_i_glide_ligand_efficiency_ln>  (76) 
-0.824696

>  <r_i_glide_gscore>  (76) 
-3.57275

>  <r_i_glide_lipo>  (76) 
-0.377278

>  <r_i_glide_hbond>  (76) 
-0.10969

>  <r_i_glide_metal>  (76) 
-0

>  <r_i_glide_rewards>  (76) 
-0.840771

>  <r_i_glide_evdw>  (76) 
-25.9375

>  <r_i_glide_ecoul>  (76) 
-6.01917

>  <r_i_glide_erotb>  (76) 
0

>  <r_i_glide_esite>  (76) 
-0.0452606

>  <r_i_glide_emodel>  (76) 
-38.7729

>  <r_i_glide_energy>  (76) 
-31.9567

>  <r_i_glide_einternal>  (76) 
0.327502

>  <r_i_glide_intrahb_reward>  (76) 
-0

>  <i_i_glide_confnum>  (76) 
2

>  <i_i_glide_posenum>  (76) 
3

>  <r_i_glide_eff_state_penalty>  (76) 
0

>  <ligand_id>  (76) 
25

>  <original_smiles>  (76) 
CC12CC3OC3(CC3(CCC4C(CCC5C4CCC4(C)C(O)CCC54)C3)N1)O2

>  <smiles>  (76) 
[H]OC1([H])C([H])([H])C([H])([H])C2([H])C3([H])C([H])([H])C([H])([H])C4([H])C([H])([H])C5(C([H])([H])C([H])([H])C4([H])C3([H])C([H])([H])C([H])([H])C12C([H])([H])[H])C([H])([H])C12OC1([H])C([H])([H])C(C([H])([H])[H])(O2)[N+]5([H])[H]

$$$$
27:1:0
     RDKit          3D

 74 79  0  0  1  0  0  0  0  0999 V2000
   -1.2250   -7.5716    2.9030 C   0  0  0  0  0  0  0  0  0  0  0  0
    0.2419   -7.4882    3.2832 C   0  0  0  0  0  0  0  0  0  0  0  0
    0.9399   -8.5525    3.6811 C   0  0  0  0  0  0  0  0  0  0  0  0
    2.4064   -8.4873    4.0396 C   0  0  0  0  0  0  0  0  0  0  0  0
    3.1456   -7.1282    3.7640 C   0  0  1  0  0  0  0  0  0  0  0  0
    4.6822   -7.3502    3.5058 C   0  0  0  0  0  0  0  0  0  0  0  0
    5.3564   -7.7799    4.8493 C   0  0  0  0  0  0  0  0  0  0  0  0
    5.0313   -8.5904    2.6088 C   0  0  0  0  0  0  0  0  0  0  0  0
    5.3177   -6.0215    2.9140 C   0  0  2  0  0  0  0  0  0  0  0  0
    5.6068   -4.9481    4.0163 C   0  0  0  0  0  0  0  0  0  0  0  0
    4.6475   -4.8218    5.2175 C   0  0  0  0  0  0  0  0  0  0  0  0
    3.4111   -4.2746    5.2802 C   0  0  0  0  0  0  0  0  0  0  0  0
    2.6041   -4.2852    6.5634 C   0  0  0  0  0  0  0  0  0  0  0  0
    2.7846   -3.6050    4.0778 C   0  0  1  0  0  0  0  0  0  0  0  0
    1.3521   -2.9853    4.1331 C   0  0  0  0  0  0  0  0  0  0  0  0
    1.4311   -1.8922    3.0121 C   0  0  0  0  0  0  0  0  0  0  0  0
    2.8910   -1.4955    3.0699 C   0  0  0  0  0  0  0  0  0  0  0  0
    3.4892   -2.2642    3.9620 C   0  0  0  0  0  0  0  0  0  0  0  0
    4.6763   -1.7500    4.7862 C   0  0  0  0  0  0  0  0  0  0  0  0
    3.7124   -1.4265    1.7810 C   0  0  1  0  0  0  0  0  0  0  0  0
    4.5073   -0.2507    1.7800 O   0  0  0  0  0  0  0  0  0  0  0  0
    4.5788   -2.7344    1.6039 C   0  0  0  0  0  0  0  0  0  0  0  0
    5.7959   -2.6112    1.4786 O   0  0  0  0  0  0  0  0  0  0  0  0
    3.8563   -4.1481    1.5402 C   0  0  2  0  0  0  0  0  0  0  0  0
    3.1062   -3.9027    0.1697 C   0  0  0  0  0  0  0  0  0  0  0  0
    2.8287   -4.5225    2.7216 C   0  0  1  0  0  0  0  0  0  0  0  0
    2.4026   -6.1091    2.7913 C   0  0  1  0  0  0  0  0  0  0  0  0
    2.5360   -6.7362    1.3796 C   0  0  0  0  0  0  0  0  0  0  0  0
    3.9299   -6.5085    0.7370 C   0  0  0  0  0  0  0  0  0  0  0  0
    4.7903   -5.4509    1.4812 C   0  0  2  0  0  0  0  0  0  0  0  0
    6.0398   -5.2892    0.5588 C   0  0  0  0  0  0  0  0  0  0  0  0
    0.8995   -6.1303    3.2020 C   0  0  0  0  0  0  0  0  0  0  0  0
   -1.8242   -6.8904    3.5050 H   0  0  0  0  0  0  0  0  0  0  0  0
   -1.6071   -8.5837    3.0537 H   0  0  0  0  0  0  0  0  0  0  0  0
   -1.3519   -7.3287    1.8494 H   0  0  0  0  0  0  0  0  0  0  0  0
    0.4736   -9.5233    3.7670 H   0  0  0  0  0  0  0  0  0  0  0  0
    2.4974   -8.7399    5.0995 H   0  0  0  0  0  0  0  0  0  0  0  0
    2.8388   -9.3329    3.5103 H   0  0  0  0  0  0  0  0  0  0  0  0
    3.0388   -6.6746    4.7401 H   0  0  0  0  0  0  0  0  0  0  0  0
    6.4435   -7.6951    4.8043 H   0  0  0  0  0  0  0  0  0  0  0  0
    5.1305   -8.8120    5.1218 H   0  0  0  0  0  0  0  0  0  0  0  0
    5.0143   -7.2411    5.7242 H   0  0  0  0  0  0  0  0  0  0  0  0
    5.9252   -8.4267    2.0055 H   0  0  0  0  0  0  0  0  0  0  0  0
    4.2297   -8.8966    1.9416 H   0  0  0  0  0  0  0  0  0  0  0  0
    5.2337   -9.5039    3.1679 H   0  0  0  0  0  0  0  0  0  0  0  0
    6.3317   -6.3510    2.6852 H   0  0  0  0  0  0  0  0  0  0  0  0
    6.5671   -5.1945    4.4701 H   0  0  0  0  0  0  0  0  0  0  0  0
    5.8051   -3.9990    3.5489 H   0  0  0  0  0  0  0  0  0  0  0  0
    5.0397   -5.2194    6.1397 H   0  0  0  0  0  0  0  0  0  0  0  0
    1.6444   -4.7732    6.4091 H   0  0  0  0  0  0  0  0  0  0  0  0
    2.4262   -3.2701    6.9165 H   0  0  0  0  0  0  0  0  0  0  0  0
    3.1266   -4.8228    7.3526 H   0  0  0  0  0  0  0  0  0  0  0  0
    0.5088   -3.6502    4.0246 H   0  0  0  0  0  0  0  0  0  0  0  0
    1.2118   -2.4702    5.0846 H   0  0  0  0  0  0  0  0  0  0  0  0
    1.1330   -2.2465    2.0384 H   0  0  0  0  0  0  0  0  0  0  0  0
    0.8008   -1.0307    3.2513 H   0  0  0  0  0  0  0  0  0  0  0  0
    4.3817   -1.6445    5.8345 H   0  0  0  0  0  0  0  0  0  0  0  0
    4.9740   -0.7562    4.4445 H   0  0  0  0  0  0  0  0  0  0  0  0
    5.5725   -2.3615    4.7533 H   0  0  0  0  0  0  0  0  0  0  0  0
    3.0368   -1.2755    0.9340 H   0  0  0  0  0  0  0  0  0  0  0  0
    3.9439    0.4894    1.8841 H   0  0  0  0  0  0  0  0  0  0  0  0
    2.4415   -4.6716   -0.1938 H   0  0  0  0  0  0  0  0  0  0  0  0
    3.8114   -3.7177   -0.6470 H   0  0  0  0  0  0  0  0  0  0  0  0
    2.4396   -3.0420    0.1870 H   0  0  0  0  0  0  0  0  0  0  0  0
    1.9470   -4.1918    2.1933 H   0  0  0  0  0  0  0  0  0  0  0  0
    2.3299   -7.8082    1.3957 H   0  0  0  0  0  0  0  0  0  0  0  0
    1.7467   -6.3569    0.7343 H   0  0  0  0  0  0  0  0  0  0  0  0
    4.4713   -7.4273    0.5606 H   0  0  0  0  0  0  0  0  0  0  0  0
    3.8016   -6.2438   -0.3081 H   0  0  0  0  0  0  0  0  0  0  0  0
    5.7931   -4.7810   -0.3777 H   0  0  0  0  0  0  0  0  0  0  0  0
    6.4578   -6.2559    0.2767 H   0  0  0  0  0  0  0  0  0  0  0  0
    6.8568   -4.7397    1.0259 H   0  0  0  0  0  0  0  0  0  0  0  0
    0.2946   -5.4969    2.5584 H   0  0  0  0  0  0  0  0  0  0  0  0
    0.7996   -5.7400    4.2181 H   0  0  0  0  0  0  0  0  0  0  0  0
  1  2  1  0
  1 33  1  0
  1 34  1  0
  1 35  1  0
  2 32  1  0
  2  3  2  0
  3  4  1  0
  3 36  1  0
  4  5  1  0
  4 37  1  0
  4 38  1  0
  5 27  1  0
  5  6  1  0
  5 39  1  1
  6  7  1  0
  6  8  1  0
  6  9  1  0
  7 40  1  0
  7 41  1  0
  7 42  1  0
  8 43  1  0
  8 44  1  0
  8 45  1  0
  9 30  1  0
  9 10  1  0
  9 46  1  6
 10 11  1  0
 10 47  1  0
 10 48  1  0
 11 12  2  3
 11 49  1  0
 12 13  1  0
 12 14  1  0
 13 50  1  0
 13 51  1  0
 13 52  1  0
 14 18  1  0
 14 26  1  0
 14 15  1  1
 15 16  1  0
 15 53  1  0
 15 54  1  0
 16 17  1  0
 16 55  1  0
 16 56  1  0
 17 18  2  0
 17 20  1  0
 18 19  1  0
 19 57  1  0
 19 58  1  0
 19 59  1  0
 20 21  1  0
 20 22  1  0
 20 60  1  6
 21 61  1  0
 22 23  2  0
 22 24  1  0
 24 30  1  0
 24 25  1  6
 24 26  1  0
 25 62  1  0
 25 63  1  0
 25 64  1  0
 26 27  1  0
 26 65  1  6
 27 28  1  0
 27 32  1  1
 28 29  1  0
 28 66  1  0
 28 67  1  0
 29 30  1  0
 29 68  1  0
 29 69  1  0
 30 31  1  6
 31 70  1  0
 31 71  1  0
 31 72  1  0
 32 73  1  0
 32 74  1  0
M  END
>  <i_m_ct_stereo_status>  (77) 
1

>  <s_m_source_file>  (77) 
/var/tmp/pbs.5076255.sched01/tmp1pob34vh/39rbzpz6sd.sdf

>  <i_m_source_file_index>  (77) 
1

>  <i_lp_mmshare_version>  (77) 
48012

>  <i_f3d_flags>  (77) 
0

>  <s_epik_input>  (77) 
W0NIM11DKFtDSDJdMSk9W0NIXVtDSDJdW0NASF0oW0NAXTEyW0NASF0zW0NAXTQ1NilDKFtDSDNdKShbQ0gzXSlbQ0BIXShbQ0gyXS9bQ0hdPUM0XFtDSDNdKVtDQEBdKFtDSDNdKShbQ0gyXVtDSDJdMilbQ0BdMyhbQ0gzXSlDKD1PKVtDQEhdKFtPSF0pQyhbQ0gyXVtDSDJdNSk9QzZbQ0gzXQ==

>  <s_epik_cmdline>  (77) 
J2VwaWtfcHl0aG9uJywgJy1waHQnLCAnMi4wJywgJy1waCcsICc3LjAnLCAnLXRuJywgJzgnLCAnLW1hJywgJzIwMCcsICctaW1hZScsICc8aW5maWxlLm1hZT4nLCAnLW9tYWUnLCAnPG91dGZpbGUubWFlPic=

>  <r_lp_tautomer_probability>  (77) 
1

>  <r_epik_Ionization_Penalty>  (77) 
1.04504e-07

>  <r_epik_Ionization_Penalty_Charging>  (77) 
0

>  <r_epik_Ionization_Penalty_Neutral>  (77) 
1.04504e-07

>  <r_epik_State_Penalty>  (77) 
-0

>  <r_epik_Charging_Adjusted_Penalty>  (77) 
0

>  <i_epik_Tot_Q>  (77) 
0

>  <i_epik_Tot_abs_Q>  (77) 
0

>  <s_lp_Force_Field>  (77) 
OPLS3e

>  <r_lp_Energy>  (77) 
199.38

>  <b_lp_Chiralities_Consistent>  (77) 
1

>  <s_lp_Variant>  (77) 
27:0-2

>  <s_i_glide_gridfile>  (77) 
pfpi4k_grid

>  <i_i_glide_lignum>  (77) 
1

>  <i_i_glide_rotatable_bonds>  (77) 
1

>  <r_i_docking_score>  (77) 
-2.43995

>  <r_i_glide_ligand_efficiency>  (77) 
-0.0762486

>  <r_i_glide_ligand_efficiency_sa>  (77) 
-0.242074

>  <r_i_glide_ligand_efficiency_ln>  (77) 
-0.546372

>  <r_i_glide_gscore>  (77) 
-2.43995

>  <r_i_glide_lipo>  (77) 
-0.323465

>  <r_i_glide_hbond>  (77) 
0

>  <r_i_glide_metal>  (77) 
-0

>  <r_i_glide_rewards>  (77) 
-0.475002

>  <r_i_glide_evdw>  (77) 
-27.2351

>  <r_i_glide_ecoul>  (77) 
-1.86488

>  <r_i_glide_erotb>  (77) 
0

>  <r_i_glide_esite>  (77) 
0

>  <r_i_glide_emodel>  (77) 
-33.2607

>  <r_i_glide_energy>  (77) 
-29.1

>  <r_i_glide_einternal>  (77) 
0.00649274

>  <r_i_glide_intrahb_reward>  (77) 
-0

>  <i_i_glide_confnum>  (77) 
1

>  <i_i_glide_posenum>  (77) 
35

>  <r_i_glide_eff_state_penalty>  (77) 
0

>  <ligand_id>  (77) 
27

>  <original_smiles>  (77) 
CC1=CCC2C(C)(C)C3CC=C(C)C45CCC(=C4C)C(O)C(=O)C4(C)C5C2(CCC34C)C1

>  <smiles>  (77) 
[H]OC1([H])C(=O)C2(C([H])([H])[H])C3([H])C4(C(C([H])([H])[H])=C1C([H])([H])C4([H])[H])C(C([H])([H])[H])=C([H])C([H])([H])C1([H])C(C([H])([H])[H])(C([H])([H])[H])C4([H])C([H])([H])C([H])=C(C([H])([H])[H])C([H])([H])C34C([H])([H])C([H])([H])C12C([H])([H])[H]

$$$$
27:1:1
     RDKit          3D

 74 79  0  0  1  0  0  0  0  0999 V2000
   -1.2026   -7.6656    2.8790 C   0  0  0  0  0  0  0  0  0  0  0  0
    0.2768   -7.5922    3.2367 C   0  0  0  0  0  0  0  0  0  0  0  0
    0.9902   -8.6742    3.5541 C   0  0  0  0  0  0  0  0  0  0  0  0
    2.4587   -8.6146    3.8939 C   0  0  0  0  0  0  0  0  0  0  0  0
    3.1842   -7.2337    3.6823 C   0  0  1  0  0  0  0  0  0  0  0  0
    4.7167   -7.4275    3.3911 C   0  0  0  0  0  0  0  0  0  0  0  0
    5.4191   -7.9222    4.6959 C   0  0  0  0  0  0  0  0  0  0  0  0
    5.0590   -8.6131    2.4163 C   0  0  0  0  0  0  0  0  0  0  0  0
    5.3302   -6.0585    2.8665 C   0  0  2  0  0  0  0  0  0  0  0  0
    5.6301   -5.0461    4.0226 C   0  0  0  0  0  0  0  0  0  0  0  0
    4.6892   -5.0024    5.2451 C   0  0  0  0  0  0  0  0  0  0  0  0
    3.4515   -4.4694    5.3577 C   0  0  0  0  0  0  0  0  0  0  0  0
    2.6653   -4.5574    6.6538 C   0  0  0  0  0  0  0  0  0  0  0  0
    2.8001   -3.7417    4.2077 C   0  0  1  0  0  0  0  0  0  0  0  0
    1.3572   -3.1431    4.3247 C   0  0  0  0  0  0  0  0  0  0  0  0
    1.4079   -1.9899    3.2593 C   0  0  0  0  0  0  0  0  0  0  0  0
    2.8603   -1.5810    3.3164 C   0  0  0  0  0  0  0  0  0  0  0  0
    3.4859   -2.3924    4.1568 C   0  0  0  0  0  0  0  0  0  0  0  0
    4.6885   -1.9081    4.9903 C   0  0  0  0  0  0  0  0  0  0  0  0
    3.6666   -1.4300    2.0256 C   0  0  1  0  0  0  0  0  0  0  0  0
    4.4623   -0.2643    2.1193 O   0  0  0  0  0  0  0  0  0  0  0  0
    4.5369   -2.7154    1.7599 C   0  0  0  0  0  0  0  0  0  0  0  0
    5.7505   -2.5663    1.6373 O   0  0  0  0  0  0  0  0  0  0  0  0
    3.8273   -4.1286    1.6270 C   0  0  2  0  0  0  0  0  0  0  0  0
    3.0580   -3.8110    0.2798 C   0  0  0  0  0  0  0  0  0  0  0  0
    2.8258   -4.5793    2.8027 C   0  0  1  0  0  0  0  0  0  0  0  0
    2.4166   -6.1697    2.7817 C   0  0  1  0  0  0  0  0  0  0  0  0
    2.5315   -6.7170    1.3423 C   0  0  0  0  0  0  0  0  0  0  0  0
    3.9118   -6.4411    0.6944 C   0  0  0  0  0  0  0  0  0  0  0  0
    4.7733   -5.4159    1.4797 C   0  0  2  0  0  0  0  0  0  0  0  0
    6.0037   -5.1892    0.5415 C   0  0  0  0  0  0  0  0  0  0  0  0
    0.9182   -6.2297    3.2124 C   0  0  0  0  0  0  0  0  0  0  0  0
   -1.7935   -7.0304    3.5268 H   0  0  0  0  0  0  0  0  0  0  0  0
   -1.5680   -8.6918    2.9770 H   0  0  0  0  0  0  0  0  0  0  0  0
   -1.3452   -7.3706    1.8428 H   0  0  0  0  0  0  0  0  0  0  0  0
    0.5318   -9.6510    3.5957 H   0  0  0  0  0  0  0  0  0  0  0  0
    2.5724   -8.9233    4.9329 H   0  0  0  0  0  0  0  0  0  0  0  0
    2.8922   -9.4239    3.3089 H   0  0  0  0  0  0  0  0  0  0  0  0
    3.0896   -6.8384    4.6899 H   0  0  0  0  0  0  0  0  0  0  0  0
    6.5018   -7.8313    4.6350 H   0  0  0  0  0  0  0  0  0  0  0  0
    5.2062   -8.9746    4.9112 H   0  0  0  0  0  0  0  0  0  0  0  0
    5.0869   -7.4435    5.6012 H   0  0  0  0  0  0  0  0  0  0  0  0
    5.9448   -8.4060    1.8109 H   0  0  0  0  0  0  0  0  0  0  0  0
    4.2544   -8.8849    1.7476 H   0  0  0  0  0  0  0  0  0  0  0  0
    5.2788   -9.5561    2.9209 H   0  0  0  0  0  0  0  0  0  0  0  0
    6.3473   -6.3675    2.6009 H   0  0  0  0  0  0  0  0  0  0  0  0
    6.6031   -5.3121    4.4459 H   0  0  0  0  0  0  0  0  0  0  0  0
    5.8134   -4.0757    3.6055 H   0  0  0  0  0  0  0  0  0  0  0  0
    5.1018   -5.4475    6.1326 H   0  0  0  0  0  0  0  0  0  0  0  0
    1.7047   -5.0480    6.4837 H   0  0  0  0  0  0  0  0  0  0  0  0
    2.4847   -3.5732    7.0645 H   0  0  0  0  0  0  0  0  0  0  0  0
    3.2039   -5.1452    7.4003 H   0  0  0  0  0  0  0  0  0  0  0  0
    0.5202   -3.8068    4.1890 H   0  0  0  0  0  0  0  0  0  0  0  0
    1.2321   -2.6790    5.3001 H   0  0  0  0  0  0  0  0  0  0  0  0
    1.0950   -2.2886    2.2701 H   0  0  0  0  0  0  0  0  0  0  0  0
    0.7814   -1.1456    3.5584 H   0  0  0  0  0  0  0  0  0  0  0  0
    4.4049   -1.8756    6.0408 H   0  0  0  0  0  0  0  0  0  0  0  0
    4.9670   -0.8933    4.7149 H   0  0  0  0  0  0  0  0  0  0  0  0
    5.5894   -2.5081    4.9045 H   0  0  0  0  0  0  0  0  0  0  0  0
    2.9822   -1.2244    1.1946 H   0  0  0  0  0  0  0  0  0  0  0  0
    4.9715   -0.3399    2.9023 H   0  0  0  0  0  0  0  0  0  0  0  0
    2.3881   -4.5664   -0.1122 H   0  0  0  0  0  0  0  0  0  0  0  0
    3.7410   -3.5739   -0.5283 H   0  0  0  0  0  0  0  0  0  0  0  0
    2.3828   -2.9588    0.3604 H   0  0  0  0  0  0  0  0  0  0  0  0
    1.9335   -4.2266    2.3065 H   0  0  0  0  0  0  0  0  0  0  0  0
    2.3352   -7.7854    1.2981 H   0  0  0  0  0  0  0  0  0  0  0  0
    1.7308   -6.3084    0.7284 H   0  0  0  0  0  0  0  0  0  0  0  0
    4.4576   -7.3353    0.4515 H   0  0  0  0  0  0  0  0  0  0  0  0
    3.7635   -6.1079   -0.3279 H   0  0  0  0  0  0  0  0  0  0  0  0
    5.7390   -4.6297   -0.3583 H   0  0  0  0  0  0  0  0  0  0  0  0
    6.4308   -6.1305    0.1985 H   0  0  0  0  0  0  0  0  0  0  0  0
    6.8301   -4.6552    1.0270 H   0  0  0  0  0  0  0  0  0  0  0  0
    0.3000   -5.5611    2.6227 H   0  0  0  0  0  0  0  0  0  0  0  0
    0.8324   -5.8970    4.2567 H   0  0  0  0  0  0  0  0  0  0  0  0
  1  2  1  0
  1 33  1  0
  1 34  1  0
  1 35  1  0
  2 32  1  0
  2  3  2  0
  3  4  1  0
  3 36  1  0
  4  5  1  0
  4 37  1  0
  4 38  1  0
  5 27  1  0
  5  6  1  0
  5 39  1  1
  6  7  1  0
  6  8  1  0
  6  9  1  0
  7 40  1  0
  7 41  1  0
  7 42  1  0
  8 43  1  0
  8 44  1  0
  8 45  1  0
  9 30  1  0
  9 10  1  0
  9 46  1  6
 10 11  1  0
 10 47  1  0
 10 48  1  0
 11 12  2  3
 11 49  1  0
 12 13  1  0
 12 14  1  0
 13 50  1  0
 13 51  1  0
 13 52  1  0
 14 18  1  0
 14 26  1  0
 14 15  1  1
 15 16  1  0
 15 53  1  0
 15 54  1  0
 16 17  1  0
 16 55  1  0
 16 56  1  0
 17 18  2  0
 17 20  1  0
 18 19  1  0
 19 57  1  0
 19 58  1  0
 19 59  1  0
 20 21  1  0
 20 22  1  0
 20 60  1  6
 21 61  1  0
 22 23  2  0
 22 24  1  0
 24 30  1  0
 24 25  1  6
 24 26  1  0
 25 62  1  0
 25 63  1  0
 25 64  1  0
 26 27  1  0
 26 65  1  6
 27 28  1  0
 27 32  1  1
 28 29  1  0
 28 66  1  0
 28 67  1  0
 29 30  1  0
 29 68  1  0
 29 69  1  0
 30 31  1  6
 31 70  1  0
 31 71  1  0
 31 72  1  0
 32 73  1  0
 32 74  1  0
M  END
>  <i_m_ct_stereo_status>  (78) 
1

>  <s_m_source_file>  (78) 
/var/tmp/pbs.5076255.sched01/tmp1pob34vh/39rbzpz6sd.sdf

>  <i_m_source_file_index>  (78) 
1

>  <i_lp_mmshare_version>  (78) 
48012

>  <i_f3d_flags>  (78) 
0

>  <s_epik_input>  (78) 
W0NIM11DKFtDSDJdMSk9W0NIXVtDSDJdW0NASF0oW0NAXTEyW0NASF0zW0NAXTQ1NilDKFtDSDNdKShbQ0gzXSlbQ0BIXShbQ0gyXS9bQ0hdPUM0XFtDSDNdKVtDQEBdKFtDSDNdKShbQ0gyXVtDSDJdMilbQ0BdMyhbQ0gzXSlDKD1PKVtDQEhdKFtPSF0pQyhbQ0gyXVtDSDJdNSk9QzZbQ0gzXQ==

>  <s_epik_cmdline>  (78) 
J2VwaWtfcHl0aG9uJywgJy1waHQnLCAnMi4wJywgJy1waCcsICc3LjAnLCAnLXRuJywgJzgnLCAnLW1hJywgJzIwMCcsICctaW1hZScsICc8aW5maWxlLm1hZT4nLCAnLW9tYWUnLCAnPG91dGZpbGUubWFlPic=

>  <r_lp_tautomer_probability>  (78) 
1

>  <r_epik_Ionization_Penalty>  (78) 
1.04504e-07

>  <r_epik_Ionization_Penalty_Charging>  (78) 
0

>  <r_epik_Ionization_Penalty_Neutral>  (78) 
1.04504e-07

>  <r_epik_State_Penalty>  (78) 
-0

>  <r_epik_Charging_Adjusted_Penalty>  (78) 
0

>  <i_epik_Tot_Q>  (78) 
0

>  <i_epik_Tot_abs_Q>  (78) 
0

>  <s_lp_Force_Field>  (78) 
OPLS3e

>  <r_lp_Energy>  (78) 
199.38

>  <b_lp_Chiralities_Consistent>  (78) 
1

>  <s_lp_Variant>  (78) 
27:0-2

>  <s_i_glide_gridfile>  (78) 
pfpi4k_grid

>  <i_i_glide_lignum>  (78) 
1

>  <i_i_glide_rotatable_bonds>  (78) 
1

>  <r_i_docking_score>  (78) 
-2.29589

>  <r_i_glide_ligand_efficiency>  (78) 
-0.0717465

>  <r_i_glide_ligand_efficiency_sa>  (78) 
-0.227781

>  <r_i_glide_ligand_efficiency_ln>  (78) 
-0.514112

>  <r_i_glide_gscore>  (78) 
-2.29589

>  <r_i_glide_lipo>  (78) 
-0.32186

>  <r_i_glide_hbond>  (78) 
0

>  <r_i_glide_metal>  (78) 
-0

>  <r_i_glide_rewards>  (78) 
-0.474219

>  <r_i_glide_evdw>  (78) 
-27.3192

>  <r_i_glide_ecoul>  (78) 
-0.892344

>  <r_i_glide_erotb>  (78) 
0

>  <r_i_glide_esite>  (78) 
0

>  <r_i_glide_emodel>  (78) 
-31.3644

>  <r_i_glide_energy>  (78) 
-28.2115

>  <r_i_glide_einternal>  (78) 
1.41576

>  <r_i_glide_intrahb_reward>  (78) 
-0

>  <i_i_glide_confnum>  (78) 
2

>  <i_i_glide_posenum>  (78) 
5

>  <r_i_glide_eff_state_penalty>  (78) 
0

>  <ligand_id>  (78) 
27

>  <original_smiles>  (78) 
CC1=CCC2C(C)(C)C3CC=C(C)C45CCC(=C4C)C(O)C(=O)C4(C)C5C2(CCC34C)C1

>  <smiles>  (78) 
[H]OC1([H])C(=O)C2(C([H])([H])[H])C3([H])C4(C(C([H])([H])[H])=C1C([H])([H])C4([H])[H])C(C([H])([H])[H])=C([H])C([H])([H])C1([H])C(C([H])([H])[H])(C([H])([H])[H])C4([H])C([H])([H])C([H])=C(C([H])([H])[H])C([H])([H])C34C([H])([H])C([H])([H])C12C([H])([H])[H]

$$$$
27:1:2
     RDKit          3D

 74 79  0  0  1  0  0  0  0  0999 V2000
   -1.4530   -8.3068    2.4944 C   0  0  0  0  0  0  0  0  0  0  0  0
   -0.1357   -8.4174    3.2351 C   0  0  0  0  0  0  0  0  0  0  0  0
    0.2020   -9.4994    3.9451 C   0  0  0  0  0  0  0  0  0  0  0  0
    1.5061   -9.6485    4.6828 C   0  0  0  0  0  0  0  0  0  0  0  0
    2.5681   -8.5167    4.4450 C   0  0  1  0  0  0  0  0  0  0  0  0
    4.0326   -9.0627    4.6451 C   0  0  0  0  0  0  0  0  0  0  0  0
    4.2529   -9.3569    6.1652 C   0  0  0  0  0  0  0  0  0  0  0  0
    4.2967  -10.4888    4.0402 C   0  0  0  0  0  0  0  0  0  0  0  0
    5.0700   -8.0021    4.0803 C   0  0  2  0  0  0  0  0  0  0  0  0
    5.3226   -6.8142    5.0725 C   0  0  0  0  0  0  0  0  0  0  0  0
    4.1571   -6.3020    5.9432 C   0  0  0  0  0  0  0  0  0  0  0  0
    3.0915   -5.5416    5.5967 C   0  0  0  0  0  0  0  0  0  0  0  0
    2.0215   -5.1662    6.6057 C   0  0  0  0  0  0  0  0  0  0  0  0
    2.9373   -4.9987    4.1874 C   0  0  1  0  0  0  0  0  0  0  0  0
    1.7151   -4.1201    3.7854 C   0  0  0  0  0  0  0  0  0  0  0  0
    2.2874   -3.2895    2.5957 C   0  0  0  0  0  0  0  0  0  0  0  0
    3.7493   -3.1686    2.9853 C   0  0  0  0  0  0  0  0  0  0  0  0
    3.9233   -3.8331    4.1204 C   0  0  0  0  0  0  0  0  0  0  0  0
    4.9712   -3.4149    5.1502 C   0  0  0  0  0  0  0  0  0  0  0  0
    4.8323   -3.4745    1.9689 C   0  0  1  0  0  0  0  0  0  0  0  0
    5.8401   -2.4836    2.0356 O   0  0  0  0  0  0  0  0  0  0  0  0
    5.4121   -4.9309    2.2051 C   0  0  0  0  0  0  0  0  0  0  0  0
    6.6168   -5.0614    2.3891 O   0  0  0  0  0  0  0  0  0  0  0  0
    4.4344   -6.1799    2.1352 C   0  0  2  0  0  0  0  0  0  0  0  0
    4.1158   -6.0454    0.5899 C   0  0  0  0  0  0  0  0  0  0  0  0
    3.0999   -6.1376    3.0272 C   0  0  1  0  0  0  0  0  0  0  0  0
    2.3229   -7.5777    3.1814 C   0  0  1  0  0  0  0  0  0  0  0  0
    2.6470   -8.4721    1.9520 C   0  0  0  0  0  0  0  0  0  0  0  0
    4.1652   -8.6227    1.6805 C   0  0  0  0  0  0  0  0  0  0  0  0
    5.0438   -7.6225    2.4943 C   0  0  2  0  0  0  0  0  0  0  0  0
    6.4793   -7.8602    1.9295 C   0  0  0  0  0  0  0  0  0  0  0  0
    0.7996   -7.2374    3.1675 C   0  0  0  0  0  0  0  0  0  0  0  0
   -2.0129   -7.4306    2.8176 H   0  0  0  0  0  0  0  0  0  0  0  0
   -2.0730   -9.1881    2.6680 H   0  0  0  0  0  0  0  0  0  0  0  0
   -1.2711   -8.2402    1.4208 H   0  0  0  0  0  0  0  0  0  0  0  0
   -0.4807  -10.3282    4.0182 H   0  0  0  0  0  0  0  0  0  0  0  0
    1.2799   -9.7179    5.7478 H   0  0  0  0  0  0  0  0  0  0  0  0
    1.8501  -10.6400    4.4034 H   0  0  0  0  0  0  0  0  0  0  0  0
    2.3358   -7.8837    5.2906 H   0  0  0  0  0  0  0  0  0  0  0  0
    5.3094   -9.4844    6.4038 H   0  0  0  0  0  0  0  0  0  0  0  0
    3.7431  -10.2646    6.4947 H   0  0  0  0  0  0  0  0  0  0  0  0
    3.8409   -8.6164    6.8359 H   0  0  0  0  0  0  0  0  0  0  0  0
    5.3223  -10.6037    3.6862 H   0  0  0  0  0  0  0  0  0  0  0  0
    3.6327  -10.7568    3.2246 H   0  0  0  0  0  0  0  0  0  0  0  0
    4.1478  -11.3079    4.7453 H   0  0  0  0  0  0  0  0  0  0  0  0
    6.0105   -8.5483    4.1800 H   0  0  0  0  0  0  0  0  0  0  0  0
    6.0683   -7.1448    5.7970 H   0  0  0  0  0  0  0  0  0  0  0  0
    5.8348   -6.0185    4.5587 H   0  0  0  0  0  0  0  0  0  0  0  0
    4.2198   -6.5916    6.9791 H   0  0  0  0  0  0  0  0  0  0  0  0
    1.0419   -5.4898    6.2588 H   0  0  0  0  0  0  0  0  0  0  0  0
    1.9980   -4.0912    6.7639 H   0  0  0  0  0  0  0  0  0  0  0  0
    2.2047   -5.6426    7.5681 H   0  0  0  0  0  0  0  0  0  0  0  0
    0.7888   -4.6314    3.5388 H   0  0  0  0  0  0  0  0  0  0  0  0
    1.4662   -3.4247    4.5845 H   0  0  0  0  0  0  0  0  0  0  0  0
    2.1608   -3.7667    1.6291 H   0  0  0  0  0  0  0  0  0  0  0  0
    1.8278   -2.3024    2.5328 H   0  0  0  0  0  0  0  0  0  0  0  0
    4.4663   -3.0710    6.0538 H   0  0  0  0  0  0  0  0  0  0  0  0
    5.5538   -2.5709    4.7749 H   0  0  0  0  0  0  0  0  0  0  0  0
    5.6958   -4.1726    5.4364 H   0  0  0  0  0  0  0  0  0  0  0  0
    4.4329   -3.3689    0.9641 H   0  0  0  0  0  0  0  0  0  0  0  0
    5.4369   -1.6350    1.9178 H   0  0  0  0  0  0  0  0  0  0  0  0
    3.3998   -6.7312    0.1679 H   0  0  0  0  0  0  0  0  0  0  0  0
    5.0135   -6.1454   -0.0200 H   0  0  0  0  0  0  0  0  0  0  0  0
    3.6646   -5.0955    0.3168 H   0  0  0  0  0  0  0  0  0  0  0  0
    2.4635   -5.7533    2.2440 H   0  0  0  0  0  0  0  0  0  0  0  0
    2.2088   -9.4647    2.0484 H   0  0  0  0  0  0  0  0  0  0  0  0
    2.1334   -8.0732    1.0807 H   0  0  0  0  0  0  0  0  0  0  0  0
    4.5143   -9.6394    1.7789 H   0  0  0  0  0  0  0  0  0  0  0  0
    4.3488   -8.5315    0.6111 H   0  0  0  0  0  0  0  0  0  0  0  0
    6.5850   -7.4838    0.9103 H   0  0  0  0  0  0  0  0  0  0  0  0
    6.7308   -8.9220    1.8927 H   0  0  0  0  0  0  0  0  0  0  0  0
    7.2637   -7.3967    2.5316 H   0  0  0  0  0  0  0  0  0  0  0  0
    0.5238   -6.6328    2.3038 H   0  0  0  0  0  0  0  0  0  0  0  0
    0.5524   -6.6645    4.0614 H   0  0  0  0  0  0  0  0  0  0  0  0
  1  2  1  0
  1 33  1  0
  1 34  1  0
  1 35  1  0
  2 32  1  0
  2  3  2  0
  3  4  1  0
  3 36  1  0
  4  5  1  0
  4 37  1  0
  4 38  1  0
  5 27  1  0
  5  6  1  0
  5 39  1  1
  6  7  1  0
  6  8  1  0
  6  9  1  0
  7 40  1  0
  7 41  1  0
  7 42  1  0
  8 43  1  0
  8 44  1  0
  8 45  1  0
  9 30  1  0
  9 10  1  0
  9 46  1  6
 10 11  1  0
 10 47  1  0
 10 48  1  0
 11 12  2  3
 11 49  1  0
 12 13  1  0
 12 14  1  0
 13 50  1  0
 13 51  1  0
 13 52  1  0
 14 18  1  0
 14 26  1  0
 14 15  1  1
 15 16  1  0
 15 53  1  0
 15 54  1  0
 16 17  1  0
 16 55  1  0
 16 56  1  0
 17 18  2  0
 17 20  1  0
 18 19  1  0
 19 57  1  0
 19 58  1  0
 19 59  1  0
 20 21  1  0
 20 22  1  0
 20 60  1  6
 21 61  1  0
 22 23  2  0
 22 24  1  0
 24 30  1  0
 24 25  1  6
 24 26  1  0
 25 62  1  0
 25 63  1  0
 25 64  1  0
 26 27  1  0
 26 65  1  6
 27 28  1  0
 27 32  1  6
 28 29  1  0
 28 66  1  0
 28 67  1  0
 29 30  1  0
 29 68  1  0
 29 69  1  0
 30 31  1  6
 31 70  1  0
 31 71  1  0
 31 72  1  0
 32 73  1  0
 32 74  1  0
M  END
>  <i_m_ct_stereo_status>  (79) 
1

>  <s_m_source_file>  (79) 
/var/tmp/pbs.5076255.sched01/tmp1pob34vh/39rbzpz6sd.sdf

>  <i_m_source_file_index>  (79) 
1

>  <i_lp_mmshare_version>  (79) 
48012

>  <i_f3d_flags>  (79) 
0

>  <s_epik_input>  (79) 
W0NIM11DKFtDSDJdMSk9W0NIXVtDSDJdW0NASF0oW0NAXTEyW0NASF0zW0NAXTQ1NilDKFtDSDNdKShbQ0gzXSlbQ0BIXShbQ0gyXS9bQ0hdPUM0XFtDSDNdKVtDQEBdKFtDSDNdKShbQ0gyXVtDSDJdMilbQ0BdMyhbQ0gzXSlDKD1PKVtDQEhdKFtPSF0pQyhbQ0gyXVtDSDJdNSk9QzZbQ0gzXQ==

>  <s_epik_cmdline>  (79) 
J2VwaWtfcHl0aG9uJywgJy1waHQnLCAnMi4wJywgJy1waCcsICc3LjAnLCAnLXRuJywgJzgnLCAnLW1hJywgJzIwMCcsICctaW1hZScsICc8aW5maWxlLm1hZT4nLCAnLW9tYWUnLCAnPG91dGZpbGUubWFlPic=

>  <r_lp_tautomer_probability>  (79) 
1

>  <r_epik_Ionization_Penalty>  (79) 
1.04504e-07

>  <r_epik_Ionization_Penalty_Charging>  (79) 
0

>  <r_epik_Ionization_Penalty_Neutral>  (79) 
1.04504e-07

>  <r_epik_State_Penalty>  (79) 
-0

>  <r_epik_Charging_Adjusted_Penalty>  (79) 
0

>  <i_epik_Tot_Q>  (79) 
0

>  <i_epik_Tot_abs_Q>  (79) 
0

>  <s_lp_Force_Field>  (79) 
OPLS3e

>  <r_lp_Energy>  (79) 
199.38

>  <b_lp_Chiralities_Consistent>  (79) 
1

>  <s_lp_Variant>  (79) 
27:0-2

>  <s_i_glide_gridfile>  (79) 
pfpi4k_grid

>  <i_i_glide_lignum>  (79) 
1

>  <i_i_glide_rotatable_bonds>  (79) 
1

>  <r_i_docking_score>  (79) 
-2.21797

>  <r_i_glide_ligand_efficiency>  (79) 
-0.0693114

>  <r_i_glide_ligand_efficiency_sa>  (79) 
-0.22005

>  <r_i_glide_ligand_efficiency_ln>  (79) 
-0.496663

>  <r_i_glide_gscore>  (79) 
-2.21797

>  <r_i_glide_lipo>  (79) 
-0.255252

>  <r_i_glide_hbond>  (79) 
0

>  <r_i_glide_metal>  (79) 
-0

>  <r_i_glide_rewards>  (79) 
-0.476837

>  <r_i_glide_evdw>  (79) 
-26.3058

>  <r_i_glide_ecoul>  (79) 
-1.13725

>  <r_i_glide_erotb>  (79) 
0

>  <r_i_glide_esite>  (79) 
0

>  <r_i_glide_emodel>  (79) 
-31.2575

>  <r_i_glide_energy>  (79) 
-27.443

>  <r_i_glide_einternal>  (79) 
0.000398465

>  <r_i_glide_intrahb_reward>  (79) 
-0

>  <i_i_glide_confnum>  (79) 
2

>  <i_i_glide_posenum>  (79) 
39

>  <r_i_glide_eff_state_penalty>  (79) 
0

>  <ligand_id>  (79) 
27

>  <original_smiles>  (79) 
CC1=CCC2C(C)(C)C3CC=C(C)C45CCC(=C4C)C(O)C(=O)C4(C)C5C2(CCC34C)C1

>  <smiles>  (79) 
[H]OC1([H])C(=O)C2(C([H])([H])[H])C3([H])C4(C(C([H])([H])[H])=C1C([H])([H])C4([H])[H])C(C([H])([H])[H])=C([H])C([H])([H])C1([H])C(C([H])([H])[H])(C([H])([H])[H])C4([H])C([H])([H])C([H])=C(C([H])([H])[H])C([H])([H])C34C([H])([H])C([H])([H])C12C([H])([H])[H]

$$$$
28:0:0
     RDKit          3D

 47 50  0  0  1  0  0  0  0  0999 V2000
    0.3688   -4.7958    4.7039 C   0  0  0  0  0  0  0  0  0  0  0  0
    1.0797   -5.4951    3.6591 N   0  0  0  0  0  0  0  0  0  0  0  0
    2.4352   -5.5020    3.4061 C   0  0  0  0  0  0  0  0  0  0  0  0
    2.6502   -6.2903    2.3355 C   0  0  0  0  0  0  0  0  0  0  0  0
    3.9428   -6.5705    1.6068 C   0  0  0  0  0  0  0  0  0  0  0  0
    4.6505   -5.3801    1.0736 N   0  0  0  0  0  0  0  0  0  0  0  0
    3.9779   -4.4144    0.3970 C   0  0  0  0  0  0  0  0  0  0  0  0
    2.7541   -4.3554    0.3504 O   0  0  0  0  0  0  0  0  0  0  0  0
    4.8029   -3.4355   -0.4842 C   0  0  2  0  0  0  0  0  0  0  0  0
    5.4083   -2.2681    0.3451 C   0  0  0  0  0  0  0  0  0  0  0  0
    4.7431   -0.9615   -0.1358 C   0  0  0  0  0  0  0  0  0  0  0  0
    3.6101   -1.3847   -1.0618 C   0  0  0  0  0  0  0  0  0  0  0  0
    4.0635   -2.7152   -1.6445 C   0  0  1  0  0  0  0  0  0  0  0  0
    4.9351   -2.5093   -2.9084 C   0  0  0  0  0  0  0  0  0  0  0  0
    4.2033   -3.0394   -4.0052 O   0  0  0  0  0  0  0  0  0  0  0  0
    2.8702   -3.0499   -3.6686 C   0  0  0  0  0  0  0  0  0  0  0  0
    2.9085   -3.4320   -2.1732 N   0  0  0  0  0  0  0  0  0  0  0  0
    5.9738   -5.1984    1.6291 C   0  0  0  0  0  0  0  0  0  0  0  0
    7.2184   -4.9172    0.7854 C   0  0  0  0  0  0  0  0  0  0  0  0
    7.0441   -6.2630    1.4209 C   0  0  0  0  0  0  0  0  0  0  0  0
    1.3399   -6.7533    1.9742 C   0  0  0  0  0  0  0  0  0  0  0  0
    0.4037   -6.2570    2.7682 N   0  0  0  0  0  0  0  0  0  0  0  0
    1.0767   -4.4100    5.4374 H   0  0  0  0  0  0  0  0  0  0  0  0
   -0.3175   -5.4781    5.2055 H   0  0  0  0  0  0  0  0  0  0  0  0
   -0.1821   -3.9509    4.2912 H   0  0  0  0  0  0  0  0  0  0  0  0
    3.1313   -4.9110    4.0009 H   0  0  0  0  0  0  0  0  0  0  0  0
    4.5934   -7.1301    2.2762 H   0  0  0  0  0  0  0  0  0  0  0  0
    3.7651   -7.2342    0.7657 H   0  0  0  0  0  0  0  0  0  0  0  0
    5.5246   -4.0349   -1.0154 H   0  0  0  0  0  0  0  0  0  0  0  0
    5.2410   -2.3934    1.4188 H   0  0  0  0  0  0  0  0  0  0  0  0
    6.4934   -2.2031    0.2146 H   0  0  0  0  0  0  0  0  0  0  0  0
    4.3526   -0.3645    0.6937 H   0  0  0  0  0  0  0  0  0  0  0  0
    5.4607   -0.3582   -0.6977 H   0  0  0  0  0  0  0  0  0  0  0  0
    2.7185   -1.5657   -0.4577 H   0  0  0  0  0  0  0  0  0  0  0  0
    3.3705   -0.6465   -1.8411 H   0  0  0  0  0  0  0  0  0  0  0  0
    5.0987   -1.4619   -3.1082 H   0  0  0  0  0  0  0  0  0  0  0  0
    5.9016   -2.9917   -2.8999 H   0  0  0  0  0  0  0  0  0  0  0  0
    2.4342   -2.0631   -3.7643 H   0  0  0  0  0  0  0  0  0  0  0  0
    2.3138   -3.7963   -4.2324 H   0  0  0  0  0  0  0  0  0  0  0  0
    3.0438   -4.4229   -2.0867 H   0  0  0  0  0  0  0  0  0  0  0  0
    5.9609   -4.7896    2.6305 H   0  0  0  0  0  0  0  0  0  0  0  0
    7.2507   -4.9921   -0.2910 H   0  0  0  0  0  0  0  0  0  0  0  0
    7.8985   -4.1946    1.2371 H   0  0  0  0  0  0  0  0  0  0  0  0
    7.7598   -6.5099    2.2031 H   0  0  0  0  0  0  0  0  0  0  0  0
    6.7907   -7.0711    0.7478 H   0  0  0  0  0  0  0  0  0  0  0  0
    1.0423   -7.3643    1.1378 H   0  0  0  0  0  0  0  0  0  0  0  0
    2.0709   -3.1466   -1.6704 H   0  0  0  0  0  0  0  0  0  0  0  0
  1  2  1  0
  1 23  1  0
  1 24  1  0
  1 25  1  0
  2 22  1  0
  2  3  1  0
  3  4  2  0
  3 26  1  0
  4  5  1  0
  4 21  1  0
  5  6  1  0
  5 27  1  0
  5 28  1  0
  6  7  1  0
  6 18  1  0
  7  8  2  0
  7  9  1  0
  9 13  1  0
  9 10  1  0
  9 29  1  6
 10 11  1  0
 10 30  1  0
 10 31  1  0
 11 12  1  0
 11 32  1  0
 11 33  1  0
 13 12  1  1
 12 34  1  0
 12 35  1  0
 13 17  1  0
 13 14  1  0
 14 15  1  0
 14 36  1  0
 14 37  1  0
 15 16  1  0
 16 17  1  0
 16 38  1  0
 16 39  1  0
 17 40  1  0
 17 47  1  0
 18 20  1  0
 18 19  1  0
 18 41  1  0
 19 20  1  0
 19 42  1  0
 19 43  1  0
 20 44  1  0
 20 45  1  0
 21 22  2  0
 21 46  1  0
M  CHG  1  17   1
M  END
>  <i_m_ct_stereo_status>  (80) 
1

>  <s_m_source_file>  (80) 
/var/tmp/pbs.5076255.sched01/tmp1pob34vh/39rbzpz6sd.sdf

>  <i_m_source_file_index>  (80) 
2

>  <i_lp_mmshare_version>  (80) 
48012

>  <i_f3d_flags>  (80) 
0

>  <s_epik_input>  (80) 
W0NIM11uMVtjSF1jKFtjSF1uMSlbQ0gyXU4oW0NIXTJbQ0gyXVtDSDJdMilDKD1PKVtDQEhdKFtDSDJdW0NIMl1bQ0gyXTMpW0NAXTM0W0NIMl1PW0NIMl1bTkhdNA==

>  <s_epik_cmdline>  (80) 
J2VwaWtfcHl0aG9uJywgJy1waHQnLCAnMi4wJywgJy1waCcsICc3LjAnLCAnLXRuJywgJzgnLCAnLW1hJywgJzIwMCcsICctaW1hZScsICc8aW5maWxlLm1hZT4nLCAnLW9tYWUnLCAnPG91dGZpbGUubWFlPic=

>  <r_lp_tautomer_probability>  (80) 
1

>  <r_epik_Ionization_Penalty>  (80) 
0.388706

>  <r_epik_Ionization_Penalty_Charging>  (80) 
0.388478

>  <r_epik_Ionization_Penalty_Neutral>  (80) 
0.000228141

>  <r_epik_State_Penalty>  (80) 
0.38702

>  <r_epik_Charging_Adjusted_Penalty>  (80) 
0.775497

>  <i_epik_Tot_Q>  (80) 
1

>  <i_epik_Tot_abs_Q>  (80) 
1

>  <s_epik_Chemistry_Notes>  (80) 
This compound contains an acetal/aminal-like group ( X-CH(R)-Y where X, Y are N, S, or O) that may be acid/base labile, releasing an aldehyde.

>  <s_lp_Force_Field>  (80) 
OPLS3e

>  <r_lp_Energy>  (80) 
26.5029

>  <b_lp_Chiralities_Consistent>  (80) 
1

>  <s_lp_Variant>  (80) 
28:0-1

>  <s_i_glide_gridfile>  (80) 
pfpi4k_grid

>  <i_i_glide_lignum>  (80) 
2

>  <i_i_glide_rotatable_bonds>  (80) 
5

>  <r_i_docking_score>  (80) 
-3.95473

>  <r_i_glide_ligand_efficiency>  (80) 
-0.17976

>  <r_i_glide_ligand_efficiency_sa>  (80) 
-0.503695

>  <r_i_glide_ligand_efficiency_ln>  (80) 
-0.966679

>  <r_i_glide_gscore>  (80) 
-3.95473

>  <r_i_glide_lipo>  (80) 
-0.523976

>  <r_i_glide_hbond>  (80) 
-0.21376

>  <r_i_glide_metal>  (80) 
-0

>  <r_i_glide_rewards>  (80) 
-1.72353

>  <r_i_glide_evdw>  (80) 
-21.6423

>  <r_i_glide_ecoul>  (80) 
-9.20276

>  <r_i_glide_erotb>  (80) 
0.989453

>  <r_i_glide_esite>  (80) 
-0.020381

>  <r_i_glide_emodel>  (80) 
-36.2682

>  <r_i_glide_energy>  (80) 
-30.8451

>  <r_i_glide_einternal>  (80) 
7.02151

>  <r_i_glide_intrahb_reward>  (80) 
-0

>  <i_i_glide_confnum>  (80) 
1

>  <i_i_glide_posenum>  (80) 
13

>  <r_i_glide_eff_state_penalty>  (80) 
0

>  <ligand_id>  (80) 
28

>  <original_smiles>  (80) 
Cn1cc(CN(C(=O)C2CCCC23COCN3)C2CC2)cn1

>  <smiles>  (80) 
[H]c1nn(C([H])([H])[H])c([H])c1C([H])([H])N(C(=O)C1([H])C([H])([H])C([H])([H])C([H])([H])C12C([H])([H])OC([H])([H])[N+]2([H])[H])C1([H])C([H])([H])C1([H])[H]

$$$$
28:0:1
     RDKit          3D

 47 50  0  0  1  0  0  0  0  0999 V2000
   -1.1626   -7.9142    2.3986 C   0  0  0  0  0  0  0  0  0  0  0  0
    0.0425   -7.1674    2.1258 N   0  0  0  0  0  0  0  0  0  0  0  0
    1.0911   -6.8506    2.9670 C   0  0  0  0  0  0  0  0  0  0  0  0
    2.0078   -6.1465    2.2367 C   0  0  0  0  0  0  0  0  0  0  0  0
    3.3108   -5.5202    2.6970 C   0  0  0  0  0  0  0  0  0  0  0  0
    4.1465   -4.9806    1.6113 N   0  0  0  0  0  0  0  0  0  0  0  0
    3.7644   -3.8525    0.9437 C   0  0  0  0  0  0  0  0  0  0  0  0
    2.6696   -3.3356    1.1327 O   0  0  0  0  0  0  0  0  0  0  0  0
    4.7266   -3.2184   -0.1114 C   0  0  2  0  0  0  0  0  0  0  0  0
    5.5754   -2.1151    0.5492 C   0  0  0  0  0  0  0  0  0  0  0  0
    5.1768   -0.7833   -0.1157 C   0  0  0  0  0  0  0  0  0  0  0  0
    3.9162   -1.0657   -0.9421 C   0  0  0  0  0  0  0  0  0  0  0  0
    4.0632   -2.5362   -1.3675 C   0  0  1  0  0  0  0  0  0  0  0  0
    4.8720   -2.7059   -2.6943 C   0  0  0  0  0  0  0  0  0  0  0  0
    3.9178   -3.1862   -3.6739 O   0  0  0  0  0  0  0  0  0  0  0  0
    2.6587   -2.8571   -3.2558 C   0  0  0  0  0  0  0  0  0  0  0  0
    2.7334   -3.0428   -1.7192 N   0  0  0  0  0  0  0  0  0  0  0  0
    5.4789   -5.5271    1.5818 C   0  0  0  0  0  0  0  0  0  0  0  0
    6.0684   -6.0243    0.2796 C   0  0  0  0  0  0  0  0  0  0  0  0
    5.6752   -7.0149    1.3310 C   0  0  0  0  0  0  0  0  0  0  0  0
    1.4222   -6.1368    0.9295 C   0  0  0  0  0  0  0  0  0  0  0  0
    0.2273   -6.6847    0.8845 N   0  0  0  0  0  0  0  0  0  0  0  0
   -1.0795   -8.4220    3.3584 H   0  0  0  0  0  0  0  0  0  0  0  0
   -1.3083   -8.6602    1.6138 H   0  0  0  0  0  0  0  0  0  0  0  0
   -2.0240   -7.2447    2.4193 H   0  0  0  0  0  0  0  0  0  0  0  0
    1.0893   -7.1469    4.0092 H   0  0  0  0  0  0  0  0  0  0  0  0
    3.1358   -4.7145    3.4146 H   0  0  0  0  0  0  0  0  0  0  0  0
    3.8854   -6.2526    3.2640 H   0  0  0  0  0  0  0  0  0  0  0  0
    5.4044   -3.9496   -0.5277 H   0  0  0  0  0  0  0  0  0  0  0  0
    5.4582   -2.0796    1.6393 H   0  0  0  0  0  0  0  0  0  0  0  0
    6.6316   -2.3411    0.3759 H   0  0  0  0  0  0  0  0  0  0  0  0
    4.9922   -0.0053    0.6309 H   0  0  0  0  0  0  0  0  0  0  0  0
    5.9905   -0.4543   -0.7724 H   0  0  0  0  0  0  0  0  0  0  0  0
    3.0237   -0.9198   -0.3066 H   0  0  0  0  0  0  0  0  0  0  0  0
    3.8295   -0.4060   -1.8130 H   0  0  0  0  0  0  0  0  0  0  0  0
    5.2499   -1.7458   -3.0210 H   0  0  0  0  0  0  0  0  0  0  0  0
    5.6824   -3.4242   -2.6216 H   0  0  0  0  0  0  0  0  0  0  0  0
    2.4823   -1.8155   -3.5057 H   0  0  0  0  0  0  0  0  0  0  0  0
    1.9566   -3.5189   -3.7616 H   0  0  0  0  0  0  0  0  0  0  0  0
    2.6557   -4.0190   -1.5065 H   0  0  0  0  0  0  0  0  0  0  0  0
    6.1871   -5.0904    2.2883 H   0  0  0  0  0  0  0  0  0  0  0  0
    5.4601   -6.0784   -0.6229 H   0  0  0  0  0  0  0  0  0  0  0  0
    7.1231   -5.7966    0.1326 H   0  0  0  0  0  0  0  0  0  0  0  0
    6.4877   -7.5538    1.8159 H   0  0  0  0  0  0  0  0  0  0  0  0
    4.8059   -7.6194    1.0941 H   0  0  0  0  0  0  0  0  0  0  0  0
    1.8000   -5.6812    0.0265 H   0  0  0  0  0  0  0  0  0  0  0  0
    1.9861   -2.5103   -1.2669 H   0  0  0  0  0  0  0  0  0  0  0  0
  1  2  1  0
  1 23  1  0
  1 24  1  0
  1 25  1  0
  2 22  1  0
  2  3  1  0
  3  4  2  0
  3 26  1  0
  4  5  1  0
  4 21  1  0
  5  6  1  0
  5 27  1  0
  5 28  1  0
  6  7  1  0
  6 18  1  0
  7  8  2  0
  7  9  1  0
  9 13  1  0
  9 10  1  0
  9 29  1  6
 10 11  1  0
 10 30  1  0
 10 31  1  0
 11 12  1  0
 11 32  1  0
 11 33  1  0
 13 12  1  1
 12 34  1  0
 12 35  1  0
 13 17  1  0
 13 14  1  0
 14 15  1  0
 14 36  1  0
 14 37  1  0
 15 16  1  0
 16 17  1  0
 16 38  1  0
 16 39  1  0
 17 40  1  0
 17 47  1  0
 18 20  1  0
 18 19  1  0
 18 41  1  0
 19 20  1  0
 19 42  1  0
 19 43  1  0
 20 44  1  0
 20 45  1  0
 21 22  2  0
 21 46  1  0
M  CHG  1  17   1
M  END
>  <i_m_ct_stereo_status>  (81) 
1

>  <s_m_source_file>  (81) 
/var/tmp/pbs.5076255.sched01/tmp1pob34vh/39rbzpz6sd.sdf

>  <i_m_source_file_index>  (81) 
2

>  <i_lp_mmshare_version>  (81) 
48012

>  <i_f3d_flags>  (81) 
0

>  <s_epik_input>  (81) 
W0NIM11uMVtjSF1jKFtjSF1uMSlbQ0gyXU4oW0NIXTJbQ0gyXVtDSDJdMilDKD1PKVtDQEhdKFtDSDJdW0NIMl1bQ0gyXTMpW0NAXTM0W0NIMl1PW0NIMl1bTkhdNA==

>  <s_epik_cmdline>  (81) 
J2VwaWtfcHl0aG9uJywgJy1waHQnLCAnMi4wJywgJy1waCcsICc3LjAnLCAnLXRuJywgJzgnLCAnLW1hJywgJzIwMCcsICctaW1hZScsICc8aW5maWxlLm1hZT4nLCAnLW9tYWUnLCAnPG91dGZpbGUubWFlPic=

>  <r_lp_tautomer_probability>  (81) 
1

>  <r_epik_Ionization_Penalty>  (81) 
0.388706

>  <r_epik_Ionization_Penalty_Charging>  (81) 
0.388478

>  <r_epik_Ionization_Penalty_Neutral>  (81) 
0.000228141

>  <r_epik_State_Penalty>  (81) 
0.38702

>  <r_epik_Charging_Adjusted_Penalty>  (81) 
0.775497

>  <i_epik_Tot_Q>  (81) 
1

>  <i_epik_Tot_abs_Q>  (81) 
1

>  <s_epik_Chemistry_Notes>  (81) 
This compound contains an acetal/aminal-like group ( X-CH(R)-Y where X, Y are N, S, or O) that may be acid/base labile, releasing an aldehyde.

>  <s_lp_Force_Field>  (81) 
OPLS3e

>  <r_lp_Energy>  (81) 
26.5029

>  <b_lp_Chiralities_Consistent>  (81) 
1

>  <s_lp_Variant>  (81) 
28:0-1

>  <s_i_glide_gridfile>  (81) 
pfpi4k_grid

>  <i_i_glide_lignum>  (81) 
2

>  <i_i_glide_rotatable_bonds>  (81) 
5

>  <r_i_docking_score>  (81) 
-3.73622

>  <r_i_glide_ligand_efficiency>  (81) 
-0.169828

>  <r_i_glide_ligand_efficiency_sa>  (81) 
-0.475866

>  <r_i_glide_ligand_efficiency_ln>  (81) 
-0.913269

>  <r_i_glide_gscore>  (81) 
-3.73622

>  <r_i_glide_lipo>  (81) 
-0.432084

>  <r_i_glide_hbond>  (81) 
-0.349905

>  <r_i_glide_metal>  (81) 
-0

>  <r_i_glide_rewards>  (81) 
-1.55182

>  <r_i_glide_evdw>  (81) 
-24.7789

>  <r_i_glide_ecoul>  (81) 
-7.13221

>  <r_i_glide_erotb>  (81) 
0.989453

>  <r_i_glide_esite>  (81) 
-0.0830906

>  <r_i_glide_emodel>  (81) 
-39.4242

>  <r_i_glide_energy>  (81) 
-31.9111

>  <r_i_glide_einternal>  (81) 
1.43661

>  <r_i_glide_intrahb_reward>  (81) 
-0

>  <i_i_glide_confnum>  (81) 
3

>  <i_i_glide_posenum>  (81) 
1

>  <r_i_glide_eff_state_penalty>  (81) 
0

>  <ligand_id>  (81) 
28

>  <original_smiles>  (81) 
Cn1cc(CN(C(=O)C2CCCC23COCN3)C2CC2)cn1

>  <smiles>  (81) 
[H]c1nn(C([H])([H])[H])c([H])c1C([H])([H])N(C(=O)C1([H])C([H])([H])C([H])([H])C([H])([H])C12C([H])([H])OC([H])([H])[N+]2([H])[H])C1([H])C([H])([H])C1([H])[H]

$$$$
28:0:2
     RDKit          3D

 47 50  0  0  1  0  0  0  0  0999 V2000
   -0.7532   -7.8797    1.8541 C   0  0  0  0  0  0  0  0  0  0  0  0
    0.4961   -7.1999    1.6257 N   0  0  0  0  0  0  0  0  0  0  0  0
    1.7123   -7.3263    2.2581 C   0  0  0  0  0  0  0  0  0  0  0  0
    2.5922   -6.4718    1.6576 C   0  0  0  0  0  0  0  0  0  0  0  0
    4.0319   -6.2158    2.0540 C   0  0  0  0  0  0  0  0  0  0  0  0
    4.8211   -5.2262    1.2699 N   0  0  0  0  0  0  0  0  0  0  0  0
    4.4206   -3.9478    1.0976 C   0  0  0  0  0  0  0  0  0  0  0  0
    3.3253   -3.5670    1.5253 O   0  0  0  0  0  0  0  0  0  0  0  0
    5.3116   -2.9039    0.3262 C   0  0  2  0  0  0  0  0  0  0  0  0
    5.5526   -1.6714    1.2393 C   0  0  0  0  0  0  0  0  0  0  0  0
    5.4417   -0.4462    0.3271 C   0  0  0  0  0  0  0  0  0  0  0  0
    5.4360   -0.9995   -1.1068 C   0  0  0  0  0  0  0  0  0  0  0  0
    4.7339   -2.3520   -1.0128 C   0  0  1  0  0  0  0  0  0  0  0  0
    4.9028   -3.2547   -2.2665 C   0  0  0  0  0  0  0  0  0  0  0  0
    3.6473   -3.3920   -2.8837 O   0  0  0  0  0  0  0  0  0  0  0  0
    2.8349   -2.3667   -2.4547 C   0  0  0  0  0  0  0  0  0  0  0  0
    3.2972   -2.1232   -0.9769 N   0  0  0  0  0  0  0  0  0  0  0  0
    6.0403   -5.7772    0.7548 C   0  0  0  0  0  0  0  0  0  0  0  0
    7.0464   -6.4660    1.6822 C   0  0  0  0  0  0  0  0  0  0  0  0
    7.3615   -5.1219    1.0830 C   0  0  0  0  0  0  0  0  0  0  0  0
    1.8081   -5.9115    0.5948 C   0  0  0  0  0  0  0  0  0  0  0  0
    0.5473   -6.2927    0.6331 N   0  0  0  0  0  0  0  0  0  0  0  0
   -0.5988   -8.7250    2.5250 H   0  0  0  0  0  0  0  0  0  0  0  0
   -1.1240   -8.2517    0.8977 H   0  0  0  0  0  0  0  0  0  0  0  0
   -1.4886   -7.1945    2.2808 H   0  0  0  0  0  0  0  0  0  0  0  0
    1.8296   -8.0146    3.0936 H   0  0  0  0  0  0  0  0  0  0  0  0
    4.0867   -5.8611    3.0879 H   0  0  0  0  0  0  0  0  0  0  0  0
    4.5290   -7.1898    2.0657 H   0  0  0  0  0  0  0  0  0  0  0  0
    6.2717   -3.2848   -0.0069 H   0  0  0  0  0  0  0  0  0  0  0  0
    4.8573   -1.5743    2.0867 H   0  0  0  0  0  0  0  0  0  0  0  0
    6.5450   -1.7869    1.6699 H   0  0  0  0  0  0  0  0  0  0  0  0
    4.4827    0.0404    0.4948 H   0  0  0  0  0  0  0  0  0  0  0  0
    6.2388    0.2750    0.5102 H   0  0  0  0  0  0  0  0  0  0  0  0
    4.9782   -0.3089   -1.8269 H   0  0  0  0  0  0  0  0  0  0  0  0
    6.4471   -1.2015   -1.4319 H   0  0  0  0  0  0  0  0  0  0  0  0
    5.5696   -2.7502   -2.9928 H   0  0  0  0  0  0  0  0  0  0  0  0
    5.3037   -4.2470   -1.9888 H   0  0  0  0  0  0  0  0  0  0  0  0
    3.0643   -1.5130   -3.0939 H   0  0  0  0  0  0  0  0  0  0  0  0
    1.8374   -2.7471   -2.5720 H   0  0  0  0  0  0  0  0  0  0  0  0
    2.8923   -2.8025   -0.3451 H   0  0  0  0  0  0  0  0  0  0  0  0
    5.9693   -6.2027   -0.2313 H   0  0  0  0  0  0  0  0  0  0  0  0
    6.8197   -6.5024    2.7474 H   0  0  0  0  0  0  0  0  0  0  0  0
    7.6216   -7.3332    1.3391 H   0  0  0  0  0  0  0  0  0  0  0  0
    8.1061   -5.0791    0.2878 H   0  0  0  0  0  0  0  0  0  0  0  0
    7.3823   -4.2912    1.8023 H   0  0  0  0  0  0  0  0  0  0  0  0
    2.0959   -5.2073   -0.1707 H   0  0  0  0  0  0  0  0  0  0  0  0
    3.0270   -1.1866   -0.6934 H   0  0  0  0  0  0  0  0  0  0  0  0
  1  2  1  0
  1 23  1  0
  1 24  1  0
  1 25  1  0
  2 22  1  0
  2  3  1  0
  3  4  2  0
  3 26  1  0
  4  5  1  0
  4 21  1  0
  5  6  1  0
  5 27  1  0
  5 28  1  0
  6  7  1  0
  6 18  1  0
  7  8  2  0
  7  9  1  0
  9 13  1  0
  9 10  1  0
  9 29  1  6
 10 11  1  0
 10 30  1  0
 10 31  1  0
 11 12  1  0
 11 32  1  0
 11 33  1  0
 13 12  1  6
 12 34  1  0
 12 35  1  0
 13 17  1  0
 13 14  1  0
 14 15  1  0
 14 36  1  0
 14 37  1  0
 15 16  1  0
 16 17  1  0
 16 38  1  0
 16 39  1  0
 17 40  1  0
 17 47  1  0
 18 20  1  0
 18 19  1  0
 18 41  1  0
 19 20  1  0
 19 42  1  0
 19 43  1  0
 20 44  1  0
 20 45  1  0
 21 22  2  0
 21 46  1  0
M  CHG  1  17   1
M  END
>  <i_m_ct_stereo_status>  (82) 
1

>  <s_m_source_file>  (82) 
/var/tmp/pbs.5076255.sched01/tmp1pob34vh/39rbzpz6sd.sdf

>  <i_m_source_file_index>  (82) 
2

>  <i_lp_mmshare_version>  (82) 
48012

>  <i_f3d_flags>  (82) 
0

>  <s_epik_input>  (82) 
W0NIM11uMVtjSF1jKFtjSF1uMSlbQ0gyXU4oW0NIXTJbQ0gyXVtDSDJdMilDKD1PKVtDQEhdKFtDSDJdW0NIMl1bQ0gyXTMpW0NAXTM0W0NIMl1PW0NIMl1bTkhdNA==

>  <s_epik_cmdline>  (82) 
J2VwaWtfcHl0aG9uJywgJy1waHQnLCAnMi4wJywgJy1waCcsICc3LjAnLCAnLXRuJywgJzgnLCAnLW1hJywgJzIwMCcsICctaW1hZScsICc8aW5maWxlLm1hZT4nLCAnLW9tYWUnLCAnPG91dGZpbGUubWFlPic=

>  <r_lp_tautomer_probability>  (82) 
1

>  <r_epik_Ionization_Penalty>  (82) 
0.388706

>  <r_epik_Ionization_Penalty_Charging>  (82) 
0.388478

>  <r_epik_Ionization_Penalty_Neutral>  (82) 
0.000228141

>  <r_epik_State_Penalty>  (82) 
0.38702

>  <r_epik_Charging_Adjusted_Penalty>  (82) 
0.775497

>  <i_epik_Tot_Q>  (82) 
1

>  <i_epik_Tot_abs_Q>  (82) 
1

>  <s_epik_Chemistry_Notes>  (82) 
This compound contains an acetal/aminal-like group ( X-CH(R)-Y where X, Y are N, S, or O) that may be acid/base labile, releasing an aldehyde.

>  <s_lp_Force_Field>  (82) 
OPLS3e

>  <r_lp_Energy>  (82) 
26.5029

>  <b_lp_Chiralities_Consistent>  (82) 
1

>  <s_lp_Variant>  (82) 
28:0-1

>  <s_i_glide_gridfile>  (82) 
pfpi4k_grid

>  <i_i_glide_lignum>  (82) 
2

>  <i_i_glide_rotatable_bonds>  (82) 
5

>  <r_i_docking_score>  (82) 
-3.63473

>  <r_i_glide_ligand_efficiency>  (82) 
-0.165215

>  <r_i_glide_ligand_efficiency_sa>  (82) 
-0.462939

>  <r_i_glide_ligand_efficiency_ln>  (82) 
-0.888461

>  <r_i_glide_gscore>  (82) 
-3.63473

>  <r_i_glide_lipo>  (82) 
-0.690096

>  <r_i_glide_hbond>  (82) 
-0.179552

>  <r_i_glide_metal>  (82) 
-0

>  <r_i_glide_rewards>  (82) 
-1.41779

>  <r_i_glide_evdw>  (82) 
-22.3462

>  <r_i_glide_ecoul>  (82) 
-6.69901

>  <r_i_glide_erotb>  (82) 
0.989453

>  <r_i_glide_esite>  (82) 
-0.214584

>  <r_i_glide_emodel>  (82) 
-35.2131

>  <r_i_glide_energy>  (82) 
-29.0452

>  <r_i_glide_einternal>  (82) 
3.68123

>  <r_i_glide_intrahb_reward>  (82) 
-0

>  <i_i_glide_confnum>  (82) 
4

>  <i_i_glide_posenum>  (82) 
28

>  <r_i_glide_eff_state_penalty>  (82) 
0

>  <ligand_id>  (82) 
28

>  <original_smiles>  (82) 
Cn1cc(CN(C(=O)C2CCCC23COCN3)C2CC2)cn1

>  <smiles>  (82) 
[H]c1nn(C([H])([H])[H])c([H])c1C([H])([H])N(C(=O)C1([H])C([H])([H])C([H])([H])C([H])([H])C12C([H])([H])OC([H])([H])[N+]2([H])[H])C1([H])C([H])([H])C1([H])[H]

$$$$
28:1:0
     RDKit          3D

 46 49  0  0  1  0  0  0  0  0999 V2000
    0.1852   -6.0215    4.3875 C   0  0  0  0  0  0  0  0  0  0  0  0
    0.9518   -6.2847    3.1907 N   0  0  0  0  0  0  0  0  0  0  0  0
    2.3179   -6.4231    3.0572 C   0  0  0  0  0  0  0  0  0  0  0  0
    2.5834   -6.6397    1.7422 C   0  0  0  0  0  0  0  0  0  0  0  0
    3.9231   -6.6629    1.0262 C   0  0  0  0  0  0  0  0  0  0  0  0
    4.5576   -5.3278    0.7806 N   0  0  0  0  0  0  0  0  0  0  0  0
    3.8283   -4.1891    0.6173 C   0  0  0  0  0  0  0  0  0  0  0  0
    2.6165   -4.1401    0.8156 O   0  0  0  0  0  0  0  0  0  0  0  0
    4.4648   -2.8485    0.2136 C   0  0  2  0  0  0  0  0  0  0  0  0
    4.0718   -1.7087    1.1818 C   0  0  0  0  0  0  0  0  0  0  0  0
    3.7676   -0.4915    0.3014 C   0  0  0  0  0  0  0  0  0  0  0  0
    4.2745   -0.8386   -1.0954 C   0  0  0  0  0  0  0  0  0  0  0  0
    4.1597   -2.3569   -1.1974 C   0  0  1  0  0  0  0  0  0  0  0  0
    5.1050   -2.8747   -2.3233 C   0  0  0  0  0  0  0  0  0  0  0  0
    4.2719   -3.4903   -3.2888 O   0  0  0  0  0  0  0  0  0  0  0  0
    3.0113   -2.9023   -3.0734 C   0  0  0  0  0  0  0  0  0  0  0  0
    2.8530   -2.7569   -1.6789 N   0  0  0  0  0  0  0  0  0  0  0  0
    5.9853   -5.4662    0.5694 C   0  0  0  0  0  0  0  0  0  0  0  0
    6.8996   -5.5562    1.7868 C   0  0  0  0  0  0  0  0  0  0  0  0
    7.0397   -4.3942    0.8737 C   0  0  0  0  0  0  0  0  0  0  0  0
    1.2807   -6.6493    1.1393 C   0  0  0  0  0  0  0  0  0  0  0  0
    0.3150   -6.3929    2.0046 N   0  0  0  0  0  0  0  0  0  0  0  0
    0.8154   -6.1621    5.2646 H   0  0  0  0  0  0  0  0  0  0  0  0
   -0.6536   -6.7173    4.4429 H   0  0  0  0  0  0  0  0  0  0  0  0
   -0.1895   -4.9970    4.3806 H   0  0  0  0  0  0  0  0  0  0  0  0
    2.9810   -6.2879    3.9000 H   0  0  0  0  0  0  0  0  0  0  0  0
    4.6200   -7.2784    1.6091 H   0  0  0  0  0  0  0  0  0  0  0  0
    3.8438   -7.1995    0.0780 H   0  0  0  0  0  0  0  0  0  0  0  0
    5.5487   -2.8568    0.1493 H   0  0  0  0  0  0  0  0  0  0  0  0
    3.2104   -1.9313    1.8101 H   0  0  0  0  0  0  0  0  0  0  0  0
    4.9040   -1.5116    1.8577 H   0  0  0  0  0  0  0  0  0  0  0  0
    2.6834   -0.3493    0.2605 H   0  0  0  0  0  0  0  0  0  0  0  0
    4.2299    0.4273    0.6722 H   0  0  0  0  0  0  0  0  0  0  0  0
    3.7559   -0.3319   -1.9116 H   0  0  0  0  0  0  0  0  0  0  0  0
    5.3297   -0.5644   -1.1463 H   0  0  0  0  0  0  0  0  0  0  0  0
    5.6042   -2.0257   -2.7862 H   0  0  0  0  0  0  0  0  0  0  0  0
    5.8871   -3.5343   -1.9614 H   0  0  0  0  0  0  0  0  0  0  0  0
    3.0022   -1.9103   -3.5834 H   0  0  0  0  0  0  0  0  0  0  0  0
    2.2260   -3.5538   -3.5033 H   0  0  0  0  0  0  0  0  0  0  0  0
    2.1082   -2.0861   -1.3775 H   0  0  0  0  0  0  0  0  0  0  0  0
    6.2651   -6.1619   -0.2139 H   0  0  0  0  0  0  0  0  0  0  0  0
    6.4529   -5.3281    2.7518 H   0  0  0  0  0  0  0  0  0  0  0  0
    7.7541   -6.2279    1.8077 H   0  0  0  0  0  0  0  0  0  0  0  0
    7.8709   -4.3332    0.1722 H   0  0  0  0  0  0  0  0  0  0  0  0
    6.8110   -3.4576    1.3954 H   0  0  0  0  0  0  0  0  0  0  0  0
    1.0458   -6.6775    0.0910 H   0  0  0  0  0  0  0  0  0  0  0  0
  1  2  1  0
  1 23  1  0
  1 24  1  0
  1 25  1  0
  2 22  1  0
  2  3  1  0
  3  4  2  0
  3 26  1  0
  4  5  1  0
  4 21  1  0
  5  6  1  0
  5 27  1  0
  5 28  1  0
  6  7  1  0
  6 18  1  0
  7  8  2  0
  7  9  1  0
  9 13  1  0
  9 10  1  0
  9 29  1  6
 10 11  1  0
 10 30  1  0
 10 31  1  0
 11 12  1  0
 11 32  1  0
 11 33  1  0
 12 13  1  0
 12 34  1  0
 12 35  1  0
 13 17  1  6
 13 14  1  0
 14 15  1  0
 14 36  1  0
 14 37  1  0
 15 16  1  0
 16 17  1  0
 16 38  1  0
 16 39  1  0
 17 40  1  0
 18 20  1  0
 18 19  1  0
 18 41  1  0
 19 20  1  0
 19 42  1  0
 19 43  1  0
 20 44  1  0
 20 45  1  0
 21 22  2  0
 21 46  1  0
M  END
>  <i_m_ct_stereo_status>  (83) 
1

>  <s_m_source_file>  (83) 
/var/tmp/pbs.5076255.sched01/tmp1pob34vh/39rbzpz6sd.sdf

>  <i_m_source_file_index>  (83) 
3

>  <i_lp_mmshare_version>  (83) 
48012

>  <i_f3d_flags>  (83) 
0

>  <s_epik_input>  (83) 
W0NIM11uMVtjSF1jKFtjSF1uMSlbQ0gyXU4oW0NIXTJbQ0gyXVtDSDJdMilDKD1PKVtDQEhdKFtDSDJdW0NIMl1bQ0gyXTMpW0NAXTM0W0NIMl1PW0NIMl1bTkhdNA==

>  <s_epik_cmdline>  (83) 
J2VwaWtfcHl0aG9uJywgJy1waHQnLCAnMi4wJywgJy1waCcsICc3LjAnLCAnLXRuJywgJzgnLCAnLW1hJywgJzIwMCcsICctaW1hZScsICc8aW5maWxlLm1hZT4nLCAnLW9tYWUnLCAnPG91dGZpbGUubWFlPic=

>  <r_lp_tautomer_probability>  (83) 
1

>  <r_epik_Ionization_Penalty>  (83) 
0.434082

>  <r_epik_Ionization_Penalty_Charging>  (83) 
0

>  <r_epik_Ionization_Penalty_Neutral>  (83) 
0.434082

>  <r_epik_State_Penalty>  (83) 
0.435324

>  <r_epik_Charging_Adjusted_Penalty>  (83) 
0.435324

>  <i_epik_Tot_Q>  (83) 
0

>  <i_epik_Tot_abs_Q>  (83) 
0

>  <s_epik_Chemistry_Notes>  (83) 
This compound contains an acetal/aminal-like group ( X-CH(R)-Y where X, Y are N, S, or O) that may be acid/base labile, releasing an aldehyde.

>  <s_lp_Force_Field>  (83) 
OPLS3e

>  <r_lp_Energy>  (83) 
29.3168

>  <b_lp_Chiralities_Consistent>  (83) 
1

>  <s_lp_Variant>  (83) 
28:0-2

>  <s_i_glide_gridfile>  (83) 
pfpi4k_grid

>  <i_i_glide_lignum>  (83) 
3

>  <i_i_glide_rotatable_bonds>  (83) 
5

>  <r_i_docking_score>  (83) 
-3.06355

>  <r_i_glide_ligand_efficiency>  (83) 
-0.139252

>  <r_i_glide_ligand_efficiency_sa>  (83) 
-0.39019

>  <r_i_glide_ligand_efficiency_ln>  (83) 
-0.748843

>  <r_i_glide_gscore>  (83) 
-3.06355

>  <r_i_glide_lipo>  (83) 
-0.547356

>  <r_i_glide_hbond>  (83) 
-0.337067

>  <r_i_glide_metal>  (83) 
-0

>  <r_i_glide_rewards>  (83) 
-1.48385

>  <r_i_glide_evdw>  (83) 
-22.8163

>  <r_i_glide_ecoul>  (83) 
-3.43046

>  <r_i_glide_erotb>  (83) 
0.995204

>  <r_i_glide_esite>  (83) 
-0.0350951

>  <r_i_glide_emodel>  (83) 
-27.8184

>  <r_i_glide_energy>  (83) 
-26.2467

>  <r_i_glide_einternal>  (83) 
3.19466

>  <r_i_glide_intrahb_reward>  (83) 
-0

>  <i_i_glide_confnum>  (83) 
2

>  <i_i_glide_posenum>  (83) 
33

>  <r_i_glide_eff_state_penalty>  (83) 
0

>  <ligand_id>  (83) 
28

>  <original_smiles>  (83) 
Cn1cc(CN(C(=O)C2CCCC23COCN3)C2CC2)cn1

>  <smiles>  (83) 
[H]c1nn(C([H])([H])[H])c([H])c1C([H])([H])N(C(=O)C1([H])C([H])([H])C([H])([H])C([H])([H])C12N([H])C([H])([H])OC2([H])[H])C1([H])C([H])([H])C1([H])[H]

$$$$
28:1:1
     RDKit          3D

 46 49  0  0  1  0  0  0  0  0999 V2000
    5.8025  -11.0935    2.6438 C   0  0  0  0  0  0  0  0  0  0  0  0
    5.6196   -9.7536    2.1886 N   0  0  0  0  0  0  0  0  0  0  0  0
    4.6294   -9.2028    1.3894 C   0  0  0  0  0  0  0  0  0  0  0  0
    4.9347   -7.8781    1.2331 C   0  0  0  0  0  0  0  0  0  0  0  0
    4.2347   -6.8173    0.3778 C   0  0  0  0  0  0  0  0  0  0  0  0
    4.8146   -5.4312    0.4450 N   0  0  0  0  0  0  0  0  0  0  0  0
    3.9657   -4.3702    0.5177 C   0  0  0  0  0  0  0  0  0  0  0  0
    2.7541   -4.5044    0.6653 O   0  0  0  0  0  0  0  0  0  0  0  0
    4.4868   -2.9266    0.3876 C   0  0  2  0  0  0  0  0  0  0  0  0
    3.9267   -1.9329    1.4169 C   0  0  0  0  0  0  0  0  0  0  0  0
    3.6573   -0.6358    0.6479 C   0  0  0  0  0  0  0  0  0  0  0  0
    4.3439   -0.7934   -0.7062 C   0  0  0  0  0  0  0  0  0  0  0  0
    4.3550   -2.2863   -1.0072 C   0  0  1  0  0  0  0  0  0  0  0  0
    5.4003   -2.5282   -2.1493 C   0  0  0  0  0  0  0  0  0  0  0  0
    4.7080   -3.0653   -3.2369 O   0  0  0  0  0  0  0  0  0  0  0  0
    3.4049   -2.6267   -3.0527 C   0  0  0  0  0  0  0  0  0  0  0  0
    3.1238   -2.6718   -1.6611 N   0  0  0  0  0  0  0  0  0  0  0  0
    6.2748   -5.4381    0.4436 C   0  0  0  0  0  0  0  0  0  0  0  0
    7.0072   -4.6419    1.5722 C   0  0  0  0  0  0  0  0  0  0  0  0
    7.2899   -4.3790    0.1413 C   0  0  0  0  0  0  0  0  0  0  0  0
    6.0867   -7.7560    2.0766 C   0  0  0  0  0  0  0  0  0  0  0  0
    6.5330   -8.8640    2.5776 N   0  0  0  0  0  0  0  0  0  0  0  0
    4.8887  -11.6613    2.4855 H   0  0  0  0  0  0  0  0  0  0  0  0
    6.0426  -11.0707    3.7180 H   0  0  0  0  0  0  0  0  0  0  0  0
    6.6444  -11.5419    2.1011 H   0  0  0  0  0  0  0  0  0  0  0  0
    3.8370   -9.8174    1.0006 H   0  0  0  0  0  0  0  0  0  0  0  0
    4.2567   -7.0995   -0.6805 H   0  0  0  0  0  0  0  0  0  0  0  0
    3.1681   -6.8301    0.5932 H   0  0  0  0  0  0  0  0  0  0  0  0
    5.5108   -2.8272    0.6960 H   0  0  0  0  0  0  0  0  0  0  0  0
    3.0369   -2.3050    1.9113 H   0  0  0  0  0  0  0  0  0  0  0  0
    4.6784   -1.7528    2.2008 H   0  0  0  0  0  0  0  0  0  0  0  0
    2.5845   -0.5472    0.4915 H   0  0  0  0  0  0  0  0  0  0  0  0
    4.0157    0.2532    1.1697 H   0  0  0  0  0  0  0  0  0  0  0  0
    3.8516   -0.2092   -1.5264 H   0  0  0  0  0  0  0  0  0  0  0  0
    5.3650   -0.4170   -0.6255 H   0  0  0  0  0  0  0  0  0  0  0  0
    5.8662   -1.5902   -2.4054 H   0  0  0  0  0  0  0  0  0  0  0  0
    6.2002   -3.2289   -1.9671 H   0  0  0  0  0  0  0  0  0  0  0  0
    3.3776   -1.5882   -3.4342 H   0  0  0  0  0  0  0  0  0  0  0  0
    2.7230   -3.2620   -3.6432 H   0  0  0  0  0  0  0  0  0  0  0  0
    2.3222   -2.0978   -1.3324 H   0  0  0  0  0  0  0  0  0  0  0  0
    6.7133   -6.3604    0.1493 H   0  0  0  0  0  0  0  0  0  0  0  0
    6.4020   -3.9389    2.1645 H   0  0  0  0  0  0  0  0  0  0  0  0
    7.8080   -5.0894    2.1404 H   0  0  0  0  0  0  0  0  0  0  0  0
    8.1994   -4.7498   -0.2791 H   0  0  0  0  0  0  0  0  0  0  0  0
    7.0470   -3.4138   -0.2572 H   0  0  0  0  0  0  0  0  0  0  0  0
    6.7065   -6.9111    2.3099 H   0  0  0  0  0  0  0  0  0  0  0  0
  1  2  1  0
  1 23  1  0
  1 24  1  0
  1 25  1  0
  2 22  1  0
  2  3  1  0
  3  4  2  0
  3 26  1  0
  4  5  1  0
  4 21  1  0
  5  6  1  0
  5 27  1  0
  5 28  1  0
  6  7  1  0
  6 18  1  0
  7  8  2  0
  7  9  1  0
  9 13  1  0
  9 10  1  0
  9 29  1  1
 10 11  1  0
 10 30  1  0
 10 31  1  0
 11 12  1  0
 11 32  1  0
 11 33  1  0
 12 13  1  0
 12 34  1  0
 12 35  1  0
 13 17  1  6
 13 14  1  0
 14 15  1  0
 14 36  1  0
 14 37  1  0
 15 16  1  0
 16 17  1  0
 16 38  1  0
 16 39  1  0
 17 40  1  0
 18 20  1  0
 18 19  1  0
 18 41  1  0
 19 20  1  0
 19 42  1  0
 19 43  1  0
 20 44  1  0
 20 45  1  0
 21 22  2  0
 21 46  1  0
M  END
>  <i_m_ct_stereo_status>  (84) 
1

>  <s_m_source_file>  (84) 
/var/tmp/pbs.5076255.sched01/tmp1pob34vh/39rbzpz6sd.sdf

>  <i_m_source_file_index>  (84) 
3

>  <i_lp_mmshare_version>  (84) 
48012

>  <i_f3d_flags>  (84) 
0

>  <s_epik_input>  (84) 
W0NIM11uMVtjSF1jKFtjSF1uMSlbQ0gyXU4oW0NIXTJbQ0gyXVtDSDJdMilDKD1PKVtDQEhdKFtDSDJdW0NIMl1bQ0gyXTMpW0NAXTM0W0NIMl1PW0NIMl1bTkhdNA==

>  <s_epik_cmdline>  (84) 
J2VwaWtfcHl0aG9uJywgJy1waHQnLCAnMi4wJywgJy1waCcsICc3LjAnLCAnLXRuJywgJzgnLCAnLW1hJywgJzIwMCcsICctaW1hZScsICc8aW5maWxlLm1hZT4nLCAnLW9tYWUnLCAnPG91dGZpbGUubWFlPic=

>  <r_lp_tautomer_probability>  (84) 
1

>  <r_epik_Ionization_Penalty>  (84) 
0.434082

>  <r_epik_Ionization_Penalty_Charging>  (84) 
0

>  <r_epik_Ionization_Penalty_Neutral>  (84) 
0.434082

>  <r_epik_State_Penalty>  (84) 
0.435324

>  <r_epik_Charging_Adjusted_Penalty>  (84) 
0.435324

>  <i_epik_Tot_Q>  (84) 
0

>  <i_epik_Tot_abs_Q>  (84) 
0

>  <s_epik_Chemistry_Notes>  (84) 
This compound contains an acetal/aminal-like group ( X-CH(R)-Y where X, Y are N, S, or O) that may be acid/base labile, releasing an aldehyde.

>  <s_lp_Force_Field>  (84) 
OPLS3e

>  <r_lp_Energy>  (84) 
29.3168

>  <b_lp_Chiralities_Consistent>  (84) 
1

>  <s_lp_Variant>  (84) 
28:0-2

>  <s_i_glide_gridfile>  (84) 
pfpi4k_grid

>  <i_i_glide_lignum>  (84) 
3

>  <i_i_glide_rotatable_bonds>  (84) 
5

>  <r_i_docking_score>  (84) 
-2.74235

>  <r_i_glide_ligand_efficiency>  (84) 
-0.124652

>  <r_i_glide_ligand_efficiency_sa>  (84) 
-0.34928

>  <r_i_glide_ligand_efficiency_ln>  (84) 
-0.67033

>  <r_i_glide_gscore>  (84) 
-2.74235

>  <r_i_glide_lipo>  (84) 
-0.653733

>  <r_i_glide_hbond>  (84) 
-0.16

>  <r_i_glide_metal>  (84) 
-0

>  <r_i_glide_rewards>  (84) 
-1.55248

>  <r_i_glide_evdw>  (84) 
-23.4934

>  <r_i_glide_ecoul>  (84) 
-2.62937

>  <r_i_glide_erotb>  (84) 
0.995204

>  <r_i_glide_esite>  (84) 
-0.034049

>  <r_i_glide_emodel>  (84) 
-25.2982

>  <r_i_glide_energy>  (84) 
-26.1227

>  <r_i_glide_einternal>  (84) 
3.49497

>  <r_i_glide_intrahb_reward>  (84) 
-0

>  <i_i_glide_confnum>  (84) 
4

>  <i_i_glide_posenum>  (84) 
34

>  <r_i_glide_eff_state_penalty>  (84) 
0

>  <ligand_id>  (84) 
28

>  <original_smiles>  (84) 
Cn1cc(CN(C(=O)C2CCCC23COCN3)C2CC2)cn1

>  <smiles>  (84) 
[H]c1nn(C([H])([H])[H])c([H])c1C([H])([H])N(C(=O)C1([H])C([H])([H])C([H])([H])C([H])([H])C12N([H])C([H])([H])OC2([H])[H])C1([H])C([H])([H])C1([H])[H]

$$$$
28:1:2
     RDKit          3D

 46 49  0  0  1  0  0  0  0  0999 V2000
    0.3106   -5.5711    4.8591 C   0  0  0  0  0  0  0  0  0  0  0  0
    0.7989   -5.9906    3.5732 N   0  0  0  0  0  0  0  0  0  0  0  0
    2.0351   -5.7866    2.9959 C   0  0  0  0  0  0  0  0  0  0  0  0
    2.0343   -6.3162    1.7819 C   0  0  0  0  0  0  0  0  0  0  0  0
    3.1318   -6.2864    0.7239 C   0  0  0  0  0  0  0  0  0  0  0  0
    4.1242   -5.2265    0.9650 N   0  0  0  0  0  0  0  0  0  0  0  0
    3.7608   -3.9213    0.8768 C   0  0  0  0  0  0  0  0  0  0  0  0
    2.5800   -3.6340    0.6879 O   0  0  0  0  0  0  0  0  0  0  0  0
    4.7681   -2.7637    0.9692 C   0  0  2  0  0  0  0  0  0  0  0  0
    4.2301   -1.5187    1.7338 C   0  0  0  0  0  0  0  0  0  0  0  0
    4.6957   -0.2937    0.9383 C   0  0  0  0  0  0  0  0  0  0  0  0
    5.7102   -0.8061   -0.0896 C   0  0  0  0  0  0  0  0  0  0  0  0
    5.3158   -2.2466   -0.3888 C   0  0  1  0  0  0  0  0  0  0  0  0
    6.5452   -2.9960   -0.9973 C   0  0  0  0  0  0  0  0  0  0  0  0
    6.2075   -3.3261   -2.3350 O   0  0  0  0  0  0  0  0  0  0  0  0
    4.8161   -3.3907   -2.2854 C   0  0  0  0  0  0  0  0  0  0  0  0
    4.3578   -2.3037   -1.4717 N   0  0  0  0  0  0  0  0  0  0  0  0
    5.4604   -5.7293    1.0880 C   0  0  0  0  0  0  0  0  0  0  0  0
    5.8578   -6.3755    2.4103 C   0  0  0  0  0  0  0  0  0  0  0  0
    6.5489   -5.1457    1.9830 C   0  0  0  0  0  0  0  0  0  0  0  0
    0.7168   -6.8906    1.6458 C   0  0  0  0  0  0  0  0  0  0  0  0
   -0.0199   -6.6497    2.7212 N   0  0  0  0  0  0  0  0  0  0  0  0
    1.1380   -5.2258    5.4779 H   0  0  0  0  0  0  0  0  0  0  0  0
   -0.1830   -6.4027    5.3640 H   0  0  0  0  0  0  0  0  0  0  0  0
   -0.3942   -4.7480    4.7411 H   0  0  0  0  0  0  0  0  0  0  0  0
    2.8060   -5.2304    3.5437 H   0  0  0  0  0  0  0  0  0  0  0  0
    3.6111   -7.2648    0.6837 H   0  0  0  0  0  0  0  0  0  0  0  0
    2.7055   -6.1466   -0.2677 H   0  0  0  0  0  0  0  0  0  0  0  0
    5.6643   -2.9597    1.4797 H   0  0  0  0  0  0  0  0  0  0  0  0
    3.1651   -1.4832    1.8840 H   0  0  0  0  0  0  0  0  0  0  0  0
    4.6904   -1.5292    2.7236 H   0  0  0  0  0  0  0  0  0  0  0  0
    3.8378    0.1393    0.4149 H   0  0  0  0  0  0  0  0  0  0  0  0
    5.1355    0.4768    1.5827 H   0  0  0  0  0  0  0  0  0  0  0  0
    5.7604   -0.2417   -1.0085 H   0  0  0  0  0  0  0  0  0  0  0  0
    6.6899   -0.7740    0.4007 H   0  0  0  0  0  0  0  0  0  0  0  0
    7.4366   -2.3688   -1.0315 H   0  0  0  0  0  0  0  0  0  0  0  0
    6.7974   -3.8794   -0.4222 H   0  0  0  0  0  0  0  0  0  0  0  0
    4.3623   -3.3289   -3.2939 H   0  0  0  0  0  0  0  0  0  0  0  0
    4.5239   -4.3616   -1.8306 H   0  0  0  0  0  0  0  0  0  0  0  0
    3.4434   -2.5320   -1.0848 H   0  0  0  0  0  0  0  0  0  0  0  0
    5.8061   -6.2721    0.2152 H   0  0  0  0  0  0  0  0  0  0  0  0
    5.1656   -6.2429    3.2359 H   0  0  0  0  0  0  0  0  0  0  0  0
    6.4641   -7.2751    2.4384 H   0  0  0  0  0  0  0  0  0  0  0  0
    7.5509   -5.1964    1.5716 H   0  0  0  0  0  0  0  0  0  0  0  0
    6.4004   -4.3862    2.7312 H   0  0  0  0  0  0  0  0  0  0  0  0
    0.2918   -7.4013    0.8038 H   0  0  0  0  0  0  0  0  0  0  0  0
  1  2  1  0
  1 23  1  0
  1 24  1  0
  1 25  1  0
  2 22  1  0
  2  3  1  0
  3  4  2  0
  3 26  1  0
  4  5  1  0
  4 21  1  0
  5  6  1  0
  5 27  1  0
  5 28  1  0
  6  7  1  0
  6 18  1  0
  7  8  2  0
  7  9  1  0
  9 13  1  0
  9 10  1  0
  9 29  1  1
 10 11  1  0
 10 30  1  0
 10 31  1  0
 11 12  1  0
 11 32  1  0
 11 33  1  0
 12 13  1  0
 12 34  1  0
 12 35  1  0
 13 17  1  6
 13 14  1  0
 14 15  1  0
 14 36  1  0
 14 37  1  0
 15 16  1  0
 16 17  1  0
 16 38  1  0
 16 39  1  0
 17 40  1  0
 18 20  1  0
 18 19  1  0
 18 41  1  0
 19 20  1  0
 19 42  1  0
 19 43  1  0
 20 44  1  0
 20 45  1  0
 21 22  2  0
 21 46  1  0
M  END
>  <i_m_ct_stereo_status>  (85) 
1

>  <s_m_source_file>  (85) 
/var/tmp/pbs.5076255.sched01/tmp1pob34vh/39rbzpz6sd.sdf

>  <i_m_source_file_index>  (85) 
3

>  <i_lp_mmshare_version>  (85) 
48012

>  <i_f3d_flags>  (85) 
0

>  <s_epik_input>  (85) 
W0NIM11uMVtjSF1jKFtjSF1uMSlbQ0gyXU4oW0NIXTJbQ0gyXVtDSDJdMilDKD1PKVtDQEhdKFtDSDJdW0NIMl1bQ0gyXTMpW0NAXTM0W0NIMl1PW0NIMl1bTkhdNA==

>  <s_epik_cmdline>  (85) 
J2VwaWtfcHl0aG9uJywgJy1waHQnLCAnMi4wJywgJy1waCcsICc3LjAnLCAnLXRuJywgJzgnLCAnLW1hJywgJzIwMCcsICctaW1hZScsICc8aW5maWxlLm1hZT4nLCAnLW9tYWUnLCAnPG91dGZpbGUubWFlPic=

>  <r_lp_tautomer_probability>  (85) 
1

>  <r_epik_Ionization_Penalty>  (85) 
0.434082

>  <r_epik_Ionization_Penalty_Charging>  (85) 
0

>  <r_epik_Ionization_Penalty_Neutral>  (85) 
0.434082

>  <r_epik_State_Penalty>  (85) 
0.435324

>  <r_epik_Charging_Adjusted_Penalty>  (85) 
0.435324

>  <i_epik_Tot_Q>  (85) 
0

>  <i_epik_Tot_abs_Q>  (85) 
0

>  <s_epik_Chemistry_Notes>  (85) 
This compound contains an acetal/aminal-like group ( X-CH(R)-Y where X, Y are N, S, or O) that may be acid/base labile, releasing an aldehyde.

>  <s_lp_Force_Field>  (85) 
OPLS3e

>  <r_lp_Energy>  (85) 
29.3168

>  <b_lp_Chiralities_Consistent>  (85) 
1

>  <s_lp_Variant>  (85) 
28:0-2

>  <s_i_glide_gridfile>  (85) 
pfpi4k_grid

>  <i_i_glide_lignum>  (85) 
3

>  <i_i_glide_rotatable_bonds>  (85) 
5

>  <r_i_docking_score>  (85) 
-2.38803

>  <r_i_glide_ligand_efficiency>  (85) 
-0.108547

>  <r_i_glide_ligand_efficiency_sa>  (85) 
-0.304153

>  <r_i_glide_ligand_efficiency_ln>  (85) 
-0.583723

>  <r_i_glide_gscore>  (85) 
-2.38803

>  <r_i_glide_lipo>  (85) 
-0.350925

>  <r_i_glide_hbond>  (85) 
-0.140928

>  <r_i_glide_metal>  (85) 
-0

>  <r_i_glide_rewards>  (85) 
-1.49168

>  <r_i_glide_evdw>  (85) 
-22.1443

>  <r_i_glide_ecoul>  (85) 
-1.73763

>  <r_i_glide_erotb>  (85) 
0.995204

>  <r_i_glide_esite>  (85) 
-0.031844

>  <r_i_glide_emodel>  (85) 
-26.54

>  <r_i_glide_energy>  (85) 
-23.882

>  <r_i_glide_einternal>  (85) 
0.943132

>  <r_i_glide_intrahb_reward>  (85) 
-0

>  <i_i_glide_confnum>  (85) 
1

>  <i_i_glide_posenum>  (85) 
36

>  <r_i_glide_eff_state_penalty>  (85) 
0

>  <ligand_id>  (85) 
28

>  <original_smiles>  (85) 
Cn1cc(CN(C(=O)C2CCCC23COCN3)C2CC2)cn1

>  <smiles>  (85) 
[H]c1nn(C([H])([H])[H])c([H])c1C([H])([H])N(C(=O)C1([H])C([H])([H])C([H])([H])C([H])([H])C12N([H])C([H])([H])OC2([H])[H])C1([H])C([H])([H])C1([H])[H]

$$$$
30:0:0
     RDKit          3D

 66 70  0  0  1  0  0  0  0  0999 V2000
    0.0778   -6.6267    5.4680 C   0  0  0  0  0  0  0  0  0  0  0  0
    0.3678   -8.0850    5.0027 C   0  0  0  0  0  0  0  0  0  0  0  0
   -0.0716   -9.0489    6.1382 C   0  0  0  0  0  0  0  0  0  0  0  0
   -0.5373   -8.2888    3.7583 C   0  0  0  0  0  0  0  0  0  0  0  0
   -1.7549   -8.1285    3.8567 O   0  0  0  0  0  0  0  0  0  0  0  0
    0.0866   -8.5888    2.4626 C   0  0  0  0  0  0  0  0  0  0  0  0
    1.3487   -9.0394    2.3587 C   0  0  0  0  0  0  0  0  0  0  0  0
    2.2597   -9.3023    3.5481 C   0  0  1  0  0  0  0  0  0  0  0  0
    1.8802  -10.7275    4.0452 C   0  0  0  0  0  0  0  0  0  0  0  0
    3.7583   -9.3797    3.0413 C   0  0  2  0  0  0  0  0  0  0  0  0
    4.7787  -10.1164    3.9425 C   0  0  0  0  0  0  0  0  0  0  0  0
    6.0695   -9.2976    3.8269 C   0  0  2  0  0  0  0  0  0  0  0  0
    7.1871  -10.1256    4.0800 O   0  0  0  0  0  0  0  0  0  0  0  0
    6.0683   -8.1400    4.8672 C   0  0  0  0  0  0  0  0  0  0  0  0
    5.0364   -6.9912    4.6248 C   0  0  2  0  0  0  0  0  0  0  0  0
    3.9156   -6.9181    5.7001 C   0  0  0  0  0  0  0  0  0  0  0  0
    2.8809   -8.0656    5.8197 C   0  0  0  0  0  0  0  0  0  0  0  0
    1.8931   -8.2071    4.6250 C   0  0  2  0  0  0  0  0  0  0  0  0
    4.5016   -6.8636    3.1663 C   0  0  1  0  0  0  0  0  0  0  0  0
    5.0557   -5.7264    2.4198 N   0  0  0  0  0  0  0  0  0  0  0  0
    4.4797   -5.1573    1.3425 C   0  0  0  0  0  0  0  0  0  0  0  0
    3.3997   -5.5437    0.8907 O   0  0  0  0  0  0  0  0  0  0  0  0
    5.2377   -4.0187    0.7372 C   0  0  0  0  0  0  0  0  0  0  0  0
    4.4329   -2.9014    0.0968 C   0  0  0  0  0  0  0  0  0  0  0  0
    5.1898   -3.8659   -0.7762 C   0  0  0  0  0  0  0  0  0  0  0  0
    4.5746   -8.2041    2.3834 C   0  0  1  0  0  0  0  0  0  0  0  0
    6.0406   -8.7541    2.3817 C   0  0  0  0  0  0  0  0  0  0  0  0
    7.1916   -7.7512    2.0869 C   0  0  0  0  0  0  0  0  0  0  0  0
    6.2123   -9.8613    1.3109 C   0  0  0  0  0  0  0  0  0  0  0  0
    0.6636   -6.3435    6.3432 H   0  0  0  0  0  0  0  0  0  0  0  0
   -0.9735   -6.4828    5.7225 H   0  0  0  0  0  0  0  0  0  0  0  0
    0.3032   -5.9027    4.6788 H   0  0  0  0  0  0  0  0  0  0  0  0
    0.3297   -8.7498    7.1063 H   0  0  0  0  0  0  0  0  0  0  0  0
    0.2216  -10.0794    5.9718 H   0  0  0  0  0  0  0  0  0  0  0  0
   -1.1536   -9.0705    6.2371 H   0  0  0  0  0  0  0  0  0  0  0  0
   -0.5169   -8.4443    1.5802 H   0  0  0  0  0  0  0  0  0  0  0  0
    1.7539   -9.2509    1.3779 H   0  0  0  0  0  0  0  0  0  0  0  0
    2.2500  -10.9322    5.0529 H   0  0  0  0  0  0  0  0  0  0  0  0
    2.2724  -11.5071    3.3866 H   0  0  0  0  0  0  0  0  0  0  0  0
    0.7995  -10.8861    4.0599 H   0  0  0  0  0  0  0  0  0  0  0  0
    3.6491  -10.0725    2.2064 H   0  0  0  0  0  0  0  0  0  0  0  0
    4.4775  -10.2924    4.9698 H   0  0  0  0  0  0  0  0  0  0  0  0
    4.9369  -11.1179    3.5413 H   0  0  0  0  0  0  0  0  0  0  0  0
    7.0997  -10.4729    4.9592 H   0  0  0  0  0  0  0  0  0  0  0  0
    5.9244   -8.5496    5.8678 H   0  0  0  0  0  0  0  0  0  0  0  0
    7.0643   -7.6974    4.9017 H   0  0  0  0  0  0  0  0  0  0  0  0
    5.6010   -6.0733    4.8094 H   0  0  0  0  0  0  0  0  0  0  0  0
    4.3986   -6.8154    6.6709 H   0  0  0  0  0  0  0  0  0  0  0  0
    3.3727   -5.9814    5.5681 H   0  0  0  0  0  0  0  0  0  0  0  0
    3.3510   -9.0053    6.0787 H   0  0  0  0  0  0  0  0  0  0  0  0
    2.3123   -7.8373    6.7198 H   0  0  0  0  0  0  0  0  0  0  0  0
    1.9639   -7.2740    4.0966 H   0  0  0  0  0  0  0  0  0  0  0  0
    3.4783   -6.5388    3.2074 H   0  0  0  0  0  0  0  0  0  0  0  0
    5.9472   -5.3532    2.7207 H   0  0  0  0  0  0  0  0  0  0  0  0
    6.1733   -3.7408    1.2219 H   0  0  0  0  0  0  0  0  0  0  0  0
    3.3458   -2.9777    0.0963 H   0  0  0  0  0  0  0  0  0  0  0  0
    4.8244   -1.8904    0.1953 H   0  0  0  0  0  0  0  0  0  0  0  0
    6.0886   -3.4998   -1.2718 H   0  0  0  0  0  0  0  0  0  0  0  0
    4.6074   -4.5829   -1.3575 H   0  0  0  0  0  0  0  0  0  0  0  0
    4.2287   -8.0552    1.3600 H   0  0  0  0  0  0  0  0  0  0  0  0
    7.0609   -7.2862    1.1111 H   0  0  0  0  0  0  0  0  0  0  0  0
    8.1584   -8.2576    2.0716 H   0  0  0  0  0  0  0  0  0  0  0  0
    7.2927   -6.9528    2.8183 H   0  0  0  0  0  0  0  0  0  0  0  0
    6.0720   -9.4328    0.3234 H   0  0  0  0  0  0  0  0  0  0  0  0
    5.5194  -10.6930    1.4043 H   0  0  0  0  0  0  0  0  0  0  0  0
    7.2097  -10.2978    1.3381 H   0  0  0  0  0  0  0  0  0  0  0  0
  1  2  1  0
  1 30  1  0
  1 31  1  0
  1 32  1  0
  2 18  1  0
  2  3  1  0
  2  4  1  0
  3 33  1  0
  3 34  1  0
  3 35  1  0
  4  5  2  0
  4  6  1  0
  6  7  2  0
  6 36  1  0
  7  8  1  0
  7 37  1  0
  8 18  1  0
  8  9  1  1
  8 10  1  0
  9 38  1  0
  9 39  1  0
  9 40  1  0
 10 26  1  0
 10 11  1  0
 10 41  1  6
 11 12  1  0
 11 42  1  0
 11 43  1  0
 12 27  1  0
 12 13  1  6
 12 14  1  0
 13 44  1  0
 14 15  1  0
 14 45  1  0
 14 46  1  0
 15 16  1  0
 15 19  1  0
 15 47  1  1
 16 17  1  0
 16 48  1  0
 16 49  1  0
 17 18  1  0
 17 50  1  0
 17 51  1  0
 18 52  1  6
 19 20  1  0
 19 26  1  0
 19 53  1  1
 20 21  1  0
 20 54  1  0
 21 22  2  0
 21 23  1  0
 23 25  1  0
 23 24  1  0
 23 55  1  0
 24 25  1  0
 24 56  1  0
 24 57  1  0
 25 58  1  0
 25 59  1  0
 26 27  1  0
 26 60  1  6
 27 28  1  0
 27 29  1  0
 28 61  1  0
 28 62  1  0
 28 63  1  0
 29 64  1  0
 29 65  1  0
 29 66  1  0
M  END
>  <i_m_ct_stereo_status>  (86) 
1

>  <s_m_source_file>  (86) 
/var/tmp/pbs.5076255.sched01/tmp1pob34vh/39rbzpz6sd.sdf

>  <i_m_source_file_index>  (86) 
6

>  <i_lp_mmshare_version>  (86) 
48012

>  <i_f3d_flags>  (86) 
0

>  <s_epik_input>  (86) 
W0NIXTE9W0NIXUMoPU8pQyhbQ0gzXSkoW0NIM10pW0NASF0yW0NIMl1bQ0gyXVtDQEBIXShbQ0gyXVtDQF0oW0NIMl0zKShbT0hdKUM0KFtDSDNdKVtDSDNdKVtDQEhdKFtDQEBIXTRbQ0BASF0zW0NAXTEyW0NIM10pW05IXUMoPU8pW0NIXTVbQ0gyXVtDSDJdNQ==

>  <s_epik_cmdline>  (86) 
J2VwaWtfcHl0aG9uJywgJy1waHQnLCAnMi4wJywgJy1waCcsICc3LjAnLCAnLXRuJywgJzgnLCAnLW1hJywgJzIwMCcsICctaW1hZScsICc8aW5maWxlLm1hZT4nLCAnLW9tYWUnLCAnPG91dGZpbGUubWFlPic=

>  <r_lp_tautomer_probability>  (86) 
1

>  <r_epik_Ionization_Penalty>  (86) 
1.60508e-06

>  <r_epik_Ionization_Penalty_Charging>  (86) 
0

>  <r_epik_Ionization_Penalty_Neutral>  (86) 
1.60508e-06

>  <r_epik_State_Penalty>  (86) 
-0

>  <r_epik_Charging_Adjusted_Penalty>  (86) 
0

>  <i_epik_Tot_Q>  (86) 
0

>  <i_epik_Tot_abs_Q>  (86) 
0

>  <s_lp_Force_Field>  (86) 
OPLS3e

>  <r_lp_Energy>  (86) 
90.2132

>  <b_lp_Chiralities_Consistent>  (86) 
1

>  <s_lp_Variant>  (86) 
30:0-1

>  <s_i_glide_gridfile>  (86) 
pfpi4k_grid

>  <i_i_glide_lignum>  (86) 
6

>  <i_i_glide_rotatable_bonds>  (86) 
4

>  <r_i_docking_score>  (86) 
-2.26377

>  <r_i_glide_ligand_efficiency>  (86) 
-0.0780612

>  <r_i_glide_ligand_efficiency_sa>  (86) 
-0.239829

>  <r_i_glide_ligand_efficiency_ln>  (86) 
-0.518347

>  <r_i_glide_gscore>  (86) 
-2.26377

>  <r_i_glide_lipo>  (86) 
-0.194943

>  <r_i_glide_hbond>  (86) 
0

>  <r_i_glide_metal>  (86) 
-0

>  <r_i_glide_rewards>  (86) 
-0.728886

>  <r_i_glide_evdw>  (86) 
-28.5219

>  <r_i_glide_ecoul>  (86) 
-1.5242

>  <r_i_glide_erotb>  (86) 
0.368218

>  <r_i_glide_esite>  (86) 
-0.0534367

>  <r_i_glide_emodel>  (86) 
-34.0131

>  <r_i_glide_energy>  (86) 
-30.0461

>  <r_i_glide_einternal>  (86) 
0.902211

>  <r_i_glide_intrahb_reward>  (86) 
-0

>  <i_i_glide_confnum>  (86) 
3

>  <i_i_glide_posenum>  (86) 
3

>  <r_i_glide_eff_state_penalty>  (86) 
0

>  <ligand_id>  (86) 
30

>  <original_smiles>  (86) 
CC1(C)C(=O)C=CC2(C)C3CC4(O)CC(CCC12)C(NC(=O)C1CC1)C3C4(C)C

>  <smiles>  (86) 
[H]OC12C([H])([H])C3([H])C([H])([H])C([H])([H])C4([H])C(C([H])([H])[H])(C([H])([H])[H])C(=O)C([H])=C([H])C4(C([H])([H])[H])C([H])(C1([H])[H])C([H])(C3([H])N([H])C(=O)C1([H])C([H])([H])C1([H])[H])C2(C([H])([H])[H])C([H])([H])[H]

$$$$
30:0:1
     RDKit          3D

 66 70  0  0  1  0  0  0  0  0999 V2000
    3.2888   -3.6011    1.4794 C   0  0  0  0  0  0  0  0  0  0  0  0
    4.1000   -4.9262    1.4106 C   0  0  0  0  0  0  0  0  0  0  0  0
    4.4143   -5.1836   -0.0842 C   0  0  0  0  0  0  0  0  0  0  0  0
    5.4242   -4.6477    2.1759 C   0  0  0  0  0  0  0  0  0  0  0  0
    6.1620   -3.7660    1.7523 O   0  0  0  0  0  0  0  0  0  0  0  0
    5.7540   -5.4400    3.3754 C   0  0  0  0  0  0  0  0  0  0  0  0
    5.1619   -6.6188    3.6278 C   0  0  0  0  0  0  0  0  0  0  0  0
    4.1114   -7.2545    2.7207 C   0  0  1  0  0  0  0  0  0  0  0  0
    4.9189   -8.0046    1.6226 C   0  0  0  0  0  0  0  0  0  0  0  0
    3.3331   -8.3684    3.5377 C   0  0  2  0  0  0  0  0  0  0  0  0
    2.6070   -9.4830    2.7392 C   0  0  0  0  0  0  0  0  0  0  0  0
    1.3108   -9.7409    3.5178 C   0  0  2  0  0  0  0  0  0  0  0  0
    0.8449  -11.0482    3.2830 O   0  0  0  0  0  0  0  0  0  0  0  0
    0.1996   -8.7533    3.0608 C   0  0  0  0  0  0  0  0  0  0  0  0
    0.4206   -7.2527    3.4316 C   0  0  2  0  0  0  0  0  0  0  0  0
    0.6640   -6.3269    2.2097 C   0  0  0  0  0  0  0  0  0  0  0  0
    1.9572   -6.4754    1.3737 C   0  0  0  0  0  0  0  0  0  0  0  0
    3.2741   -6.0693    2.1051 C   0  0  2  0  0  0  0  0  0  0  0  0
    1.3793   -6.9851    4.6270 C   0  0  1  0  0  0  0  0  0  0  0  0
    0.6614   -6.6711    5.8759 N   0  0  0  0  0  0  0  0  0  0  0  0
    0.1044   -5.5027    6.2094 C   0  0  0  0  0  0  0  0  0  0  0  0
    0.0809   -4.5335    5.4569 O   0  0  0  0  0  0  0  0  0  0  0  0
   -0.5094   -5.4789    7.5765 C   0  0  0  0  0  0  0  0  0  0  0  0
   -1.7610   -4.6560    7.7618 C   0  0  0  0  0  0  0  0  0  0  0  0
   -0.4626   -4.1826    8.3560 C   0  0  0  0  0  0  0  0  0  0  0  0
    2.4214   -8.1202    4.8030 C   0  0  1  0  0  0  0  0  0  0  0  0
    1.7073   -9.5006    4.9900 C   0  0  0  0  0  0  0  0  0  0  0  0
    0.4982   -9.5609    5.9654 C   0  0  0  0  0  0  0  0  0  0  0  0
    2.6959  -10.5623    5.5494 C   0  0  0  0  0  0  0  0  0  0  0  0
    2.3181   -3.6701    0.9834 H   0  0  0  0  0  0  0  0  0  0  0  0
    3.8226   -2.7732    1.0098 H   0  0  0  0  0  0  0  0  0  0  0  0
    3.1009   -3.3016    2.5141 H   0  0  0  0  0  0  0  0  0  0  0  0
    3.5205   -5.1033   -0.7072 H   0  0  0  0  0  0  0  0  0  0  0  0
    4.8448   -6.1636   -0.2724 H   0  0  0  0  0  0  0  0  0  0  0  0
    5.1135   -4.4533   -0.4886 H   0  0  0  0  0  0  0  0  0  0  0  0
    6.5026   -5.0453    4.0432 H   0  0  0  0  0  0  0  0  0  0  0  0
    5.4387   -7.1682    4.5125 H   0  0  0  0  0  0  0  0  0  0  0  0
    4.3062   -8.2760    0.7598 H   0  0  0  0  0  0  0  0  0  0  0  0
    5.3751   -8.9231    2.0010 H   0  0  0  0  0  0  0  0  0  0  0  0
    5.7535   -7.4089    1.2499 H   0  0  0  0  0  0  0  0  0  0  0  0
    4.1684   -8.9109    3.9799 H   0  0  0  0  0  0  0  0  0  0  0  0
    2.4326   -9.2890    1.6889 H   0  0  0  0  0  0  0  0  0  0  0  0
    3.2324  -10.3768    2.7398 H   0  0  0  0  0  0  0  0  0  0  0  0
    1.4951  -11.6750    3.5925 H   0  0  0  0  0  0  0  0  0  0  0  0
    0.0728   -8.8518    1.9827 H   0  0  0  0  0  0  0  0  0  0  0  0
   -0.7518   -9.0846    3.4773 H   0  0  0  0  0  0  0  0  0  0  0  0
   -0.5687   -6.9319    3.7620 H   0  0  0  0  0  0  0  0  0  0  0  0
   -0.1800   -6.4504    1.5283 H   0  0  0  0  0  0  0  0  0  0  0  0
    0.6128   -5.2936    2.5564 H   0  0  0  0  0  0  0  0  0  0  0  0
    2.0165   -7.4533    0.9137 H   0  0  0  0  0  0  0  0  0  0  0  0
    1.8188   -5.8218    0.5147 H   0  0  0  0  0  0  0  0  0  0  0  0
    2.9447   -5.5049    2.9599 H   0  0  0  0  0  0  0  0  0  0  0  0
    1.9123   -6.0607    4.4902 H   0  0  0  0  0  0  0  0  0  0  0  0
    0.6721   -7.4029    6.5668 H   0  0  0  0  0  0  0  0  0  0  0  0
   -0.4325   -6.3956    8.1604 H   0  0  0  0  0  0  0  0  0  0  0  0
   -2.1537   -4.1112    6.9048 H   0  0  0  0  0  0  0  0  0  0  0  0
   -2.5190   -5.0441    8.4419 H   0  0  0  0  0  0  0  0  0  0  0  0
   -0.3461   -4.2524    9.4413 H   0  0  0  0  0  0  0  0  0  0  0  0
    0.0247   -3.3156    7.9042 H   0  0  0  0  0  0  0  0  0  0  0  0
    3.0409   -7.8813    5.6678 H   0  0  0  0  0  0  0  0  0  0  0  0
    0.7825   -9.2531    6.9709 H   0  0  0  0  0  0  0  0  0  0  0  0
    0.1191  -10.5797    6.0437 H   0  0  0  0  0  0  0  0  0  0  0  0
   -0.3603   -8.9672    5.6593 H   0  0  0  0  0  0  0  0  0  0  0  0
    3.0303  -10.2805    6.5492 H   0  0  0  0  0  0  0  0  0  0  0  0
    3.5866  -10.7351    4.9494 H   0  0  0  0  0  0  0  0  0  0  0  0
    2.2101  -11.5319    5.6595 H   0  0  0  0  0  0  0  0  0  0  0  0
  1  2  1  0
  1 30  1  0
  1 31  1  0
  1 32  1  0
  2 18  1  0
  2  3  1  0
  2  4  1  0
  3 33  1  0
  3 34  1  0
  3 35  1  0
  4  5  2  0
  4  6  1  0
  6  7  2  0
  6 36  1  0
  7  8  1  0
  7 37  1  0
  8 18  1  0
  8  9  1  6
  8 10  1  0
  9 38  1  0
  9 39  1  0
  9 40  1  0
 10 26  1  0
 10 11  1  0
 10 41  1  1
 11 12  1  0
 11 42  1  0
 11 43  1  0
 12 27  1  0
 12 13  1  1
 12 14  1  0
 13 44  1  0
 14 15  1  0
 14 45  1  0
 14 46  1  0
 15 16  1  0
 15 19  1  0
 15 47  1  1
 16 17  1  0
 16 48  1  0
 16 49  1  0
 17 18  1  0
 17 50  1  0
 17 51  1  0
 18 52  1  1
 19 20  1  0
 19 26  1  0
 19 53  1  6
 20 21  1  0
 20 54  1  0
 21 22  2  0
 21 23  1  0
 23 25  1  0
 23 24  1  0
 23 55  1  0
 24 25  1  0
 24 56  1  0
 24 57  1  0
 25 58  1  0
 25 59  1  0
 26 27  1  0
 26 60  1  1
 27 28  1  0
 27 29  1  0
 28 61  1  0
 28 62  1  0
 28 63  1  0
 29 64  1  0
 29 65  1  0
 29 66  1  0
M  END
>  <i_m_ct_stereo_status>  (87) 
1

>  <s_m_source_file>  (87) 
/var/tmp/pbs.5076255.sched01/tmp1pob34vh/39rbzpz6sd.sdf

>  <i_m_source_file_index>  (87) 
6

>  <i_lp_mmshare_version>  (87) 
48012

>  <i_f3d_flags>  (87) 
0

>  <s_epik_input>  (87) 
W0NIXTE9W0NIXUMoPU8pQyhbQ0gzXSkoW0NIM10pW0NASF0yW0NIMl1bQ0gyXVtDQEBIXShbQ0gyXVtDQF0oW0NIMl0zKShbT0hdKUM0KFtDSDNdKVtDSDNdKVtDQEhdKFtDQEBIXTRbQ0BASF0zW0NAXTEyW0NIM10pW05IXUMoPU8pW0NIXTVbQ0gyXVtDSDJdNQ==

>  <s_epik_cmdline>  (87) 
J2VwaWtfcHl0aG9uJywgJy1waHQnLCAnMi4wJywgJy1waCcsICc3LjAnLCAnLXRuJywgJzgnLCAnLW1hJywgJzIwMCcsICctaW1hZScsICc8aW5maWxlLm1hZT4nLCAnLW9tYWUnLCAnPG91dGZpbGUubWFlPic=

>  <r_lp_tautomer_probability>  (87) 
1

>  <r_epik_Ionization_Penalty>  (87) 
1.60508e-06

>  <r_epik_Ionization_Penalty_Charging>  (87) 
0

>  <r_epik_Ionization_Penalty_Neutral>  (87) 
1.60508e-06

>  <r_epik_State_Penalty>  (87) 
-0

>  <r_epik_Charging_Adjusted_Penalty>  (87) 
0

>  <i_epik_Tot_Q>  (87) 
0

>  <i_epik_Tot_abs_Q>  (87) 
0

>  <s_lp_Force_Field>  (87) 
OPLS3e

>  <r_lp_Energy>  (87) 
90.2132

>  <b_lp_Chiralities_Consistent>  (87) 
1

>  <s_lp_Variant>  (87) 
30:0-1

>  <s_i_glide_gridfile>  (87) 
pfpi4k_grid

>  <i_i_glide_lignum>  (87) 
6

>  <i_i_glide_rotatable_bonds>  (87) 
4

>  <r_i_docking_score>  (87) 
-2.06879

>  <r_i_glide_ligand_efficiency>  (87) 
-0.0713375

>  <r_i_glide_ligand_efficiency_sa>  (87) 
-0.219171

>  <r_i_glide_ligand_efficiency_ln>  (87) 
-0.4737

>  <r_i_glide_gscore>  (87) 
-2.06879

>  <r_i_glide_lipo>  (87) 
-0.170622

>  <r_i_glide_hbond>  (87) 
0

>  <r_i_glide_metal>  (87) 
-0

>  <r_i_glide_rewards>  (87) 
-0.721727

>  <r_i_glide_evdw>  (87) 
-30.0855

>  <r_i_glide_ecoul>  (87) 
-0.202145

>  <r_i_glide_erotb>  (87) 
0.368218

>  <r_i_glide_esite>  (87) 
-0.0100603

>  <r_i_glide_emodel>  (87) 
-34.3

>  <r_i_glide_energy>  (87) 
-30.2876

>  <r_i_glide_einternal>  (87) 
0.112963

>  <r_i_glide_intrahb_reward>  (87) 
-0

>  <i_i_glide_confnum>  (87) 
1

>  <i_i_glide_posenum>  (87) 
15

>  <r_i_glide_eff_state_penalty>  (87) 
0

>  <ligand_id>  (87) 
30

>  <original_smiles>  (87) 
CC1(C)C(=O)C=CC2(C)C3CC4(O)CC(CCC12)C(NC(=O)C1CC1)C3C4(C)C

>  <smiles>  (87) 
[H]OC12C([H])([H])C3([H])C([H])([H])C([H])([H])C4([H])C(C([H])([H])[H])(C([H])([H])[H])C(=O)C([H])=C([H])C4(C([H])([H])[H])C([H])(C1([H])[H])C([H])(C3([H])N([H])C(=O)C1([H])C([H])([H])C1([H])[H])C2(C([H])([H])[H])C([H])([H])[H]

$$$$
30:0:2
     RDKit          3D

 66 70  0  0  1  0  0  0  0  0999 V2000
    3.3287   -3.6039    1.5849 C   0  0  0  0  0  0  0  0  0  0  0  0
    4.0770   -4.9513    1.3837 C   0  0  0  0  0  0  0  0  0  0  0  0
    4.2866   -5.1249   -0.1415 C   0  0  0  0  0  0  0  0  0  0  0  0
    5.4532   -4.7742    2.0807 C   0  0  0  0  0  0  0  0  0  0  0  0
    6.2049   -3.8945    1.6719 O   0  0  0  0  0  0  0  0  0  0  0  0
    5.8225   -5.6472    3.2061 C   0  0  0  0  0  0  0  0  0  0  0  0
    5.1947   -6.8230    3.4192 C   0  0  0  0  0  0  0  0  0  0  0  0
    4.0689   -7.3554    2.5417 C   0  0  1  0  0  0  0  0  0  0  0  0
    4.7767   -8.0658    1.3517 C   0  0  0  0  0  0  0  0  0  0  0  0
    3.2913   -8.4901    3.3336 C   0  0  2  0  0  0  0  0  0  0  0  0
    2.4732   -9.5181    2.5133 C   0  0  0  0  0  0  0  0  0  0  0  0
    1.2155   -9.7740    3.3528 C   0  0  2  0  0  0  0  0  0  0  0  0
    0.7005  -11.0512    3.0583 O   0  0  0  0  0  0  0  0  0  0  0  0
    0.1202   -8.7223    3.0292 C   0  0  0  0  0  0  0  0  0  0  0  0
    0.4261   -7.2575    3.4809 C   0  0  2  0  0  0  0  0  0  0  0  0
    0.6372   -6.2568    2.3087 C   0  0  0  0  0  0  0  0  0  0  0  0
    1.8713   -6.4095    1.3890 C   0  0  0  0  0  0  0  0  0  0  0  0
    3.2445   -6.1042    2.0572 C   0  0  2  0  0  0  0  0  0  0  0  0
    1.4644   -7.1076    4.6281 C   0  0  1  0  0  0  0  0  0  0  0  0
    0.8342   -6.8526    5.9383 N   0  0  0  0  0  0  0  0  0  0  0  0
    0.3112   -5.6978    6.3618 C   0  0  0  0  0  0  0  0  0  0  0  0
    0.2242   -4.7036    5.6560 O   0  0  0  0  0  0  0  0  0  0  0  0
   -0.1835   -5.7350    7.7795 C   0  0  0  0  0  0  0  0  0  0  0  0
   -1.2411   -4.7281    8.1743 C   0  0  0  0  0  0  0  0  0  0  0  0
    0.1627   -4.5575    8.6705 C   0  0  0  0  0  0  0  0  0  0  0  0
    2.4690   -8.2883    4.6666 C   0  0  1  0  0  0  0  0  0  0  0  0
    1.7100   -9.6495    4.8104 C   0  0  0  0  0  0  0  0  0  0  0  0
    0.5635   -9.7282    5.8565 C   0  0  0  0  0  0  0  0  0  0  0  0
    2.6790  -10.7835    5.2432 C   0  0  0  0  0  0  0  0  0  0  0  0
    2.3272   -3.6025    1.1473 H   0  0  0  0  0  0  0  0  0  0  0  0
    3.8674   -2.7670    1.1353 H   0  0  0  0  0  0  0  0  0  0  0  0
    3.2155   -3.3675    2.6467 H   0  0  0  0  0  0  0  0  0  0  0  0
    3.3622   -4.9803   -0.7006 H   0  0  0  0  0  0  0  0  0  0  0  0
    4.6681   -6.1053   -0.4159 H   0  0  0  0  0  0  0  0  0  0  0  0
    4.9906   -4.3952   -0.5462 H   0  0  0  0  0  0  0  0  0  0  0  0
    6.6199   -5.3203    3.8463 H   0  0  0  0  0  0  0  0  0  0  0  0
    5.5012   -7.4394    4.2501 H   0  0  0  0  0  0  0  0  0  0  0  0
    4.1038   -8.2587    0.5140 H   0  0  0  0  0  0  0  0  0  0  0  0
    5.2134   -9.0250    1.6431 H   0  0  0  0  0  0  0  0  0  0  0  0
    5.6115   -7.4818    0.9649 H   0  0  0  0  0  0  0  0  0  0  0  0
    4.1275   -9.0968    3.6918 H   0  0  0  0  0  0  0  0  0  0  0  0
    2.2513   -9.2568    1.4886 H   0  0  0  0  0  0  0  0  0  0  0  0
    3.0548  -10.4388    2.4264 H   0  0  0  0  0  0  0  0  0  0  0  0
    0.4341  -11.0591    2.1497 H   0  0  0  0  0  0  0  0  0  0  0  0
   -0.0804   -8.7356    1.9575 H   0  0  0  0  0  0  0  0  0  0  0  0
   -0.8182   -9.0401    3.4860 H   0  0  0  0  0  0  0  0  0  0  0  0
   -0.5307   -6.9217    3.8909 H   0  0  0  0  0  0  0  0  0  0  0  0
   -0.2477   -6.3189    1.6715 H   0  0  0  0  0  0  0  0  0  0  0  0
    0.6294   -5.2504    2.7237 H   0  0  0  0  0  0  0  0  0  0  0  0
    1.8585   -7.3612    0.8773 H   0  0  0  0  0  0  0  0  0  0  0  0
    1.7149   -5.7061    0.5759 H   0  0  0  0  0  0  0  0  0  0  0  0
    2.9915   -5.5847    2.9672 H   0  0  0  0  0  0  0  0  0  0  0  0
    2.0222   -6.1955    4.5210 H   0  0  0  0  0  0  0  0  0  0  0  0
    0.9061   -7.6115    6.5947 H   0  0  0  0  0  0  0  0  0  0  0  0
   -0.1990   -6.7082    8.2662 H   0  0  0  0  0  0  0  0  0  0  0  0
   -1.6041   -4.0306    7.4204 H   0  0  0  0  0  0  0  0  0  0  0  0
   -1.9990   -5.0537    8.8872 H   0  0  0  0  0  0  0  0  0  0  0  0
    0.3536   -4.7643    9.7268 H   0  0  0  0  0  0  0  0  0  0  0  0
    0.7543   -3.7383    8.2567 H   0  0  0  0  0  0  0  0  0  0  0  0
    3.1461   -8.1327    5.5053 H   0  0  0  0  0  0  0  0  0  0  0  0
    0.9199   -9.4987    6.8586 H   0  0  0  0  0  0  0  0  0  0  0  0
    0.1511  -10.7350    5.8954 H   0  0  0  0  0  0  0  0  0  0  0  0
   -0.2896   -9.0859    5.6424 H   0  0  0  0  0  0  0  0  0  0  0  0
    3.0857  -10.5823    6.2371 H   0  0  0  0  0  0  0  0  0  0  0  0
    3.5238  -10.9569    4.5788 H   0  0  0  0  0  0  0  0  0  0  0  0
    2.1531  -11.7400    5.3124 H   0  0  0  0  0  0  0  0  0  0  0  0
  1  2  1  0
  1 30  1  0
  1 31  1  0
  1 32  1  0
  2 18  1  0
  2  3  1  0
  2  4  1  0
  3 33  1  0
  3 34  1  0
  3 35  1  0
  4  5  2  0
  4  6  1  0
  6  7  2  0
  6 36  1  0
  7  8  1  0
  7 37  1  0
  8 18  1  0
  8  9  1  6
  8 10  1  0
  9 38  1  0
  9 39  1  0
  9 40  1  0
 10 26  1  0
 10 11  1  0
 10 41  1  1
 11 12  1  0
 11 42  1  0
 11 43  1  0
 12 27  1  0
 12 13  1  1
 12 14  1  0
 13 44  1  0
 14 15  1  0
 14 45  1  0
 14 46  1  0
 15 16  1  0
 15 19  1  0
 15 47  1  1
 16 17  1  0
 16 48  1  0
 16 49  1  0
 17 18  1  0
 17 50  1  0
 17 51  1  0
 18 52  1  1
 19 20  1  0
 19 26  1  0
 19 53  1  6
 20 21  1  0
 20 54  1  0
 21 22  2  0
 21 23  1  0
 23 25  1  0
 23 24  1  0
 23 55  1  0
 24 25  1  0
 24 56  1  0
 24 57  1  0
 25 58  1  0
 25 59  1  0
 26 27  1  0
 26 60  1  1
 27 28  1  0
 27 29  1  0
 28 61  1  0
 28 62  1  0
 28 63  1  0
 29 64  1  0
 29 65  1  0
 29 66  1  0
M  END
>  <i_m_ct_stereo_status>  (88) 
1

>  <s_m_source_file>  (88) 
/var/tmp/pbs.5076255.sched01/tmp1pob34vh/39rbzpz6sd.sdf

>  <i_m_source_file_index>  (88) 
6

>  <i_lp_mmshare_version>  (88) 
48012

>  <i_f3d_flags>  (88) 
0

>  <s_epik_input>  (88) 
W0NIXTE9W0NIXUMoPU8pQyhbQ0gzXSkoW0NIM10pW0NASF0yW0NIMl1bQ0gyXVtDQEBIXShbQ0gyXVtDQF0oW0NIMl0zKShbT0hdKUM0KFtDSDNdKVtDSDNdKVtDQEhdKFtDQEBIXTRbQ0BASF0zW0NAXTEyW0NIM10pW05IXUMoPU8pW0NIXTVbQ0gyXVtDSDJdNQ==

>  <s_epik_cmdline>  (88) 
J2VwaWtfcHl0aG9uJywgJy1waHQnLCAnMi4wJywgJy1waCcsICc3LjAnLCAnLXRuJywgJzgnLCAnLW1hJywgJzIwMCcsICctaW1hZScsICc8aW5maWxlLm1hZT4nLCAnLW9tYWUnLCAnPG91dGZpbGUubWFlPic=

>  <r_lp_tautomer_probability>  (88) 
1

>  <r_epik_Ionization_Penalty>  (88) 
1.60508e-06

>  <r_epik_Ionization_Penalty_Charging>  (88) 
0

>  <r_epik_Ionization_Penalty_Neutral>  (88) 
1.60508e-06

>  <r_epik_State_Penalty>  (88) 
-0

>  <r_epik_Charging_Adjusted_Penalty>  (88) 
0

>  <i_epik_Tot_Q>  (88) 
0

>  <i_epik_Tot_abs_Q>  (88) 
0

>  <s_lp_Force_Field>  (88) 
OPLS3e

>  <r_lp_Energy>  (88) 
90.2132

>  <b_lp_Chiralities_Consistent>  (88) 
1

>  <s_lp_Variant>  (88) 
30:0-1

>  <s_i_glide_gridfile>  (88) 
pfpi4k_grid

>  <i_i_glide_lignum>  (88) 
6

>  <i_i_glide_rotatable_bonds>  (88) 
4

>  <r_i_docking_score>  (88) 
-2.053

>  <r_i_glide_ligand_efficiency>  (88) 
-0.0707932

>  <r_i_glide_ligand_efficiency_sa>  (88) 
-0.217499

>  <r_i_glide_ligand_efficiency_ln>  (88) 
-0.470085

>  <r_i_glide_gscore>  (88) 
-2.053

>  <r_i_glide_lipo>  (88) 
-0.127684

>  <r_i_glide_hbond>  (88) 
0

>  <r_i_glide_metal>  (88) 
-0

>  <r_i_glide_rewards>  (88) 
-0.724994

>  <r_i_glide_evdw>  (88) 
-30.3413

>  <r_i_glide_ecoul>  (88) 
-0.282009

>  <r_i_glide_erotb>  (88) 
0.368218

>  <r_i_glide_esite>  (88) 
-0.00917755

>  <r_i_glide_emodel>  (88) 
-34.5085

>  <r_i_glide_energy>  (88) 
-30.6233

>  <r_i_glide_einternal>  (88) 
0.289869

>  <r_i_glide_intrahb_reward>  (88) 
-0

>  <i_i_glide_confnum>  (88) 
4

>  <i_i_glide_posenum>  (88) 
7

>  <r_i_glide_eff_state_penalty>  (88) 
0

>  <ligand_id>  (88) 
30

>  <original_smiles>  (88) 
CC1(C)C(=O)C=CC2(C)C3CC4(O)CC(CCC12)C(NC(=O)C1CC1)C3C4(C)C

>  <smiles>  (88) 
[H]OC12C([H])([H])C3([H])C([H])([H])C([H])([H])C4([H])C(C([H])([H])[H])(C([H])([H])[H])C(=O)C([H])=C([H])C4(C([H])([H])[H])C([H])(C1([H])[H])C([H])(C3([H])N([H])C(=O)C1([H])C([H])([H])C1([H])[H])C2(C([H])([H])[H])C([H])([H])[H]

$$$$
31:0:0
     RDKit          3D

 56 61  0  0  1  0  0  0  0  0999 V2000
    4.7734   -4.2564   -0.9222 C   0  0  0  0  0  0  0  0  0  0  0  0
    4.8582   -3.8925    0.5875 C   0  0  0  0  0  0  0  0  0  0  0  0
    4.9884   -5.3282    1.1716 C   0  0  0  0  0  0  0  0  0  0  0  0
    5.7457   -2.7880    1.2559 C   0  0  2  0  0  0  0  0  0  0  0  0
    5.5221   -2.9478    2.7767 C   0  0  0  0  0  0  0  0  0  0  0  0
    4.0197   -2.6474    2.7453 C   0  0  1  0  0  0  0  0  0  0  0  0
    4.0695   -1.2467    3.4437 C   0  0  0  0  0  0  0  0  0  0  0  0
    2.8209   -0.4744    3.1484 C   0  0  1  0  0  0  0  0  0  0  0  0
    2.9213   -0.0985    1.6364 C   0  0  0  0  0  0  0  0  0  0  0  0
    4.3415   -0.2586    0.9397 C   0  0  0  0  0  0  0  0  0  0  0  0
    4.8167   -1.7118    0.5179 C   0  0  1  0  0  0  0  0  0  0  0  0
    5.2078   -1.4636   -0.9720 C   0  0  0  0  0  0  0  0  0  0  0  0
    3.9104   -2.7883    1.1652 C   0  0  1  0  0  0  0  0  0  0  0  0
    1.5924   -1.3062    3.6749 C   0  0  2  0  0  0  0  0  0  0  0  0
    1.8149   -1.8341    5.1226 C   0  0  0  0  0  0  0  0  0  0  0  0
    2.6171   -3.1701    4.9740 C   0  0  0  0  0  0  0  0  0  0  0  0
    2.7913   -3.3598    3.4497 C   0  0  2  0  0  0  0  0  0  0  0  0
    2.7830   -4.8365    3.1832 N   0  0  0  0  0  0  0  0  0  0  0  0
    1.8064   -5.3191    2.6033 N   0  0  0  0  0  0  0  0  0  0  0  0
    1.8410   -6.8225    2.4661 C   0  0  0  0  0  0  0  0  0  0  0  0
    2.8616   -7.4708    2.3606 O   0  0  0  0  0  0  0  0  0  0  0  0
    0.5606   -7.4877    2.5064 N   0  0  0  0  0  0  0  0  0  0  0  0
    0.4516   -8.8016    2.4757 C   0  0  0  0  0  0  0  0  0  0  0  0
   -0.8207   -9.2140    2.5624 N   0  0  0  0  0  0  0  0  0  0  0  0
   -1.4383   -7.9902    2.6597 C   0  0  0  0  0  0  0  0  0  0  0  0
   -0.6563   -6.9200    2.6169 N   0  0  0  0  0  0  0  0  0  0  0  0
    1.4804   -2.6574    2.9684 C   0  0  0  0  0  0  0  0  0  0  0  0
    4.3623   -5.2474   -1.1057 H   0  0  0  0  0  0  0  0  0  0  0  0
    5.7534   -4.2771   -1.3954 H   0  0  0  0  0  0  0  0  0  0  0  0
    4.0912   -3.6264   -1.4839 H   0  0  0  0  0  0  0  0  0  0  0  0
    4.9531   -5.4256    2.2501 H   0  0  0  0  0  0  0  0  0  0  0  0
    5.9318   -5.7961    0.8745 H   0  0  0  0  0  0  0  0  0  0  0  0
    4.1853   -5.9789    0.8237 H   0  0  0  0  0  0  0  0  0  0  0  0
    6.7816   -2.8110    0.9173 H   0  0  0  0  0  0  0  0  0  0  0  0
    5.8068   -3.9027    3.2030 H   0  0  0  0  0  0  0  0  0  0  0  0
    6.1604   -2.2454    3.3045 H   0  0  0  0  0  0  0  0  0  0  0  0
    4.2232   -1.3497    4.5140 H   0  0  0  0  0  0  0  0  0  0  0  0
    4.9391   -0.6273    3.2425 H   0  0  0  0  0  0  0  0  0  0  0  0
    2.8679    0.4497    3.7270 H   0  0  0  0  0  0  0  0  0  0  0  0
    2.1742   -0.6255    1.0435 H   0  0  0  0  0  0  0  0  0  0  0  0
    2.6344    0.9517    1.5583 H   0  0  0  0  0  0  0  0  0  0  0  0
    4.2134    0.3728    0.0616 H   0  0  0  0  0  0  0  0  0  0  0  0
    5.1408    0.2766    1.4513 H   0  0  0  0  0  0  0  0  0  0  0  0
    5.7109   -0.5062   -1.1077 H   0  0  0  0  0  0  0  0  0  0  0  0
    4.3454   -1.4577   -1.6388 H   0  0  0  0  0  0  0  0  0  0  0  0
    5.9595   -2.1505   -1.3500 H   0  0  0  0  0  0  0  0  0  0  0  0
    2.9299   -2.8270    0.6984 H   0  0  0  0  0  0  0  0  0  0  0  0
    0.6686   -0.7250    3.5951 H   0  0  0  0  0  0  0  0  0  0  0  0
    2.3200   -1.1086    5.7671 H   0  0  0  0  0  0  0  0  0  0  0  0
    0.8490   -2.0511    5.5877 H   0  0  0  0  0  0  0  0  0  0  0  0
    3.5679   -3.1724    5.5091 H   0  0  0  0  0  0  0  0  0  0  0  0
    2.0245   -3.9802    5.4018 H   0  0  0  0  0  0  0  0  0  0  0  0
    1.2841   -9.4858    2.3901 H   0  0  0  0  0  0  0  0  0  0  0  0
   -2.5116   -7.9024    2.7414 H   0  0  0  0  0  0  0  0  0  0  0  0
    0.5796   -3.1576    3.3288 H   0  0  0  0  0  0  0  0  0  0  0  0
    1.3593   -2.5334    1.9013 H   0  0  0  0  0  0  0  0  0  0  0  0
  1  2  1  0
  1 28  1  0
  1 29  1  0
  1 30  1  0
  2 13  1  0
  2  3  1  0
  2  4  1  0
  3 31  1  0
  3 32  1  0
  3 33  1  0
  4 11  1  0
  4  5  1  0
  4 34  1  1
  6  5  1  1
  5 35  1  0
  5 36  1  0
  6 13  1  0
  6 17  1  0
  6  7  1  0
  7  8  1  0
  7 37  1  0
  7 38  1  0
  8  9  1  0
  8 14  1  0
  8 39  1  1
  9 10  1  0
  9 40  1  0
  9 41  1  0
 10 11  1  0
 10 42  1  0
 10 43  1  0
 11 12  1  6
 11 13  1  0
 12 44  1  0
 12 45  1  0
 12 46  1  0
 13 47  1  6
 14 27  1  0
 14 15  1  0
 14 48  1  1
 15 16  1  0
 15 49  1  0
 15 50  1  0
 17 16  1  1
 16 51  1  0
 16 52  1  0
 17 18  1  0
 17 27  1  0
 18 19  2  3
 19 20  1  0
 20 21  2  0
 20 22  1  0
 22 26  1  0
 22 23  1  0
 23 24  2  0
 23 53  1  0
 24 25  1  0
 25 26  2  0
 25 54  1  0
 27 55  1  0
 27 56  1  0
M  END
>  <i_m_ct_stereo_status>  (89) 
1

>  <s_m_source_file>  (89) 
/var/tmp/pbs.5076255.sched01/tmp1pob34vh/39rbzpz6sd.sdf

>  <i_m_source_file_index>  (89) 
7

>  <i_lp_mmshare_version>  (89) 
48012

>  <i_f3d_flags>  (89) 
2

>  <s_epik_input>  (89) 
W0NIM11DMShbQ0gzXSlbQ0BASF0oW0NIMl0yKVtDQEBdKFtDSDNdKShbQ0BASF0xW0NAQF0yMzQpW0NIMl1bQ0gyXVtDSF0oW0NIMl0zKVtDQEBIXTVbQ0gyXVtDSDJdW0NAXTQoW0NIMl01KS9OPU4vQyg9TyluNltjSF1uW2NIXW42

>  <s_epik_cmdline>  (89) 
J2VwaWtfcHl0aG9uJywgJy1waHQnLCAnMi4wJywgJy1waCcsICc3LjAnLCAnLXRuJywgJzgnLCAnLW1hJywgJzIwMCcsICctaW1hZScsICc8aW5maWxlLm1hZT4nLCAnLW9tYWUnLCAnPG91dGZpbGUubWFlPic=

>  <r_lp_tautomer_probability>  (89) 
1

>  <r_epik_Ionization_Penalty>  (89) 
3.00182e-11

>  <r_epik_Ionization_Penalty_Charging>  (89) 
0

>  <r_epik_Ionization_Penalty_Neutral>  (89) 
3.00182e-11

>  <r_epik_State_Penalty>  (89) 
-0

>  <r_epik_Charging_Adjusted_Penalty>  (89) 
0

>  <i_epik_Tot_Q>  (89) 
0

>  <i_epik_Tot_abs_Q>  (89) 
0

>  <s_lp_Force_Field>  (89) 
OPLS3e

>  <r_lp_Energy>  (89) 
173.755

>  <b_lp_Chiralities_Consistent>  (89) 
0

>  <s_lp_Variant>  (89) 
31:0-1

>  <s_i_glide_gridfile>  (89) 
pfpi4k_grid

>  <i_i_glide_lignum>  (89) 
7

>  <i_i_glide_rotatable_bonds>  (89) 
3

>  <r_i_docking_score>  (89) 
-2.71954

>  <r_i_glide_ligand_efficiency>  (89) 
-0.100724

>  <r_i_glide_ligand_efficiency_sa>  (89) 
-0.302171

>  <r_i_glide_ligand_efficiency_ln>  (89) 
-0.633064

>  <r_i_glide_gscore>  (89) 
-2.71954

>  <r_i_glide_lipo>  (89) 
-0.367451

>  <r_i_glide_hbond>  (89) 
-0.16

>  <r_i_glide_metal>  (89) 
-0

>  <r_i_glide_rewards>  (89) 
-0.903492

>  <r_i_glide_evdw>  (89) 
-22.7781

>  <r_i_glide_ecoul>  (89) 
-1.87972

>  <r_i_glide_erotb>  (89) 
0.285222

>  <r_i_glide_esite>  (89) 
-0.152957

>  <r_i_glide_emodel>  (89) 
-28.1634

>  <r_i_glide_energy>  (89) 
-24.6578

>  <r_i_glide_einternal>  (89) 
1.08692

>  <r_i_glide_intrahb_reward>  (89) 
-0

>  <i_i_glide_confnum>  (89) 
2

>  <i_i_glide_posenum>  (89) 
35

>  <r_i_glide_eff_state_penalty>  (89) 
0

>  <ligand_id>  (89) 
31

>  <original_smiles>  (89) 
CC1(C)C2CC34CC(CCC2(C)C13)C1CCC4(N=NC(=O)n2cncn2)C1

>  <smiles>  (89) 
[H]c1nc([H])n(C(=O)N=NC23C([H])([H])C([H])([H])C([H])(C2([H])[H])C2([H])C([H])([H])C([H])([H])C4(C([H])([H])[H])C5([H])C([H])([H])C3(C2([H])[H])C4([H])C5(C([H])([H])[H])C([H])([H])[H])n1

$$$$
31:0:1
     RDKit          3D

 56 61  0  0  1  0  0  0  0  0999 V2000
    2.9551   -3.6219   -1.2009 C   0  0  0  0  0  0  0  0  0  0  0  0
    3.8413   -3.8334    0.0626 C   0  0  0  0  0  0  0  0  0  0  0  0
    3.8444   -5.3876    0.1078 C   0  0  0  0  0  0  0  0  0  0  0  0
    5.1949   -3.1219    0.4093 C   0  0  2  0  0  0  0  0  0  0  0  0
    5.6862   -3.7896    1.7155 C   0  0  0  0  0  0  0  0  0  0  0  0
    4.4790   -3.3528    2.5654 C   0  0  1  0  0  0  0  0  0  0  0  0
    5.2150   -2.3032    3.4572 C   0  0  0  0  0  0  0  0  0  0  0  0
    4.2277   -1.3623    4.0745 C   0  0  1  0  0  0  0  0  0  0  0  0
    3.7057   -0.4848    2.8954 C   0  0  0  0  0  0  0  0  0  0  0  0
    4.5351   -0.5144    1.5397 C   0  0  0  0  0  0  0  0  0  0  0  0
    4.3564   -1.7680    0.5811 C   0  0  1  0  0  0  0  0  0  0  0  0
    4.0548   -1.0582   -0.7717 C   0  0  0  0  0  0  0  0  0  0  0  0
    3.6114   -2.9151    1.3093 C   0  0  1  0  0  0  0  0  0  0  0  0
    3.2218   -2.2072    4.9429 C   0  0  2  0  0  0  0  0  0  0  0  0
    3.9502   -3.2347    5.8604 C   0  0  0  0  0  0  0  0  0  0  0  0
    4.2048   -4.4973    4.9791 C   0  0  0  0  0  0  0  0  0  0  0  0
    3.5780   -4.1452    3.6086 C   0  0  2  0  0  0  0  0  0  0  0  0
    3.0769   -5.4220    3.0184 N   0  0  0  0  0  0  0  0  0  0  0  0
    1.8480   -5.5888    2.9443 N   0  0  0  0  0  0  0  0  0  0  0  0
    1.4130   -6.9207    2.4222 C   0  0  0  0  0  0  0  0  0  0  0  0
    2.1139   -7.6440    1.7125 O   0  0  0  0  0  0  0  0  0  0  0  0
    0.0965   -7.3373    2.7780 N   0  0  0  0  0  0  0  0  0  0  0  0
   -0.4343   -8.4961    2.3905 C   0  0  0  0  0  0  0  0  0  0  0  0
   -1.6780   -8.6577    2.8256 N   0  0  0  0  0  0  0  0  0  0  0  0
   -1.8077   -7.5126    3.5663 C   0  0  0  0  0  0  0  0  0  0  0  0
   -0.7775   -6.6747    3.5555 N   0  0  0  0  0  0  0  0  0  0  0  0
    2.4273   -3.1984    4.0900 C   0  0  0  0  0  0  0  0  0  0  0  0
    2.2245   -4.4138   -1.3566 H   0  0  0  0  0  0  0  0  0  0  0  0
    3.5486   -3.5878   -2.1153 H   0  0  0  0  0  0  0  0  0  0  0  0
    2.3031   -2.7568   -1.1447 H   0  0  0  0  0  0  0  0  0  0  0  0
    4.3050   -5.8512    0.9678 H   0  0  0  0  0  0  0  0  0  0  0  0
    4.3819   -5.8110   -0.7378 H   0  0  0  0  0  0  0  0  0  0  0  0
    2.8363   -5.7995    0.0860 H   0  0  0  0  0  0  0  0  0  0  0  0
    5.8968   -3.1204   -0.4218 H   0  0  0  0  0  0  0  0  0  0  0  0
    5.8722   -4.8577    1.6587 H   0  0  0  0  0  0  0  0  0  0  0  0
    6.6648   -3.3859    1.9791 H   0  0  0  0  0  0  0  0  0  0  0  0
    5.8142   -2.7969    4.2144 H   0  0  0  0  0  0  0  0  0  0  0  0
    6.0149   -1.7428    2.9818 H   0  0  0  0  0  0  0  0  0  0  0  0
    4.7842   -0.7211    4.7563 H   0  0  0  0  0  0  0  0  0  0  0  0
    2.6576   -0.6934    2.6857 H   0  0  0  0  0  0  0  0  0  0  0  0
    3.7076    0.5429    3.2556 H   0  0  0  0  0  0  0  0  0  0  0  0
    4.1814    0.3935    1.0496 H   0  0  0  0  0  0  0  0  0  0  0  0
    5.5896   -0.2702    1.6727 H   0  0  0  0  0  0  0  0  0  0  0  0
    4.6618   -0.1711   -0.9112 H   0  0  0  0  0  0  0  0  0  0  0  0
    3.0174   -0.7361   -0.8520 H   0  0  0  0  0  0  0  0  0  0  0  0
    4.3231   -1.6322   -1.6527 H   0  0  0  0  0  0  0  0  0  0  0  0
    2.5597   -2.6954    1.4448 H   0  0  0  0  0  0  0  0  0  0  0  0
    2.5623   -1.5552    5.5203 H   0  0  0  0  0  0  0  0  0  0  0  0
    4.8681   -2.8393    6.2972 H   0  0  0  0  0  0  0  0  0  0  0  0
    3.3002   -3.5121    6.6932 H   0  0  0  0  0  0  0  0  0  0  0  0
    5.2557   -4.7814    4.9005 H   0  0  0  0  0  0  0  0  0  0  0  0
    3.6923   -5.3497    5.4295 H   0  0  0  0  0  0  0  0  0  0  0  0
    0.0802   -9.2160    1.7707 H   0  0  0  0  0  0  0  0  0  0  0  0
   -2.7223   -7.2497    4.0797 H   0  0  0  0  0  0  0  0  0  0  0  0
    1.7204   -3.7202    4.7377 H   0  0  0  0  0  0  0  0  0  0  0  0
    1.8216   -2.7149    3.3277 H   0  0  0  0  0  0  0  0  0  0  0  0
  1  2  1  0
  1 28  1  0
  1 29  1  0
  1 30  1  0
  2 13  1  0
  2  3  1  0
  2  4  1  0
  3 31  1  0
  3 32  1  0
  3 33  1  0
  4 11  1  0
  4  5  1  0
  4 34  1  6
  6  5  1  6
  5 35  1  0
  5 36  1  0
  6 13  1  0
  6 17  1  0
  6  7  1  0
  7  8  1  0
  7 37  1  0
  7 38  1  0
  8  9  1  0
  8 14  1  0
  8 39  1  1
  9 10  1  0
  9 40  1  0
  9 41  1  0
 10 11  1  0
 10 42  1  0
 10 43  1  0
 11 12  1  6
 11 13  1  0
 12 44  1  0
 12 45  1  0
 12 46  1  0
 13 47  1  1
 14 27  1  0
 14 15  1  0
 14 48  1  1
 15 16  1  0
 15 49  1  0
 15 50  1  0
 17 16  1  1
 16 51  1  0
 16 52  1  0
 17 18  1  0
 17 27  1  0
 18 19  2  3
 19 20  1  0
 20 21  2  0
 20 22  1  0
 22 26  1  0
 22 23  1  0
 23 24  2  0
 23 53  1  0
 24 25  1  0
 25 26  2  0
 25 54  1  0
 27 55  1  0
 27 56  1  0
M  END
>  <i_m_ct_stereo_status>  (90) 
1

>  <s_m_source_file>  (90) 
/var/tmp/pbs.5076255.sched01/tmp1pob34vh/39rbzpz6sd.sdf

>  <i_m_source_file_index>  (90) 
7

>  <i_lp_mmshare_version>  (90) 
48012

>  <i_f3d_flags>  (90) 
2

>  <s_epik_input>  (90) 
W0NIM11DMShbQ0gzXSlbQ0BASF0oW0NIMl0yKVtDQEBdKFtDSDNdKShbQ0BASF0xW0NAQF0yMzQpW0NIMl1bQ0gyXVtDSF0oW0NIMl0zKVtDQEBIXTVbQ0gyXVtDSDJdW0NAXTQoW0NIMl01KS9OPU4vQyg9TyluNltjSF1uW2NIXW42

>  <s_epik_cmdline>  (90) 
J2VwaWtfcHl0aG9uJywgJy1waHQnLCAnMi4wJywgJy1waCcsICc3LjAnLCAnLXRuJywgJzgnLCAnLW1hJywgJzIwMCcsICctaW1hZScsICc8aW5maWxlLm1hZT4nLCAnLW9tYWUnLCAnPG91dGZpbGUubWFlPic=

>  <r_lp_tautomer_probability>  (90) 
1

>  <r_epik_Ionization_Penalty>  (90) 
3.00182e-11

>  <r_epik_Ionization_Penalty_Charging>  (90) 
0

>  <r_epik_Ionization_Penalty_Neutral>  (90) 
3.00182e-11

>  <r_epik_State_Penalty>  (90) 
-0

>  <r_epik_Charging_Adjusted_Penalty>  (90) 
0

>  <i_epik_Tot_Q>  (90) 
0

>  <i_epik_Tot_abs_Q>  (90) 
0

>  <s_lp_Force_Field>  (90) 
OPLS3e

>  <r_lp_Energy>  (90) 
173.755

>  <b_lp_Chiralities_Consistent>  (90) 
0

>  <s_lp_Variant>  (90) 
31:0-1

>  <s_i_glide_gridfile>  (90) 
pfpi4k_grid

>  <i_i_glide_lignum>  (90) 
7

>  <i_i_glide_rotatable_bonds>  (90) 
3

>  <r_i_docking_score>  (90) 
-2.71784

>  <r_i_glide_ligand_efficiency>  (90) 
-0.100661

>  <r_i_glide_ligand_efficiency_sa>  (90) 
-0.301983

>  <r_i_glide_ligand_efficiency_ln>  (90) 
-0.632669

>  <r_i_glide_gscore>  (90) 
-2.71784

>  <r_i_glide_lipo>  (90) 
-0.341526

>  <r_i_glide_hbond>  (90) 
-0.130066

>  <r_i_glide_metal>  (90) 
-0

>  <r_i_glide_rewards>  (90) 
-0.903492

>  <r_i_glide_evdw>  (90) 
-22.3943

>  <r_i_glide_ecoul>  (90) 
-1.95969

>  <r_i_glide_erotb>  (90) 
0.285222

>  <r_i_glide_esite>  (90) 
-0.214313

>  <r_i_glide_emodel>  (90) 
-28.1567

>  <r_i_glide_energy>  (90) 
-24.3539

>  <r_i_glide_einternal>  (90) 
0.614944

>  <r_i_glide_intrahb_reward>  (90) 
-0

>  <i_i_glide_confnum>  (90) 
2

>  <i_i_glide_posenum>  (90) 
32

>  <r_i_glide_eff_state_penalty>  (90) 
0

>  <ligand_id>  (90) 
31

>  <original_smiles>  (90) 
CC1(C)C2CC34CC(CCC2(C)C13)C1CCC4(N=NC(=O)n2cncn2)C1

>  <smiles>  (90) 
[H]c1nc([H])n(C(=O)N=NC23C([H])([H])C([H])([H])C([H])(C2([H])[H])C2([H])C([H])([H])C([H])([H])C4(C([H])([H])[H])C5([H])C([H])([H])C3(C2([H])[H])C4([H])C5(C([H])([H])[H])C([H])([H])[H])n1

$$$$
31:0:2
     RDKit          3D

 56 61  0  0  1  0  0  0  0  0999 V2000
    3.7323   -3.9558   -0.4988 C   0  0  0  0  0  0  0  0  0  0  0  0
    4.0035   -3.6942    1.0126 C   0  0  0  0  0  0  0  0  0  0  0  0
    4.2802   -5.1588    1.4645 C   0  0  0  0  0  0  0  0  0  0  0  0
    4.9174   -2.5847    1.6422 C   0  0  2  0  0  0  0  0  0  0  0  0
    4.9123   -2.8648    3.1636 C   0  0  0  0  0  0  0  0  0  0  0  0
    3.3999   -2.6537    3.3473 C   0  0  1  0  0  0  0  0  0  0  0  0
    3.4669   -1.3080    4.1437 C   0  0  0  0  0  0  0  0  0  0  0  0
    2.1497   -0.5964    4.0698 C   0  0  1  0  0  0  0  0  0  0  0  0
    2.0290   -0.1053    2.5924 C   0  0  0  0  0  0  0  0  0  0  0  0
    3.3529   -0.1227    1.7104 C   0  0  0  0  0  0  0  0  0  0  0  0
    3.8433   -1.5142    1.1194 C   0  0  1  0  0  0  0  0  0  0  0  0
    4.0210   -1.1417   -0.3845 C   0  0  0  0  0  0  0  0  0  0  0  0
    3.0861   -2.6880    1.7895 C   0  0  1  0  0  0  0  0  0  0  0  0
    1.0459   -1.5378    4.6849 C   0  0  2  0  0  0  0  0  0  0  0  0
    1.4861   -2.1542    6.0457 C   0  0  0  0  0  0  0  0  0  0  0  0
    2.3281   -3.4231    5.6897 C   0  0  0  0  0  0  0  0  0  0  0  0
    2.3078   -3.4948    4.1431 C   0  0  2  0  0  0  0  0  0  0  0  0
    2.3576   -4.9401    3.7656 N   0  0  0  0  0  0  0  0  0  0  0  0
    1.3389   -5.4309    3.2456 N   0  0  0  0  0  0  0  0  0  0  0  0
    1.4238   -6.8952    2.9475 C   0  0  0  0  0  0  0  0  0  0  0  0
    2.4836   -7.4972    2.8060 O   0  0  0  0  0  0  0  0  0  0  0  0
    0.1802   -7.5781    2.8204 N   0  0  0  0  0  0  0  0  0  0  0  0
    0.0741   -8.8641    2.4980 C   0  0  0  0  0  0  0  0  0  0  0  0
   -1.1905   -9.2767    2.4809 N   0  0  0  0  0  0  0  0  0  0  0  0
   -1.8182   -8.1223    2.8520 C   0  0  0  0  0  0  0  0  0  0  0  0
   -1.0482   -7.0532    3.0278 N   0  0  0  0  0  0  0  0  0  0  0  0
    0.9062   -2.8405    3.8956 C   0  0  0  0  0  0  0  0  0  0  0  0
    3.3411   -4.9518   -0.7046 H   0  0  0  0  0  0  0  0  0  0  0  0
    4.6410   -3.8915   -1.0953 H   0  0  0  0  0  0  0  0  0  0  0  0
    2.9570   -3.3216   -0.9193 H   0  0  0  0  0  0  0  0  0  0  0  0
    4.4036   -5.3312    2.5276 H   0  0  0  0  0  0  0  0  0  0  0  0
    5.1927   -5.5490    1.0058 H   0  0  0  0  0  0  0  0  0  0  0  0
    3.4691   -5.8313    1.1807 H   0  0  0  0  0  0  0  0  0  0  0  0
    5.8991   -2.5204    1.1710 H   0  0  0  0  0  0  0  0  0  0  0  0
    5.2969   -3.8326    3.4687 H   0  0  0  0  0  0  0  0  0  0  0  0
    5.5880   -2.1691    3.6647 H   0  0  0  0  0  0  0  0  0  0  0  0
    3.7660   -1.4795    5.1753 H   0  0  0  0  0  0  0  0  0  0  0  0
    4.2721   -0.6261    3.8816 H   0  0  0  0  0  0  0  0  0  0  0  0
    2.2267    0.2817    4.7117 H   0  0  0  0  0  0  0  0  0  0  0  0
    1.2347   -0.6305    2.0616 H   0  0  0  0  0  0  0  0  0  0  0  0
    1.6836    0.9287    2.6384 H   0  0  0  0  0  0  0  0  0  0  0  0
    3.0784    0.5577    0.9029 H   0  0  0  0  0  0  0  0  0  0  0  0
    4.1786    0.4283    2.1624 H   0  0  0  0  0  0  0  0  0  0  0  0
    4.4600   -0.1524   -0.5091 H   0  0  0  0  0  0  0  0  0  0  0  0
    3.0777   -1.1358   -0.9322 H   0  0  0  0  0  0  0  0  0  0  0  0
    4.7469   -1.7543   -0.9102 H   0  0  0  0  0  0  0  0  0  0  0  0
    2.0533   -2.7512    1.4601 H   0  0  0  0  0  0  0  0  0  0  0  0
    0.0936   -1.0077    4.7726 H   0  0  0  0  0  0  0  0  0  0  0  0
    2.0351   -1.4488    6.6744 H   0  0  0  0  0  0  0  0  0  0  0  0
    0.6046   -2.4631    6.6131 H   0  0  0  0  0  0  0  0  0  0  0  0
    3.3401   -3.4065    6.0947 H   0  0  0  0  0  0  0  0  0  0  0  0
    1.8405   -4.2974    6.1246 H   0  0  0  0  0  0  0  0  0  0  0  0
    0.9155   -9.5011    2.2678 H   0  0  0  0  0  0  0  0  0  0  0  0
   -2.8840   -8.0530    2.9526 H   0  0  0  0  0  0  0  0  0  0  0  0
    0.0942   -3.4254    4.3341 H   0  0  0  0  0  0  0  0  0  0  0  0
    0.6112   -2.6623    2.8686 H   0  0  0  0  0  0  0  0  0  0  0  0
  1  2  1  0
  1 28  1  0
  1 29  1  0
  1 30  1  0
  2 13  1  0
  2  3  1  0
  2  4  1  0
  3 31  1  0
  3 32  1  0
  3 33  1  0
  4 11  1  0
  4  5  1  0
  4 34  1  6
  6  5  1  6
  5 35  1  0
  5 36  1  0
  6 13  1  0
  6 17  1  0
  6  7  1  0
  7  8  1  0
  7 37  1  0
  7 38  1  0
  8  9  1  0
  8 14  1  0
  8 39  1  1
  9 10  1  0
  9 40  1  0
  9 41  1  0
 10 11  1  0
 10 42  1  0
 10 43  1  0
 11 12  1  6
 11 13  1  0
 12 44  1  0
 12 45  1  0
 12 46  1  0
 13 47  1  1
 14 27  1  0
 14 15  1  0
 14 48  1  1
 15 16  1  0
 15 49  1  0
 15 50  1  0
 17 16  1  1
 16 51  1  0
 16 52  1  0
 17 18  1  0
 17 27  1  0
 18 19  2  3
 19 20  1  0
 20 21  2  0
 20 22  1  0
 22 26  1  0
 22 23  1  0
 23 24  2  0
 23 53  1  0
 24 25  1  0
 25 26  2  0
 25 54  1  0
 27 55  1  0
 27 56  1  0
M  END
>  <i_m_ct_stereo_status>  (91) 
1

>  <s_m_source_file>  (91) 
/var/tmp/pbs.5076255.sched01/tmp1pob34vh/39rbzpz6sd.sdf

>  <i_m_source_file_index>  (91) 
7

>  <i_lp_mmshare_version>  (91) 
48012

>  <i_f3d_flags>  (91) 
2

>  <s_epik_input>  (91) 
W0NIM11DMShbQ0gzXSlbQ0BASF0oW0NIMl0yKVtDQEBdKFtDSDNdKShbQ0BASF0xW0NAQF0yMzQpW0NIMl1bQ0gyXVtDSF0oW0NIMl0zKVtDQEBIXTVbQ0gyXVtDSDJdW0NAXTQoW0NIMl01KS9OPU4vQyg9TyluNltjSF1uW2NIXW42

>  <s_epik_cmdline>  (91) 
J2VwaWtfcHl0aG9uJywgJy1waHQnLCAnMi4wJywgJy1waCcsICc3LjAnLCAnLXRuJywgJzgnLCAnLW1hJywgJzIwMCcsICctaW1hZScsICc8aW5maWxlLm1hZT4nLCAnLW9tYWUnLCAnPG91dGZpbGUubWFlPic=

>  <r_lp_tautomer_probability>  (91) 
1

>  <r_epik_Ionization_Penalty>  (91) 
3.00182e-11

>  <r_epik_Ionization_Penalty_Charging>  (91) 
0

>  <r_epik_Ionization_Penalty_Neutral>  (91) 
3.00182e-11

>  <r_epik_State_Penalty>  (91) 
-0

>  <r_epik_Charging_Adjusted_Penalty>  (91) 
0

>  <i_epik_Tot_Q>  (91) 
0

>  <i_epik_Tot_abs_Q>  (91) 
0

>  <s_lp_Force_Field>  (91) 
OPLS3e

>  <r_lp_Energy>  (91) 
173.755

>  <b_lp_Chiralities_Consistent>  (91) 
0

>  <s_lp_Variant>  (91) 
31:0-1

>  <s_i_glide_gridfile>  (91) 
pfpi4k_grid

>  <i_i_glide_lignum>  (91) 
7

>  <i_i_glide_rotatable_bonds>  (91) 
3

>  <r_i_docking_score>  (91) 
-2.51577

>  <r_i_glide_ligand_efficiency>  (91) 
-0.0931768

>  <r_i_glide_ligand_efficiency_sa>  (91) 
-0.27953

>  <r_i_glide_ligand_efficiency_ln>  (91) 
-0.585631

>  <r_i_glide_gscore>  (91) 
-2.51577

>  <r_i_glide_lipo>  (91) 
-0.156431

>  <r_i_glide_hbond>  (91) 
-0.16

>  <r_i_glide_metal>  (91) 
-0

>  <r_i_glide_rewards>  (91) 
-0.903492

>  <r_i_glide_evdw>  (91) 
-23.2597

>  <r_i_glide_ecoul>  (91) 
-1.76917

>  <r_i_glide_erotb>  (91) 
0.285222

>  <r_i_glide_esite>  (91) 
-0.152713

>  <r_i_glide_emodel>  (91) 
-28.4485

>  <r_i_glide_energy>  (91) 
-25.0289

>  <r_i_glide_einternal>  (91) 
0.688321

>  <r_i_glide_intrahb_reward>  (91) 
-0

>  <i_i_glide_confnum>  (91) 
1

>  <i_i_glide_posenum>  (91) 
34

>  <r_i_glide_eff_state_penalty>  (91) 
0

>  <ligand_id>  (91) 
31

>  <original_smiles>  (91) 
CC1(C)C2CC34CC(CCC2(C)C13)C1CCC4(N=NC(=O)n2cncn2)C1

>  <smiles>  (91) 
[H]c1nc([H])n(C(=O)N=NC23C([H])([H])C([H])([H])C([H])(C2([H])[H])C2([H])C([H])([H])C([H])([H])C4(C([H])([H])[H])C5([H])C([H])([H])C3(C2([H])[H])C4([H])C5(C([H])([H])[H])C([H])([H])[H])n1

$$$$
33:0:0
     RDKit          3D

 67 71  0  0  1  0  0  0  0  0999 V2000
   -1.1251   -9.8018    2.4166 C   0  0  0  0  0  0  0  0  0  0  0  0
   -0.2650   -8.7950    2.5443 C   0  0  0  0  0  0  0  0  0  0  0  0
   -0.6613   -7.4523    2.9647 C   0  0  0  0  0  0  0  0  0  0  0  0
   -1.7771   -7.0998    3.3817 O   0  0  0  0  0  0  0  0  0  0  0  0
    0.3974   -6.6524    2.7949 O   0  0  0  0  0  0  0  0  0  0  0  0
    1.4994   -7.2988    2.1554 C   0  0  1  0  0  0  0  0  0  0  0  0
    2.8529   -6.7340    2.6605 C   0  0  2  0  0  0  0  0  0  0  0  0
    2.9747   -6.8788    4.2051 C   0  0  0  0  0  0  0  0  0  0  0  0
    3.0653   -5.2624    2.1634 C   0  0  2  0  0  0  0  0  0  0  0  0
    3.3551   -5.1271    0.6338 C   0  0  1  0  0  0  0  0  0  0  0  0
    2.1703   -4.9337   -0.1176 O   0  0  0  0  0  0  0  0  0  0  0  0
    4.2863   -3.9046    0.4462 C   0  0  0  0  0  0  0  0  0  0  0  0
    4.2440   -3.2211    1.8123 C   0  0  2  0  0  0  0  0  0  0  0  0
    5.3310   -2.1840    2.1917 C   0  0  1  0  0  0  0  0  0  0  0  0
    5.6667   -1.1624    1.1142 C   0  0  0  0  0  0  0  0  0  0  0  0
    4.5630   -0.1493    0.9813 C   0  0  0  0  0  0  0  0  0  0  0  0
    3.8197    0.2296    2.0264 C   0  0  0  0  0  0  0  0  0  0  0  0
    2.5737    1.0687    1.9061 C   0  0  0  0  0  0  0  0  0  0  0  0
    1.5669    0.2616    2.7262 C   0  0  0  0  0  0  0  0  0  0  0  0
    2.4464   -0.4894    3.7212 C   0  0  0  0  0  0  0  0  0  0  0  0
    1.9812   -1.0866    4.7032 O   0  0  0  0  0  0  0  0  0  0  0  0
    3.9406   -0.2864    3.4479 C   0  0  2  0  0  0  0  0  0  0  0  0
    4.4311    0.8439    4.3853 C   0  0  0  0  0  0  0  0  0  0  0  0
    4.9558   -1.5059    3.5532 C   0  0  1  0  0  0  0  0  0  0  0  0
    4.7149   -2.6038    4.6151 C   0  0  1  0  0  0  0  0  0  0  0  0
    4.3294   -2.0656    5.8619 O   0  0  0  0  0  0  0  0  0  0  0  0
    3.7626   -3.7374    4.1835 C   0  0  0  0  0  0  0  0  0  0  0  0
    4.1560   -4.3847    2.8294 C   0  0  1  0  0  0  0  0  0  0  0  0
    5.5029   -5.1729    2.9251 C   0  0  0  0  0  0  0  0  0  0  0  0
    1.1969   -8.8147    2.2357 C   0  0  1  0  0  0  0  0  0  0  0  0
    1.9048   -9.7305    3.2609 C   0  0  0  0  0  0  0  0  0  0  0  0
   -0.7399  -10.7244    2.0143 H   0  0  0  0  0  0  0  0  0  0  0  0
   -2.1778   -9.7295    2.6519 H   0  0  0  0  0  0  0  0  0  0  0  0
    1.3964   -7.0279    1.1081 H   0  0  0  0  0  0  0  0  0  0  0  0
    3.6385   -7.3430    2.2109 H   0  0  0  0  0  0  0  0  0  0  0  0
    2.3952   -6.1004    4.6967 H   0  0  0  0  0  0  0  0  0  0  0  0
    4.0005   -6.8284    4.5387 H   0  0  0  0  0  0  0  0  0  0  0  0
    2.5487   -7.7871    4.6187 H   0  0  0  0  0  0  0  0  0  0  0  0
    2.1329   -4.7320    2.3330 H   0  0  0  0  0  0  0  0  0  0  0  0
    3.8470   -6.0147    0.2234 H   0  0  0  0  0  0  0  0  0  0  0  0
    2.4005   -4.9745   -1.0408 H   0  0  0  0  0  0  0  0  0  0  0  0
    5.3006   -4.2366    0.2247 H   0  0  0  0  0  0  0  0  0  0  0  0
    3.9887   -3.2333   -0.3608 H   0  0  0  0  0  0  0  0  0  0  0  0
    3.2922   -2.6799    1.8257 H   0  0  0  0  0  0  0  0  0  0  0  0
    6.2754   -2.7038    2.3256 H   0  0  0  0  0  0  0  0  0  0  0  0
    6.5909   -0.6425    1.3753 H   0  0  0  0  0  0  0  0  0  0  0  0
    5.8095   -1.6440    0.1474 H   0  0  0  0  0  0  0  0  0  0  0  0
    4.3685    0.2456    0.0043 H   0  0  0  0  0  0  0  0  0  0  0  0
    2.7441    2.0548    2.3305 H   0  0  0  0  0  0  0  0  0  0  0  0
    2.2613    1.1793    0.8932 H   0  0  0  0  0  0  0  0  0  0  0  0
    0.8384    0.9053    3.2198 H   0  0  0  0  0  0  0  0  0  0  0  0
    1.0134   -0.4329    2.0724 H   0  0  0  0  0  0  0  0  0  0  0  0
    3.7468    1.6881    4.3921 H   0  0  0  0  0  0  0  0  0  0  0  0
    5.4068    1.2218    4.0876 H   0  0  0  0  0  0  0  0  0  0  0  0
    4.5320    0.5074    5.4148 H   0  0  0  0  0  0  0  0  0  0  0  0
    5.8839   -1.0309    3.8779 H   0  0  0  0  0  0  0  0  0  0  0  0
    5.6727   -3.0766    4.8062 H   0  0  0  0  0  0  0  0  0  0  0  0
    3.4701   -1.6754    5.7537 H   0  0  0  0  0  0  0  0  0  0  0  0
    3.7632   -4.4669    4.9780 H   0  0  0  0  0  0  0  0  0  0  0  0
    2.7386   -3.3775    4.1087 H   0  0  0  0  0  0  0  0  0  0  0  0
    6.3387   -4.5380    3.1899 H   0  0  0  0  0  0  0  0  0  0  0  0
    5.8089   -5.5942    1.9667 H   0  0  0  0  0  0  0  0  0  0  0  0
    5.5083   -5.9646    3.6474 H   0  0  0  0  0  0  0  0  0  0  0  0
    1.4031   -9.2706    1.2820 H   0  0  0  0  0  0  0  0  0  0  0  0
    1.6936  -10.7903    3.0785 H   0  0  0  0  0  0  0  0  0  0  0  0
    1.5475   -9.5457    4.2825 H   0  0  0  0  0  0  0  0  0  0  0  0
    2.9858   -9.6104    3.2246 H   0  0  0  0  0  0  0  0  0  0  0  0
  1  2  2  0
  1 32  1  0
  1 33  1  0
  2 30  1  0
  2  3  1  0
  3  4  2  0
  3  5  1  0
  5  6  1  0
  6  7  1  0
  6 30  1  0
  6 34  1  6
  7  8  1  0
  7  9  1  0
  7 35  1  6
  8 36  1  0
  8 37  1  0
  8 38  1  0
  9 28  1  0
  9 10  1  0
  9 39  1  6
 10 11  1  0
 10 12  1  0
 10 40  1  6
 11 41  1  0
 12 13  1  0
 12 42  1  0
 12 43  1  0
 13 28  1  0
 13 14  1  0
 13 44  1  6
 14 24  1  0
 14 15  1  0
 14 45  1  1
 15 16  1  0
 15 46  1  0
 15 47  1  0
 16 17  2  0
 16 48  1  0
 17 22  1  0
 17 18  1  0
 18 19  1  0
 18 49  1  0
 18 50  1  0
 19 20  1  0
 19 51  1  0
 19 52  1  0
 20 21  2  0
 20 22  1  0
 22 23  1  1
 22 24  1  0
 23 53  1  0
 23 54  1  0
 23 55  1  0
 24 25  1  0
 24 56  1  1
 25 26  1  0
 25 27  1  0
 25 57  1  1
 26 58  1  0
 27 28  1  0
 27 59  1  0
 27 60  1  0
 28 29  1  1
 29 61  1  0
 29 62  1  0
 29 63  1  0
 30 31  1  0
 30 64  1  6
 31 65  1  0
 31 66  1  0
 31 67  1  0
M  END
>  <i_m_ct_stereo_status>  (92) 
1

>  <s_m_source_file>  (92) 
/var/tmp/pbs.5076255.sched01/tmp1pob34vh/39rbzpz6sd.sdf

>  <i_m_source_file_index>  (92) 
11

>  <i_lp_mmshare_version>  (92) 
48012

>  <i_f3d_flags>  (92) 
0

>  <s_epik_input>  (92) 
W0NIMl09QzFDKD1PKU9bQ0BIXShbQ0BIXTFbQ0gzXSlbQ0BIXShbQ0gzXSlbQ0BIXShbQ0BASF0oW09IXSlbQ0gyXTIpW0NAXShbQ0gzXSkoW0NIMl1bQ0BASF0oW0NAQEhdMzQpW09IXSlbQ0BIXTJbQ0BIXTNbQ0gyXVtDSF09QyhbQ0BdNDVbQ0gzXSlbQ0gyXVtDSDJdQzU9Tw==

>  <s_epik_cmdline>  (92) 
J2VwaWtfcHl0aG9uJywgJy1waHQnLCAnMi4wJywgJy1waCcsICc3LjAnLCAnLXRuJywgJzgnLCAnLW1hJywgJzIwMCcsICctaW1hZScsICc8aW5maWxlLm1hZT4nLCAnLW9tYWUnLCAnPG91dGZpbGUubWFlPic=

>  <r_lp_tautomer_probability>  (92) 
1

>  <r_epik_Ionization_Penalty>  (92) 
1.25053e-06

>  <r_epik_Ionization_Penalty_Charging>  (92) 
0

>  <r_epik_Ionization_Penalty_Neutral>  (92) 
1.25053e-06

>  <r_epik_State_Penalty>  (92) 
-0

>  <r_epik_Charging_Adjusted_Penalty>  (92) 
0

>  <i_epik_Tot_Q>  (92) 
0

>  <i_epik_Tot_abs_Q>  (92) 
0

>  <s_epik_Chemistry_Notes>  (92) 
This compound has an ester and may undergo hydrolysis at high or low pH.

>  <s_lp_Force_Field>  (92) 
OPLS3e

>  <r_lp_Energy>  (92) 
44.1363

>  <b_lp_Chiralities_Consistent>  (92) 
1

>  <s_lp_Variant>  (92) 
33:0-1

>  <s_i_glide_gridfile>  (92) 
pfpi4k_grid

>  <i_i_glide_lignum>  (92) 
11

>  <i_i_glide_rotatable_bonds>  (92) 
4

>  <r_i_docking_score>  (92) 
-3.89571

>  <r_i_glide_ligand_efficiency>  (92) 
-0.125668

>  <r_i_glide_ligand_efficiency_sa>  (92) 
-0.394771

>  <r_i_glide_ligand_efficiency_ln>  (92) 
-0.878602

>  <r_i_glide_gscore>  (92) 
-3.89571

>  <r_i_glide_lipo>  (92) 
-0.670094

>  <r_i_glide_hbond>  (92) 
-0.404066

>  <r_i_glide_metal>  (92) 
-0

>  <r_i_glide_rewards>  (92) 
-0.987084

>  <r_i_glide_evdw>  (92) 
-21.3337

>  <r_i_glide_ecoul>  (92) 
-6.08452

>  <r_i_glide_erotb>  (92) 
0.216316

>  <r_i_glide_esite>  (92) 
-0.0714161

>  <r_i_glide_emodel>  (92) 
-38.917

>  <r_i_glide_energy>  (92) 
-27.4183

>  <r_i_glide_einternal>  (92) 
2.60982

>  <r_i_glide_intrahb_reward>  (92) 
-0.5

>  <i_i_glide_confnum>  (92) 
1

>  <i_i_glide_posenum>  (92) 
11

>  <r_i_glide_eff_state_penalty>  (92) 
0

>  <ligand_id>  (92) 
33

>  <original_smiles>  (92) 
C=C1C(=O)OC(C(C)C2C(O)CC3C4CC=C5CCC(=O)C5(C)C4C(O)CC32C)C1C

>  <smiles>  (92) 
[H]OC1([H])C([H])([H])C2(C([H])([H])[H])C([H])(C([H])([H])C([H])(O[H])C2([H])C([H])(C([H])([H])[H])C2([H])OC(=O)C(=C([H])[H])C2([H])C([H])([H])[H])C2([H])C([H])([H])C([H])=C3C([H])([H])C([H])([H])C(=O)C3(C([H])([H])[H])C12[H]

$$$$
33:0:1
     RDKit          3D

 67 71  0  0  1  0  0  0  0  0999 V2000
   -0.5385  -10.1665    2.4840 C   0  0  0  0  0  0  0  0  0  0  0  0
    0.0861   -9.0226    2.7488 C   0  0  0  0  0  0  0  0  0  0  0  0
   -0.5952   -7.7405    2.9126 C   0  0  0  0  0  0  0  0  0  0  0  0
   -1.8047   -7.5542    2.9840 O   0  0  0  0  0  0  0  0  0  0  0  0
    0.3388   -6.7917    2.9788 O   0  0  0  0  0  0  0  0  0  0  0  0
    1.6537   -7.2625    2.7021 C   0  0  1  0  0  0  0  0  0  0  0  0
    2.7454   -6.4594    3.4655 C   0  0  2  0  0  0  0  0  0  0  0  0
    2.4651   -6.4214    4.9898 C   0  0  0  0  0  0  0  0  0  0  0  0
    2.8851   -5.0178    2.8562 C   0  0  2  0  0  0  0  0  0  0  0  0
    3.4087   -4.9798    1.3797 C   0  0  1  0  0  0  0  0  0  0  0  0
    2.3316   -4.9669    0.4561 O   0  0  0  0  0  0  0  0  0  0  0  0
    4.2576   -3.6936    1.2365 C   0  0  0  0  0  0  0  0  0  0  0  0
    3.9424   -2.9041    2.5088 C   0  0  2  0  0  0  0  0  0  0  0  0
    4.8705   -1.7430    2.9461 C   0  0  1  0  0  0  0  0  0  0  0  0
    5.2810   -0.7750    1.8290 C   0  0  0  0  0  0  0  0  0  0  0  0
    4.1441    0.1363    1.4493 C   0  0  0  0  0  0  0  0  0  0  0  0
    3.2166    0.5325    2.3313 C   0  0  0  0  0  0  0  0  0  0  0  0
    1.9301    1.2093    1.9513 C   0  0  0  0  0  0  0  0  0  0  0  0
    0.8858    0.3683    2.6702 C   0  0  0  0  0  0  0  0  0  0  0  0
    1.6596   -0.2117    3.8533 C   0  0  0  0  0  0  0  0  0  0  0  0
    1.1172   -0.7619    4.8043 O   0  0  0  0  0  0  0  0  0  0  0  0
    3.1665    0.1175    3.7867 C   0  0  2  0  0  0  0  0  0  0  0  0
    3.4008    1.3630    4.6707 C   0  0  0  0  0  0  0  0  0  0  0  0
    4.2474   -0.9877    4.1580 C   0  0  1  0  0  0  0  0  0  0  0  0
    3.9168   -2.0189    5.2763 C   0  0  1  0  0  0  0  0  0  0  0  0
    3.3007   -1.4276    6.3985 O   0  0  0  0  0  0  0  0  0  0  0  0
    3.1307   -3.2721    4.8091 C   0  0  0  0  0  0  0  0  0  0  0  0
    3.7923   -3.9897    3.5982 C   0  0  1  0  0  0  0  0  0  0  0  0
    5.1625   -4.6356    3.9888 C   0  0  0  0  0  0  0  0  0  0  0  0
    1.5662   -8.8085    2.8411 C   0  0  1  0  0  0  0  0  0  0  0  0
    2.1011   -9.5067    4.1127 C   0  0  0  0  0  0  0  0  0  0  0  0
    0.0262  -11.0757    2.3284 H   0  0  0  0  0  0  0  0  0  0  0  0
   -1.6159  -10.2226    2.4077 H   0  0  0  0  0  0  0  0  0  0  0  0
    1.7835   -7.0853    1.6332 H   0  0  0  0  0  0  0  0  0  0  0  0
    3.6883   -6.9754    3.2809 H   0  0  0  0  0  0  0  0  0  0  0  0
    1.6936   -5.6865    5.2091 H   0  0  0  0  0  0  0  0  0  0  0  0
    3.3610   -6.1888    5.5627 H   0  0  0  0  0  0  0  0  0  0  0  0
    2.1063   -7.3556    5.4003 H   0  0  0  0  0  0  0  0  0  0  0  0
    1.8878   -4.5751    2.8399 H   0  0  0  0  0  0  0  0  0  0  0  0
    4.0330   -5.8460    1.1525 H   0  0  0  0  0  0  0  0  0  0  0  0
    2.6921   -4.9885   -0.4262 H   0  0  0  0  0  0  0  0  0  0  0  0
    5.3201   -3.9480    1.2020 H   0  0  0  0  0  0  0  0  0  0  0  0
    4.0373   -3.1187    0.3331 H   0  0  0  0  0  0  0  0  0  0  0  0
    2.9617   -2.4561    2.3242 H   0  0  0  0  0  0  0  0  0  0  0  0
    5.8139   -2.1682    3.2696 H   0  0  0  0  0  0  0  0  0  0  0  0
    6.1124   -0.1583    2.1672 H   0  0  0  0  0  0  0  0  0  0  0  0
    5.6045   -1.3195    0.9420 H   0  0  0  0  0  0  0  0  0  0  0  0
    4.0799    0.4349    0.4147 H   0  0  0  0  0  0  0  0  0  0  0  0
    1.9251    2.2417    2.2951 H   0  0  0  0  0  0  0  0  0  0  0  0
    1.7744    1.1898    0.8844 H   0  0  0  0  0  0  0  0  0  0  0  0
    0.0304    0.9532    2.9965 H   0  0  0  0  0  0  0  0  0  0  0  0
    0.5191   -0.4315    2.0223 H   0  0  0  0  0  0  0  0  0  0  0  0
    2.6408    2.1232    4.5019 H   0  0  0  0  0  0  0  0  0  0  0  0
    4.3642    1.8263    4.4539 H   0  0  0  0  0  0  0  0  0  0  0  0
    3.3809    1.1269    5.7352 H   0  0  0  0  0  0  0  0  0  0  0  0
    5.0806   -0.4182    4.5789 H   0  0  0  0  0  0  0  0  0  0  0  0
    4.8677   -2.3848    5.6572 H   0  0  0  0  0  0  0  0  0  0  0  0
    2.4452   -1.1065    6.1190 H   0  0  0  0  0  0  0  0  0  0  0  0
    3.0600   -3.9391    5.6632 H   0  0  0  0  0  0  0  0  0  0  0  0
    2.0999   -3.0188    4.5521 H   0  0  0  0  0  0  0  0  0  0  0  0
    5.8650   -3.9098    4.3856 H   0  0  0  0  0  0  0  0  0  0  0  0
    5.6462   -5.1155    3.1359 H   0  0  0  0  0  0  0  0  0  0  0  0
    5.0856   -5.3922    4.7671 H   0  0  0  0  0  0  0  0  0  0  0  0
    2.0345   -9.2841    1.9769 H   0  0  0  0  0  0  0  0  0  0  0  0
    2.0973  -10.5966    4.0096 H   0  0  0  0  0  0  0  0  0  0  0  0
    1.4738   -9.3025    4.9847 H   0  0  0  0  0  0  0  0  0  0  0  0
    3.1277   -9.2084    4.3302 H   0  0  0  0  0  0  0  0  0  0  0  0
  1  2  2  0
  1 32  1  0
  1 33  1  0
  2 30  1  0
  2  3  1  0
  3  4  2  0
  3  5  1  0
  5  6  1  0
  6  7  1  0
  6 30  1  0
  6 34  1  6
  7  8  1  0
  7  9  1  0
  7 35  1  1
  8 36  1  0
  8 37  1  0
  8 38  1  0
  9 28  1  0
  9 10  1  0
  9 39  1  6
 10 11  1  0
 10 12  1  0
 10 40  1  6
 11 41  1  0
 12 13  1  0
 12 42  1  0
 12 43  1  0
 13 28  1  0
 13 14  1  0
 13 44  1  6
 14 24  1  0
 14 15  1  0
 14 45  1  1
 15 16  1  0
 15 46  1  0
 15 47  1  0
 16 17  2  0
 16 48  1  0
 17 22  1  0
 17 18  1  0
 18 19  1  0
 18 49  1  0
 18 50  1  0
 19 20  1  0
 19 51  1  0
 19 52  1  0
 20 21  2  0
 20 22  1  0
 22 23  1  1
 22 24  1  0
 23 53  1  0
 23 54  1  0
 23 55  1  0
 24 25  1  0
 24 56  1  1
 25 26  1  0
 25 27  1  0
 25 57  1  1
 26 58  1  0
 27 28  1  0
 27 59  1  0
 27 60  1  0
 28 29  1  1
 29 61  1  0
 29 62  1  0
 29 63  1  0
 30 31  1  0
 30 64  1  6
 31 65  1  0
 31 66  1  0
 31 67  1  0
M  END
>  <i_m_ct_stereo_status>  (93) 
1

>  <s_m_source_file>  (93) 
/var/tmp/pbs.5076255.sched01/tmp1pob34vh/39rbzpz6sd.sdf

>  <i_m_source_file_index>  (93) 
11

>  <i_lp_mmshare_version>  (93) 
48012

>  <i_f3d_flags>  (93) 
0

>  <s_epik_input>  (93) 
W0NIMl09QzFDKD1PKU9bQ0BIXShbQ0BIXTFbQ0gzXSlbQ0BIXShbQ0gzXSlbQ0BIXShbQ0BASF0oW09IXSlbQ0gyXTIpW0NAXShbQ0gzXSkoW0NIMl1bQ0BASF0oW0NAQEhdMzQpW09IXSlbQ0BIXTJbQ0BIXTNbQ0gyXVtDSF09QyhbQ0BdNDVbQ0gzXSlbQ0gyXVtDSDJdQzU9Tw==

>  <s_epik_cmdline>  (93) 
J2VwaWtfcHl0aG9uJywgJy1waHQnLCAnMi4wJywgJy1waCcsICc3LjAnLCAnLXRuJywgJzgnLCAnLW1hJywgJzIwMCcsICctaW1hZScsICc8aW5maWxlLm1hZT4nLCAnLW9tYWUnLCAnPG91dGZpbGUubWFlPic=

>  <r_lp_tautomer_probability>  (93) 
1

>  <r_epik_Ionization_Penalty>  (93) 
1.25053e-06

>  <r_epik_Ionization_Penalty_Charging>  (93) 
0

>  <r_epik_Ionization_Penalty_Neutral>  (93) 
1.25053e-06

>  <r_epik_State_Penalty>  (93) 
-0

>  <r_epik_Charging_Adjusted_Penalty>  (93) 
0

>  <i_epik_Tot_Q>  (93) 
0

>  <i_epik_Tot_abs_Q>  (93) 
0

>  <s_epik_Chemistry_Notes>  (93) 
This compound has an ester and may undergo hydrolysis at high or low pH.

>  <s_lp_Force_Field>  (93) 
OPLS3e

>  <r_lp_Energy>  (93) 
44.1363

>  <b_lp_Chiralities_Consistent>  (93) 
1

>  <s_lp_Variant>  (93) 
33:0-1

>  <s_i_glide_gridfile>  (93) 
pfpi4k_grid

>  <i_i_glide_lignum>  (93) 
11

>  <i_i_glide_rotatable_bonds>  (93) 
4

>  <r_i_docking_score>  (93) 
-2.94881

>  <r_i_glide_ligand_efficiency>  (93) 
-0.095123

>  <r_i_glide_ligand_efficiency_sa>  (93) 
-0.298818

>  <r_i_glide_ligand_efficiency_ln>  (93) 
-0.665048

>  <r_i_glide_gscore>  (93) 
-2.94881

>  <r_i_glide_lipo>  (93) 
-0.397353

>  <r_i_glide_hbond>  (93) 
-0.00193792

>  <r_i_glide_metal>  (93) 
-0

>  <r_i_glide_rewards>  (93) 
-0.987084

>  <r_i_glide_evdw>  (93) 
-21.3328

>  <r_i_glide_ecoul>  (93) 
-4.30118

>  <r_i_glide_erotb>  (93) 
0.216316

>  <r_i_glide_esite>  (93) 
-0.0669367

>  <r_i_glide_emodel>  (93) 
-36.4202

>  <r_i_glide_energy>  (93) 
-25.634

>  <r_i_glide_einternal>  (93) 
1.17196

>  <r_i_glide_intrahb_reward>  (93) 
-0.5

>  <i_i_glide_confnum>  (93) 
2

>  <i_i_glide_posenum>  (93) 
24

>  <r_i_glide_eff_state_penalty>  (93) 
0

>  <ligand_id>  (93) 
33

>  <original_smiles>  (93) 
C=C1C(=O)OC(C(C)C2C(O)CC3C4CC=C5CCC(=O)C5(C)C4C(O)CC32C)C1C

>  <smiles>  (93) 
[H]OC1([H])C([H])([H])C2(C([H])([H])[H])C([H])(C([H])([H])C([H])(O[H])C2([H])C([H])(C([H])([H])[H])C2([H])OC(=O)C(=C([H])[H])C2([H])C([H])([H])[H])C2([H])C([H])([H])C([H])=C3C([H])([H])C([H])([H])C(=O)C3(C([H])([H])[H])C12[H]

$$$$
33:0:2
     RDKit          3D

 67 71  0  0  1  0  0  0  0  0999 V2000
    0.2330  -10.2751    2.8978 C   0  0  0  0  0  0  0  0  0  0  0  0
    0.2365   -8.9944    3.2955 C   0  0  0  0  0  0  0  0  0  0  0  0
   -0.7122   -8.0018    2.8113 C   0  0  0  0  0  0  0  0  0  0  0  0
   -1.7267   -8.2249    2.1477 O   0  0  0  0  0  0  0  0  0  0  0  0
   -0.3121   -6.7954    3.2416 O   0  0  0  0  0  0  0  0  0  0  0  0
    0.9604   -6.8206    3.8840 C   0  0  1  0  0  0  0  0  0  0  0  0
    1.1333   -5.7307    4.9863 C   0  0  2  0  0  0  0  0  0  0  0  0
   -0.1084   -5.6661    5.9004 C   0  0  0  0  0  0  0  0  0  0  0  0
    1.4817   -4.3319    4.3674 C   0  0  2  0  0  0  0  0  0  0  0  0
    2.7893   -4.3276    3.5151 C   0  0  1  0  0  0  0  0  0  0  0  0
    2.4815   -4.5102    2.1459 O   0  0  0  0  0  0  0  0  0  0  0  0
    3.4653   -2.9573    3.7103 C   0  0  0  0  0  0  0  0  0  0  0  0
    2.3898   -2.1203    4.3990 C   0  0  2  0  0  0  0  0  0  0  0  0
    2.7893   -0.7966    5.1048 C   0  0  1  0  0  0  0  0  0  0  0  0
    3.7261    0.1230    4.2988 C   0  0  0  0  0  0  0  0  0  0  0  0
    2.9945    0.8178    3.1824 C   0  0  0  0  0  0  0  0  0  0  0  0
    1.6967    1.1421    3.2695 C   0  0  0  0  0  0  0  0  0  0  0  0
    0.8681    1.5630    2.0877 C   0  0  0  0  0  0  0  0  0  0  0  0
   -0.3498    0.6507    2.1947 C   0  0  0  0  0  0  0  0  0  0  0  0
   -0.4083    0.3010    3.6840 C   0  0  0  0  0  0  0  0  0  0  0  0
   -1.3771   -0.2451    4.2068 O   0  0  0  0  0  0  0  0  0  0  0  0
    0.7987    0.8516    4.4635 C   0  0  2  0  0  0  0  0  0  0  0  0
    0.3630    2.1934    5.0920 C   0  0  0  0  0  0  0  0  0  0  0  0
    1.5029   -0.0494    5.5717 C   0  0  1  0  0  0  0  0  0  0  0  0
    0.6272   -1.0156    6.4281 C   0  0  1  0  0  0  0  0  0  0  0  0
   -0.5735   -0.4068    6.8573 O   0  0  0  0  0  0  0  0  0  0  0  0
    0.3642   -2.4102    5.7891 C   0  0  0  0  0  0  0  0  0  0  0  0
    1.6691   -3.1168    5.3348 C   0  0  1  0  0  0  0  0  0  0  0  0
    2.5365   -3.5366    6.5619 C   0  0  0  0  0  0  0  0  0  0  0  0
    1.2038   -8.3139    4.2234 C   0  0  1  0  0  0  0  0  0  0  0  0
    0.9787   -8.7872    5.6734 C   0  0  0  0  0  0  0  0  0  0  0  0
    0.9585  -10.9839    3.2673 H   0  0  0  0  0  0  0  0  0  0  0  0
   -0.5061  -10.6375    2.1957 H   0  0  0  0  0  0  0  0  0  0  0  0
    1.6726   -6.6087    3.0921 H   0  0  0  0  0  0  0  0  0  0  0  0
    1.9869   -6.0356    5.5949 H   0  0  0  0  0  0  0  0  0  0  0  0
   -0.9034   -5.0959    5.4312 H   0  0  0  0  0  0  0  0  0  0  0  0
    0.1081   -5.2050    6.8612 H   0  0  0  0  0  0  0  0  0  0  0  0
   -0.5183   -6.6440    6.1206 H   0  0  0  0  0  0  0  0  0  0  0  0
    0.6614   -4.0671    3.6983 H   0  0  0  0  0  0  0  0  0  0  0  0
    3.4754   -5.1164    3.8324 H   0  0  0  0  0  0  0  0  0  0  0  0
    3.2918   -4.5105    1.6545 H   0  0  0  0  0  0  0  0  0  0  0  0
    4.3453   -3.0564    4.3472 H   0  0  0  0  0  0  0  0  0  0  0  0
    3.7958   -2.5065    2.7731 H   0  0  0  0  0  0  0  0  0  0  0  0
    1.6939   -1.8482    3.6014 H   0  0  0  0  0  0  0  0  0  0  0  0
    3.3679   -1.0508    5.9903 H   0  0  0  0  0  0  0  0  0  0  0  0
    4.1481    0.8915    4.9475 H   0  0  0  0  0  0  0  0  0  0  0  0
    4.5563   -0.4443    3.8798 H   0  0  0  0  0  0  0  0  0  0  0  0
    3.5440    1.0046    2.2702 H   0  0  0  0  0  0  0  0  0  0  0  0
    0.5746    2.6046    2.2009 H   0  0  0  0  0  0  0  0  0  0  0  0
    1.4003    1.4331    1.1487 H   0  0  0  0  0  0  0  0  0  0  0  0
   -1.2654    1.1297    1.8433 H   0  0  0  0  0  0  0  0  0  0  0  0
   -0.1850   -0.2506    1.6006 H   0  0  0  0  0  0  0  0  0  0  0  0
   -0.1899    2.8128    4.3863 H   0  0  0  0  0  0  0  0  0  0  0  0
    1.2263    2.7750    5.4146 H   0  0  0  0  0  0  0  0  0  0  0  0
   -0.2825    2.0507    5.9564 H   0  0  0  0  0  0  0  0  0  0  0  0
    1.8750    0.6785    6.2961 H   0  0  0  0  0  0  0  0  0  0  0  0
    1.1807   -1.2006    7.3463 H   0  0  0  0  0  0  0  0  0  0  0  0
   -0.9766   -0.0270    6.0809 H   0  0  0  0  0  0  0  0  0  0  0  0
   -0.1683   -3.0196    6.5139 H   0  0  0  0  0  0  0  0  0  0  0  0
   -0.3047   -2.3307    4.9334 H   0  0  0  0  0  0  0  0  0  0  0  0
    2.8152   -2.7038    7.2045 H   0  0  0  0  0  0  0  0  0  0  0  0
    3.4632   -4.0292    6.2655 H   0  0  0  0  0  0  0  0  0  0  0  0
    2.0136   -4.2327    7.2140 H   0  0  0  0  0  0  0  0  0  0  0  0
    2.2199   -8.5835    3.9310 H   0  0  0  0  0  0  0  0  0  0  0  0
    1.2847   -9.8290    5.7858 H   0  0  0  0  0  0  0  0  0  0  0  0
   -0.0732   -8.7481    5.9578 H   0  0  0  0  0  0  0  0  0  0  0  0
    1.5588   -8.2060    6.3907 H   0  0  0  0  0  0  0  0  0  0  0  0
  1  2  2  0
  1 32  1  0
  1 33  1  0
  2 30  1  0
  2  3  1  0
  3  4  2  0
  3  5  1  0
  5  6  1  0
  6  7  1  0
  6 30  1  0
  6 34  1  6
  7  8  1  0
  7  9  1  0
  7 35  1  1
  8 36  1  0
  8 37  1  0
  8 38  1  0
  9 28  1  0
  9 10  1  0
  9 39  1  6
 10 11  1  0
 10 12  1  0
 10 40  1  1
 11 41  1  0
 12 13  1  0
 12 42  1  0
 12 43  1  0
 13 28  1  0
 13 14  1  0
 13 44  1  6
 14 24  1  0
 14 15  1  0
 14 45  1  1
 15 16  1  0
 15 46  1  0
 15 47  1  0
 16 17  2  0
 16 48  1  0
 17 22  1  0
 17 18  1  0
 18 19  1  0
 18 49  1  0
 18 50  1  0
 19 20  1  0
 19 51  1  0
 19 52  1  0
 20 21  2  0
 20 22  1  0
 22 23  1  1
 22 24  1  0
 23 53  1  0
 23 54  1  0
 23 55  1  0
 24 25  1  0
 24 56  1  1
 25 26  1  0
 25 27  1  0
 25 57  1  1
 26 58  1  0
 27 28  1  0
 27 59  1  0
 27 60  1  0
 28 29  1  1
 29 61  1  0
 29 62  1  0
 29 63  1  0
 30 31  1  0
 30 64  1  6
 31 65  1  0
 31 66  1  0
 31 67  1  0
M  END
>  <i_m_ct_stereo_status>  (94) 
1

>  <s_m_source_file>  (94) 
/var/tmp/pbs.5076255.sched01/tmp1pob34vh/39rbzpz6sd.sdf

>  <i_m_source_file_index>  (94) 
11

>  <i_lp_mmshare_version>  (94) 
48012

>  <i_f3d_flags>  (94) 
0

>  <s_epik_input>  (94) 
W0NIMl09QzFDKD1PKU9bQ0BIXShbQ0BIXTFbQ0gzXSlbQ0BIXShbQ0gzXSlbQ0BIXShbQ0BASF0oW09IXSlbQ0gyXTIpW0NAXShbQ0gzXSkoW0NIMl1bQ0BASF0oW0NAQEhdMzQpW09IXSlbQ0BIXTJbQ0BIXTNbQ0gyXVtDSF09QyhbQ0BdNDVbQ0gzXSlbQ0gyXVtDSDJdQzU9Tw==

>  <s_epik_cmdline>  (94) 
J2VwaWtfcHl0aG9uJywgJy1waHQnLCAnMi4wJywgJy1waCcsICc3LjAnLCAnLXRuJywgJzgnLCAnLW1hJywgJzIwMCcsICctaW1hZScsICc8aW5maWxlLm1hZT4nLCAnLW9tYWUnLCAnPG91dGZpbGUubWFlPic=

>  <r_lp_tautomer_probability>  (94) 
1

>  <r_epik_Ionization_Penalty>  (94) 
1.25053e-06

>  <r_epik_Ionization_Penalty_Charging>  (94) 
0

>  <r_epik_Ionization_Penalty_Neutral>  (94) 
1.25053e-06

>  <r_epik_State_Penalty>  (94) 
-0

>  <r_epik_Charging_Adjusted_Penalty>  (94) 
0

>  <i_epik_Tot_Q>  (94) 
0

>  <i_epik_Tot_abs_Q>  (94) 
0

>  <s_epik_Chemistry_Notes>  (94) 
This compound has an ester and may undergo hydrolysis at high or low pH.

>  <s_lp_Force_Field>  (94) 
OPLS3e

>  <r_lp_Energy>  (94) 
44.1363

>  <b_lp_Chiralities_Consistent>  (94) 
1

>  <s_lp_Variant>  (94) 
33:0-1

>  <s_i_glide_gridfile>  (94) 
pfpi4k_grid

>  <i_i_glide_lignum>  (94) 
11

>  <i_i_glide_rotatable_bonds>  (94) 
4

>  <r_i_docking_score>  (94) 
-2.81268

>  <r_i_glide_ligand_efficiency>  (94) 
-0.0907316

>  <r_i_glide_ligand_efficiency_sa>  (94) 
-0.285022

>  <r_i_glide_ligand_efficiency_ln>  (94) 
-0.634345

>  <r_i_glide_gscore>  (94) 
-2.81268

>  <r_i_glide_lipo>  (94) 
-0.0669099

>  <r_i_glide_hbond>  (94) 
-0.112451

>  <r_i_glide_metal>  (94) 
-0

>  <r_i_glide_rewards>  (94) 
-0.987084

>  <r_i_glide_evdw>  (94) 
-24.0421

>  <r_i_glide_ecoul>  (94) 
-3.84718

>  <r_i_glide_erotb>  (94) 
0.216316

>  <r_i_glide_esite>  (94) 
-0.0833701

>  <r_i_glide_emodel>  (94) 
-38.8715

>  <r_i_glide_energy>  (94) 
-27.8892

>  <r_i_glide_einternal>  (94) 
0.962918

>  <r_i_glide_intrahb_reward>  (94) 
-0.5

>  <i_i_glide_confnum>  (94) 
1

>  <i_i_glide_posenum>  (94) 
31

>  <r_i_glide_eff_state_penalty>  (94) 
0

>  <ligand_id>  (94) 
33

>  <original_smiles>  (94) 
C=C1C(=O)OC(C(C)C2C(O)CC3C4CC=C5CCC(=O)C5(C)C4C(O)CC32C)C1C

>  <smiles>  (94) 
[H]OC1([H])C([H])([H])C2(C([H])([H])[H])C([H])(C([H])([H])C([H])(O[H])C2([H])C([H])(C([H])([H])[H])C2([H])OC(=O)C(=C([H])[H])C2([H])C([H])([H])[H])C2([H])C([H])([H])C([H])=C3C([H])([H])C([H])([H])C(=O)C3(C([H])([H])[H])C12[H]

$$$$
34:0:0
     RDKit          3D

 81 85  0  0  1  0  0  0  0  0999 V2000
    1.0750    0.5890    1.7146 C   0  0  0  0  0  0  0  0  0  0  0  0
    1.3172    0.1607    2.9671 C   0  0  0  0  0  0  0  0  0  0  0  0
    0.5178    0.7757    4.0990 C   0  0  0  0  0  0  0  0  0  0  0  0
    2.3246   -0.9446    3.3594 C   0  0  2  0  0  0  0  0  0  0  0  0
    3.5645   -0.4377    4.1326 C   0  0  0  0  0  0  0  0  0  0  0  0
    4.8192   -0.7493    3.2920 C   0  0  0  0  0  0  0  0  0  0  0  0
    4.3198   -1.1864    1.9064 C   0  0  1  0  0  0  0  0  0  0  0  0
    4.2135    0.0785    1.0365 C   0  0  0  0  0  0  0  0  0  0  0  0
    5.2803   -2.1250    1.1394 C   0  0  0  0  0  0  0  0  0  0  0  0
    5.1440   -3.6348    1.3973 C   0  0  0  0  0  0  0  0  0  0  0  0
    3.6751   -4.1753    1.3991 C   0  0  2  0  0  0  0  0  0  0  0  0
    3.0030   -3.8539    0.0283 C   0  0  0  0  0  0  0  0  0  0  0  0
    2.9220   -3.3545    2.5057 C   0  0  1  0  0  0  0  0  0  0  0  0
    3.4196   -3.7694    3.9076 C   0  0  0  0  0  0  0  0  0  0  0  0
    3.2416   -5.2657    4.1390 C   0  0  0  0  0  0  0  0  0  0  0  0
    4.0306   -6.1704    3.1339 C   0  0  1  0  0  0  0  0  0  0  0  0
    3.8911   -7.7138    3.5394 C   0  0  2  0  0  0  0  0  0  0  0  0
    4.2806   -7.7943    5.0456 C   0  0  0  0  0  0  0  0  0  0  0  0
    4.8864   -8.6672    2.8038 C   0  0  0  0  0  0  0  0  0  0  0  0
    4.6891  -10.1600    3.1122 C   0  0  0  0  0  0  0  0  0  0  0  0
    3.2448  -10.6066    2.8572 C   0  0  1  0  0  0  0  0  0  0  0  0
    3.1414  -11.9618    3.2177 O   0  0  0  0  0  0  0  0  0  0  0  0
    2.1613   -9.7459    3.5695 C   0  0  0  0  0  0  0  0  0  0  0  0
    0.7672  -10.1828    3.0565 C   0  0  0  0  0  0  0  0  0  0  0  0
    2.1399  -10.0305    5.0962 C   0  0  0  0  0  0  0  0  0  0  0  0
    2.4222   -8.2142    3.2543 C   0  0  2  0  0  0  0  0  0  0  0  0
    2.0246   -7.8372    1.7946 C   0  0  0  0  0  0  0  0  0  0  0  0
    2.2006   -6.3485    1.4297 C   0  0  0  0  0  0  0  0  0  0  0  0
    3.6317   -5.7703    1.6515 C   0  0  1  0  0  0  0  0  0  0  0  0
    4.6015   -6.4250    0.6194 C   0  0  0  0  0  0  0  0  0  0  0  0
    2.9192   -1.8039    2.2102 C   0  0  1  0  0  0  0  0  0  0  0  0
    0.3472    1.3693    1.5233 H   0  0  0  0  0  0  0  0  0  0  0  0
    1.5891    0.1895    0.8620 H   0  0  0  0  0  0  0  0  0  0  0  0
    0.0595   -0.0001    4.7119 H   0  0  0  0  0  0  0  0  0  0  0  0
   -0.2918    1.3904    3.6979 H   0  0  0  0  0  0  0  0  0  0  0  0
    1.1380    1.4117    4.7298 H   0  0  0  0  0  0  0  0  0  0  0  0
    1.7337   -1.5786    4.0149 H   0  0  0  0  0  0  0  0  0  0  0  0
    3.4934    0.6258    4.3609 H   0  0  0  0  0  0  0  0  0  0  0  0
    3.6588   -0.9450    5.0910 H   0  0  0  0  0  0  0  0  0  0  0  0
    5.4881    0.1093    3.2331 H   0  0  0  0  0  0  0  0  0  0  0  0
    5.4085   -1.5344    3.7565 H   0  0  0  0  0  0  0  0  0  0  0  0
    3.6912   -0.1441    0.1107 H   0  0  0  0  0  0  0  0  0  0  0  0
    5.2094    0.4391    0.7611 H   0  0  0  0  0  0  0  0  0  0  0  0
    3.6877    0.8908    1.5365 H   0  0  0  0  0  0  0  0  0  0  0  0
    5.1453   -1.9814    0.0688 H   0  0  0  0  0  0  0  0  0  0  0  0
    6.3130   -1.8263    1.3262 H   0  0  0  0  0  0  0  0  0  0  0  0
    5.7585   -4.1301    0.6490 H   0  0  0  0  0  0  0  0  0  0  0  0
    5.6480   -3.8596    2.3348 H   0  0  0  0  0  0  0  0  0  0  0  0
    1.9245   -3.9867    0.0775 H   0  0  0  0  0  0  0  0  0  0  0  0
    3.3547   -4.4627   -0.7980 H   0  0  0  0  0  0  0  0  0  0  0  0
    3.1565   -2.8274   -0.2970 H   0  0  0  0  0  0  0  0  0  0  0  0
    1.8673   -3.6445    2.4746 H   0  0  0  0  0  0  0  0  0  0  0  0
    4.4574   -3.5000    4.0921 H   0  0  0  0  0  0  0  0  0  0  0  0
    2.8501   -3.2702    4.6874 H   0  0  0  0  0  0  0  0  0  0  0  0
    3.5592   -5.4244    5.1660 H   0  0  0  0  0  0  0  0  0  0  0  0
    2.1781   -5.5013    4.1231 H   0  0  0  0  0  0  0  0  0  0  0  0
    5.0858   -5.9167    3.2580 H   0  0  0  0  0  0  0  0  0  0  0  0
    4.6618   -8.7591    5.3628 H   0  0  0  0  0  0  0  0  0  0  0  0
    3.4407   -7.5566    5.6985 H   0  0  0  0  0  0  0  0  0  0  0  0
    5.0938   -7.1038    5.2755 H   0  0  0  0  0  0  0  0  0  0  0  0
    4.7715   -8.6223    1.7329 H   0  0  0  0  0  0  0  0  0  0  0  0
    5.9160   -8.3792    3.0061 H   0  0  0  0  0  0  0  0  0  0  0  0
    5.3456  -10.7442    2.4696 H   0  0  0  0  0  0  0  0  0  0  0  0
    4.9911  -10.4229    4.1207 H   0  0  0  0  0  0  0  0  0  0  0  0
    3.0615  -10.5631    1.7818 H   0  0  0  0  0  0  0  0  0  0  0  0
    3.4185  -12.4726    2.4647 H   0  0  0  0  0  0  0  0  0  0  0  0
   -0.0144   -9.5013    3.4038 H   0  0  0  0  0  0  0  0  0  0  0  0
    0.5009  -11.1808    3.4138 H   0  0  0  0  0  0  0  0  0  0  0  0
    0.7244  -10.2365    1.9683 H   0  0  0  0  0  0  0  0  0  0  0  0
    1.6527   -9.2251    5.6476 H   0  0  0  0  0  0  0  0  0  0  0  0
    3.1265  -10.1984    5.5139 H   0  0  0  0  0  0  0  0  0  0  0  0
    1.5848  -10.9419    5.3271 H   0  0  0  0  0  0  0  0  0  0  0  0
    1.7389   -7.6582    3.9006 H   0  0  0  0  0  0  0  0  0  0  0  0
    2.5611   -8.4604    1.0857 H   0  0  0  0  0  0  0  0  0  0  0  0
    0.9750   -8.0594    1.6214 H   0  0  0  0  0  0  0  0  0  0  0  0
    1.9159   -6.2381    0.3849 H   0  0  0  0  0  0  0  0  0  0  0  0
    1.4683   -5.7771    1.9933 H   0  0  0  0  0  0  0  0  0  0  0  0
    4.2197   -7.3525    0.1999 H   0  0  0  0  0  0  0  0  0  0  0  0
    5.5849   -6.6082    1.0534 H   0  0  0  0  0  0  0  0  0  0  0  0
    4.7939   -5.8293   -0.2648 H   0  0  0  0  0  0  0  0  0  0  0  0
    2.2738   -1.7043    1.3438 H   0  0  0  0  0  0  0  0  0  0  0  0
  1  2  2  0
  1 32  1  0
  1 33  1  0
  2  3  1  0
  2  4  1  0
  3 34  1  0
  3 35  1  0
  3 36  1  0
  4 31  1  0
  4  5  1  0
  4 37  1  1
  5  6  1  0
  5 38  1  0
  5 39  1  0
  6  7  1  0
  6 40  1  0
  6 41  1  0
  7 31  1  0
  7  8  1  6
  7  9  1  0
  8 42  1  0
  8 43  1  0
  8 44  1  0
  9 10  1  0
  9 45  1  0
  9 46  1  0
 10 11  1  0
 10 47  1  0
 10 48  1  0
 11 29  1  0
 11 12  1  6
 11 13  1  0
 12 49  1  0
 12 50  1  0
 12 51  1  0
 13 14  1  0
 13 31  1  0
 13 52  1  1
 14 15  1  0
 14 53  1  0
 14 54  1  0
 15 16  1  0
 15 55  1  0
 15 56  1  0
 16 29  1  0
 16 17  1  0
 16 57  1  6
 17 26  1  0
 17 18  1  1
 17 19  1  0
 18 58  1  0
 18 59  1  0
 18 60  1  0
 19 20  1  0
 19 61  1  0
 19 62  1  0
 20 21  1  0
 20 63  1  0
 20 64  1  0
 21 22  1  0
 21 23  1  0
 21 65  1  6
 22 66  1  0
 23 24  1  0
 23 25  1  0
 23 26  1  0
 24 67  1  0
 24 68  1  0
 24 69  1  0
 25 70  1  0
 25 71  1  0
 25 72  1  0
 26 27  1  0
 26 73  1  1
 27 28  1  0
 27 74  1  0
 27 75  1  0
 28 29  1  0
 28 76  1  0
 28 77  1  0
 29 30  1  6
 30 78  1  0
 30 79  1  0
 30 80  1  0
 31 81  1  6
M  END
>  <i_m_ct_stereo_status>  (95) 
1

>  <s_m_source_file>  (95) 
/var/tmp/pbs.5076255.sched01/tmp1pob34vh/39rbzpz6sd.sdf

>  <i_m_source_file_index>  (95) 
12

>  <i_lp_mmshare_version>  (95) 
48012

>  <i_f3d_flags>  (95) 
0

>  <s_epik_input>  (95) 
W0NIMl09QyhbQ0gzXSlbQ0BIXShbQ0gyXVtDSDJdMSlbQ0BASF0oW0NAQF0xMltDSDNdKVtDQEhdM1tDQEBdKFtDSDNdKShbQ0gyXVtDSDJdMilbQ0BAXTQoW0NIM10pW0NAQEhdKFtDSDJdW0NIMl0zKVtDQEBdNShbQ0gzXSlbQ0BASF0oW0NIMl1bQ0gyXTQpQyhbQ0gzXSkoW0NIM10pW0NASF0oW09IXSlbQ0gyXVtDSDJdNQ==

>  <s_epik_cmdline>  (95) 
J2VwaWtfcHl0aG9uJywgJy1waHQnLCAnMi4wJywgJy1waCcsICc3LjAnLCAnLXRuJywgJzgnLCAnLW1hJywgJzIwMCcsICctaW1hZScsICc8aW5maWxlLm1hZT4nLCAnLW9tYWUnLCAnPG91dGZpbGUubWFlPic=

>  <r_lp_tautomer_probability>  (95) 
1

>  <r_epik_Ionization_Penalty>  (95) 
3.18421e-06

>  <r_epik_Ionization_Penalty_Charging>  (95) 
0

>  <r_epik_Ionization_Penalty_Neutral>  (95) 
3.18421e-06

>  <r_epik_State_Penalty>  (95) 
-0

>  <r_epik_Charging_Adjusted_Penalty>  (95) 
0

>  <i_epik_Tot_Q>  (95) 
0

>  <i_epik_Tot_abs_Q>  (95) 
0

>  <s_lp_Force_Field>  (95) 
OPLS3e

>  <r_lp_Energy>  (95) 
103.055

>  <b_lp_Chiralities_Consistent>  (95) 
1

>  <s_lp_Variant>  (95) 
34:0-1

>  <s_i_glide_gridfile>  (95) 
pfpi4k_grid

>  <i_i_glide_lignum>  (95) 
12

>  <i_i_glide_rotatable_bonds>  (95) 
2

>  <r_i_docking_score>  (95) 
-2.69813

>  <r_i_glide_ligand_efficiency>  (95) 
-0.0870364

>  <r_i_glide_ligand_efficiency_sa>  (95) 
-0.273414

>  <r_i_glide_ligand_efficiency_ln>  (95) 
-0.608511

>  <r_i_glide_gscore>  (95) 
-2.69813

>  <r_i_glide_lipo>  (95) 
-0.530302

>  <r_i_glide_hbond>  (95) 
-0.0516167

>  <r_i_glide_metal>  (95) 
-0

>  <r_i_glide_rewards>  (95) 
-0.499654

>  <r_i_glide_evdw>  (95) 
-30.3578

>  <r_i_glide_ecoul>  (95) 
-1.38445

>  <r_i_glide_erotb>  (95) 
0.109005

>  <r_i_glide_esite>  (95) 
0

>  <r_i_glide_emodel>  (95) 
-35.8508

>  <r_i_glide_energy>  (95) 
-31.7423

>  <r_i_glide_einternal>  (95) 
1.42742

>  <r_i_glide_intrahb_reward>  (95) 
-0

>  <i_i_glide_confnum>  (95) 
3

>  <i_i_glide_posenum>  (95) 
34

>  <r_i_glide_eff_state_penalty>  (95) 
0

>  <ligand_id>  (95) 
34

>  <original_smiles>  (95) 
C=C(C)C1CCC2(C)CCC3(C)C(CCC4C5(C)CCC(O)C(C)(C)C5CCC43C)C12

>  <smiles>  (95) 
[H]OC1([H])C([H])([H])C([H])([H])C2(C([H])([H])[H])C([H])(C([H])([H])C([H])([H])C3(C([H])([H])[H])C2([H])C([H])([H])C([H])([H])C2([H])C4([H])C([H])(C(=C([H])[H])C([H])([H])[H])C([H])([H])C([H])([H])C4(C([H])([H])[H])C([H])([H])C([H])([H])C23C([H])([H])[H])C1(C([H])([H])[H])C([H])([H])[H]

$$$$
34:0:1
     RDKit          3D

 81 85  0  0  1  0  0  0  0  0999 V2000
    1.5834    0.8991    1.2980 C   0  0  0  0  0  0  0  0  0  0  0  0
    1.8085    0.6272    2.5942 C   0  0  0  0  0  0  0  0  0  0  0  0
    1.2432    1.5771    3.6267 C   0  0  0  0  0  0  0  0  0  0  0  0
    2.5785   -0.5995    3.1349 C   0  0  2  0  0  0  0  0  0  0  0  0
    3.8242   -0.2439    3.9780 C   0  0  0  0  0  0  0  0  0  0  0  0
    5.0602   -0.8105    3.2577 C   0  0  0  0  0  0  0  0  0  0  0  0
    4.5849   -1.2653    1.8649 C   0  0  1  0  0  0  0  0  0  0  0  0
    4.7052   -0.0701    0.9055 C   0  0  0  0  0  0  0  0  0  0  0  0
    5.4393   -2.3907    1.2338 C   0  0  0  0  0  0  0  0  0  0  0  0
    5.0425   -3.8375    1.5692 C   0  0  0  0  0  0  0  0  0  0  0  0
    3.5100   -4.1344    1.4775 C   0  0  2  0  0  0  0  0  0  0  0  0
    3.0081   -3.8006    0.0358 C   0  0  0  0  0  0  0  0  0  0  0  0
    2.8220   -3.1327    2.4697 C   0  0  1  0  0  0  0  0  0  0  0  0
    3.1301   -3.5194    3.9317 C   0  0  0  0  0  0  0  0  0  0  0  0
    2.6859   -4.9459    4.2247 C   0  0  0  0  0  0  0  0  0  0  0  0
    3.3883   -6.0345    3.3428 C   0  0  1  0  0  0  0  0  0  0  0  0
    2.9587   -7.5026    3.8151 C   0  0  2  0  0  0  0  0  0  0  0  0
    3.2068   -7.5373    5.3518 C   0  0  0  0  0  0  0  0  0  0  0  0
    3.8269   -8.6604    3.2291 C   0  0  0  0  0  0  0  0  0  0  0  0
    3.3510  -10.0799    3.6010 C   0  0  0  0  0  0  0  0  0  0  0  0
    1.8745  -10.2987    3.2360 C   0  0  1  0  0  0  0  0  0  0  0  0
    1.4666  -11.5798    3.6677 O   0  0  0  0  0  0  0  0  0  0  0  0
    0.9159   -9.2090    3.7956 C   0  0  0  0  0  0  0  0  0  0  0  0
   -0.4795   -9.4156    3.1679 C   0  0  0  0  0  0  0  0  0  0  0  0
    0.7206   -9.3805    5.3273 C   0  0  0  0  0  0  0  0  0  0  0  0
    1.4566   -7.7712    3.4230 C   0  0  2  0  0  0  0  0  0  0  0  0
    1.2473   -7.4373    1.9172 C   0  0  0  0  0  0  0  0  0  0  0  0
    1.7003   -6.0307    1.4931 C   0  0  0  0  0  0  0  0  0  0  0  0
    3.1834   -5.6774    1.8111 C   0  0  1  0  0  0  0  0  0  0  0  0
    4.1082   -6.5473    0.9065 C   0  0  0  0  0  0  0  0  0  0  0  0
    3.0922   -1.6311    2.0933 C   0  0  1  0  0  0  0  0  0  0  0  0
    0.9858    1.7650    1.0331 H   0  0  0  0  0  0  0  0  0  0  0  0
    1.9607    0.3046    0.4897 H   0  0  0  0  0  0  0  0  0  0  0  0
    0.6809    1.0445    4.3883 H   0  0  0  0  0  0  0  0  0  0  0  0
    0.5620    2.2846    3.1462 H   0  0  0  0  0  0  0  0  0  0  0  0
    2.0287    2.1630    4.1005 H   0  0  0  0  0  0  0  0  0  0  0  0
    1.8375   -1.0640    3.7779 H   0  0  0  0  0  0  0  0  0  0  0  0
    3.9159    0.8289    4.1395 H   0  0  0  0  0  0  0  0  0  0  0  0
    3.7617   -0.6932    4.9690 H   0  0  0  0  0  0  0  0  0  0  0  0
    5.8644   -0.0767    3.2027 H   0  0  0  0  0  0  0  0  0  0  0  0
    5.4719   -1.6476    3.8165 H   0  0  0  0  0  0  0  0  0  0  0  0
    4.2411   -0.2861   -0.0572 H   0  0  0  0  0  0  0  0  0  0  0  0
    5.7522    0.1715    0.7160 H   0  0  0  0  0  0  0  0  0  0  0  0
    4.2346    0.8262    1.3025 H   0  0  0  0  0  0  0  0  0  0  0  0
    5.4232   -2.2895    0.1486 H   0  0  0  0  0  0  0  0  0  0  0  0
    6.4831   -2.2469    1.5078 H   0  0  0  0  0  0  0  0  0  0  0  0
    5.6236   -4.4752    0.9063 H   0  0  0  0  0  0  0  0  0  0  0  0
    5.4279   -4.0692    2.5592 H   0  0  0  0  0  0  0  0  0  0  0  0
    1.9233   -3.7398   -0.0042 H   0  0  0  0  0  0  0  0  0  0  0  0
    3.3098   -4.5186   -0.7198 H   0  0  0  0  0  0  0  0  0  0  0  0
    3.3641   -2.8434   -0.3352 H   0  0  0  0  0  0  0  0  0  0  0  0
    1.7423   -3.2448    2.3665 H   0  0  0  0  0  0  0  0  0  0  0  0
    4.1815   -3.4135    4.1918 H   0  0  0  0  0  0  0  0  0  0  0  0
    2.5882   -2.8796    4.6255 H   0  0  0  0  0  0  0  0  0  0  0  0
    2.8886   -5.0837    5.2845 H   0  0  0  0  0  0  0  0  0  0  0  0
    1.6014   -5.0007    4.1226 H   0  0  0  0  0  0  0  0  0  0  0  0
    4.4587   -5.9466    3.5475 H   0  0  0  0  0  0  0  0  0  0  0  0
    3.3949   -8.5271    5.7524 H   0  0  0  0  0  0  0  0  0  0  0  0
    2.3700   -7.1212    5.9132 H   0  0  0  0  0  0  0  0  0  0  0  0
    4.1053   -6.9727    5.6139 H   0  0  0  0  0  0  0  0  0  0  0  0
    3.8047   -8.6678    2.1523 H   0  0  0  0  0  0  0  0  0  0  0  0
    4.8729   -8.5269    3.5044 H   0  0  0  0  0  0  0  0  0  0  0  0
    3.9495  -10.8028    3.0493 H   0  0  0  0  0  0  0  0  0  0  0  0
    3.5302  -10.3131    4.6455 H   0  0  0  0  0  0  0  0  0  0  0  0
    1.8032  -10.2996    2.1493 H   0  0  0  0  0  0  0  0  0  0  0  0
    1.5688  -11.6323    4.6077 H   0  0  0  0  0  0  0  0  0  0  0  0
   -1.1566   -8.5938    3.4135 H   0  0  0  0  0  0  0  0  0  0  0  0
   -0.9342  -10.3259    3.5466 H   0  0  0  0  0  0  0  0  0  0  0  0
   -0.4402   -9.5379    2.0848 H   0  0  0  0  0  0  0  0  0  0  0  0
    0.3371   -8.4709    5.7904 H   0  0  0  0  0  0  0  0  0  0  0  0
    1.6272   -9.6777    5.8451 H   0  0  0  0  0  0  0  0  0  0  0  0
    0.0030  -10.1708    5.5558 H   0  0  0  0  0  0  0  0  0  0  0  0
    0.8281   -7.0709    3.9754 H   0  0  0  0  0  0  0  0  0  0  0  0
    1.7190   -8.1875    1.2888 H   0  0  0  0  0  0  0  0  0  0  0  0
    0.1921   -7.4840    1.6622 H   0  0  0  0  0  0  0  0  0  0  0  0
    1.5177   -5.9419    0.4224 H   0  0  0  0  0  0  0  0  0  0  0  0
    1.0352   -5.3184    1.9749 H   0  0  0  0  0  0  0  0  0  0  0  0
    3.6141   -7.4300    0.5086 H   0  0  0  0  0  0  0  0  0  0  0  0
    5.0106   -6.8504    1.4367 H   0  0  0  0  0  0  0  0  0  0  0  0
    4.4586   -6.0528    0.0079 H   0  0  0  0  0  0  0  0  0  0  0  0
    2.5372   -1.4991    1.1727 H   0  0  0  0  0  0  0  0  0  0  0  0
  1  2  2  0
  1 32  1  0
  1 33  1  0
  2  3  1  0
  2  4  1  0
  3 34  1  0
  3 35  1  0
  3 36  1  0
  4 31  1  0
  4  5  1  0
  4 37  1  1
  5  6  1  0
  5 38  1  0
  5 39  1  0
  6  7  1  0
  6 40  1  0
  6 41  1  0
  7 31  1  0
  7  8  1  6
  7  9  1  0
  8 42  1  0
  8 43  1  0
  8 44  1  0
  9 10  1  0
  9 45  1  0
  9 46  1  0
 10 11  1  0
 10 47  1  0
 10 48  1  0
 11 29  1  0
 11 12  1  6
 11 13  1  0
 12 49  1  0
 12 50  1  0
 12 51  1  0
 13 14  1  0
 13 31  1  0
 13 52  1  1
 14 15  1  0
 14 53  1  0
 14 54  1  0
 15 16  1  0
 15 55  1  0
 15 56  1  0
 16 29  1  0
 16 17  1  0
 16 57  1  1
 17 26  1  0
 17 18  1  1
 17 19  1  0
 18 58  1  0
 18 59  1  0
 18 60  1  0
 19 20  1  0
 19 61  1  0
 19 62  1  0
 20 21  1  0
 20 63  1  0
 20 64  1  0
 21 22  1  0
 21 23  1  0
 21 65  1  6
 22 66  1  0
 23 24  1  0
 23 25  1  0
 23 26  1  0
 24 67  1  0
 24 68  1  0
 24 69  1  0
 25 70  1  0
 25 71  1  0
 25 72  1  0
 26 27  1  0
 26 73  1  1
 27 28  1  0
 27 74  1  0
 27 75  1  0
 28 29  1  0
 28 76  1  0
 28 77  1  0
 29 30  1  6
 30 78  1  0
 30 79  1  0
 30 80  1  0
 31 81  1  6
M  END
>  <i_m_ct_stereo_status>  (96) 
1

>  <s_m_source_file>  (96) 
/var/tmp/pbs.5076255.sched01/tmp1pob34vh/39rbzpz6sd.sdf

>  <i_m_source_file_index>  (96) 
12

>  <i_lp_mmshare_version>  (96) 
48012

>  <i_f3d_flags>  (96) 
0

>  <s_epik_input>  (96) 
W0NIMl09QyhbQ0gzXSlbQ0BIXShbQ0gyXVtDSDJdMSlbQ0BASF0oW0NAQF0xMltDSDNdKVtDQEhdM1tDQEBdKFtDSDNdKShbQ0gyXVtDSDJdMilbQ0BAXTQoW0NIM10pW0NAQEhdKFtDSDJdW0NIMl0zKVtDQEBdNShbQ0gzXSlbQ0BASF0oW0NIMl1bQ0gyXTQpQyhbQ0gzXSkoW0NIM10pW0NASF0oW09IXSlbQ0gyXVtDSDJdNQ==

>  <s_epik_cmdline>  (96) 
J2VwaWtfcHl0aG9uJywgJy1waHQnLCAnMi4wJywgJy1waCcsICc3LjAnLCAnLXRuJywgJzgnLCAnLW1hJywgJzIwMCcsICctaW1hZScsICc8aW5maWxlLm1hZT4nLCAnLW9tYWUnLCAnPG91dGZpbGUubWFlPic=

>  <r_lp_tautomer_probability>  (96) 
1

>  <r_epik_Ionization_Penalty>  (96) 
3.18421e-06

>  <r_epik_Ionization_Penalty_Charging>  (96) 
0

>  <r_epik_Ionization_Penalty_Neutral>  (96) 
3.18421e-06

>  <r_epik_State_Penalty>  (96) 
-0

>  <r_epik_Charging_Adjusted_Penalty>  (96) 
0

>  <i_epik_Tot_Q>  (96) 
0

>  <i_epik_Tot_abs_Q>  (96) 
0

>  <s_lp_Force_Field>  (96) 
OPLS3e

>  <r_lp_Energy>  (96) 
103.055

>  <b_lp_Chiralities_Consistent>  (96) 
1

>  <s_lp_Variant>  (96) 
34:0-1

>  <s_i_glide_gridfile>  (96) 
pfpi4k_grid

>  <i_i_glide_lignum>  (96) 
12

>  <i_i_glide_rotatable_bonds>  (96) 
2

>  <r_i_docking_score>  (96) 
-2.5339

>  <r_i_glide_ligand_efficiency>  (96) 
-0.0817387

>  <r_i_glide_ligand_efficiency_sa>  (96) 
-0.256772

>  <r_i_glide_ligand_efficiency_ln>  (96) 
-0.571472

>  <r_i_glide_gscore>  (96) 
-2.5339

>  <r_i_glide_lipo>  (96) 
-0.574799

>  <r_i_glide_hbond>  (96) 
0

>  <r_i_glide_metal>  (96) 
-0

>  <r_i_glide_rewards>  (96) 
-0.499654

>  <r_i_glide_evdw>  (96) 
-30.2229

>  <r_i_glide_ecoul>  (96) 
-0.382065

>  <r_i_glide_erotb>  (96) 
0.109005

>  <r_i_glide_esite>  (96) 
0

>  <r_i_glide_emodel>  (96) 
-34.9999

>  <r_i_glide_energy>  (96) 
-30.6049

>  <r_i_glide_einternal>  (96) 
0.918797

>  <r_i_glide_intrahb_reward>  (96) 
-0

>  <i_i_glide_confnum>  (96) 
3

>  <i_i_glide_posenum>  (96) 
1

>  <r_i_glide_eff_state_penalty>  (96) 
0

>  <ligand_id>  (96) 
34

>  <original_smiles>  (96) 
C=C(C)C1CCC2(C)CCC3(C)C(CCC4C5(C)CCC(O)C(C)(C)C5CCC43C)C12

>  <smiles>  (96) 
[H]OC1([H])C([H])([H])C([H])([H])C2(C([H])([H])[H])C([H])(C([H])([H])C([H])([H])C3(C([H])([H])[H])C2([H])C([H])([H])C([H])([H])C2([H])C4([H])C([H])(C(=C([H])[H])C([H])([H])[H])C([H])([H])C([H])([H])C4(C([H])([H])[H])C([H])([H])C([H])([H])C23C([H])([H])[H])C1(C([H])([H])[H])C([H])([H])[H]

$$$$
35:0:0
     RDKit          3D

 26 28  0  0  1  0  0  0  0  0999 V2000
    3.6976    0.3469   -4.3280 C   0  0  0  0  0  0  0  0  0  0  0  0
    3.4642   -0.7267   -3.2474 C   0  0  2  0  0  0  0  0  0  0  0  0
    4.6095   -0.7449   -2.1981 C   0  0  0  0  0  0  0  0  0  0  0  0
    4.7685   -2.0842   -1.4499 C   0  0  2  0  0  0  0  0  0  0  0  0
    4.9520   -3.1707   -2.5158 C   0  0  0  0  0  0  0  0  0  0  0  0
    3.5034   -3.3016   -2.9996 C   0  0  2  0  0  0  0  0  0  0  0  0
    3.2138   -2.0993   -3.9158 C   0  0  0  0  0  0  0  0  0  0  0  0
    2.6819   -3.2439   -1.7244 C   0  0  1  0  0  0  0  0  0  0  0  0
    3.0983   -3.8855   -0.4094 C   0  0  0  0  0  0  0  0  0  0  0  0
    3.4880   -2.4602   -0.7430 C   0  0  1  0  0  0  0  0  0  0  0  0
    4.5903    0.1382   -4.9156 H   0  0  0  0  0  0  0  0  0  0  0  0
    3.8270    1.3338   -3.8908 H   0  0  0  0  0  0  0  0  0  0  0  0
    2.8523    0.4082   -5.0162 H   0  0  0  0  0  0  0  0  0  0  0  0
    2.5605   -0.4586   -2.7109 H   0  0  0  0  0  0  0  0  0  0  0  0
    5.5380   -0.5201   -2.7033 H   0  0  0  0  0  0  0  0  0  0  0  0
    4.4556    0.0554   -1.4756 H   0  0  0  0  0  0  0  0  0  0  0  0
    5.5962   -2.0466   -0.7383 H   0  0  0  0  0  0  0  0  0  0  0  0
    5.6512   -2.8939   -3.3066 H   0  0  0  0  0  0  0  0  0  0  0  0
    5.3053   -4.1060   -2.0777 H   0  0  0  0  0  0  0  0  0  0  0  0
    3.3276   -4.2295   -3.5399 H   0  0  0  0  0  0  0  0  0  0  0  0
    2.1829   -2.1539   -4.2747 H   0  0  0  0  0  0  0  0  0  0  0  0
    3.8565   -2.1800   -4.7842 H   0  0  0  0  0  0  0  0  0  0  0  0
    1.6173   -3.0476   -1.8322 H   0  0  0  0  0  0  0  0  0  0  0  0
    2.3236   -4.0231    0.3368 H   0  0  0  0  0  0  0  0  0  0  0  0
    3.8574   -4.6640   -0.4296 H   0  0  0  0  0  0  0  0  0  0  0  0
    2.9977   -1.6773   -0.1671 H   0  0  0  0  0  0  0  0  0  0  0  0
  1  2  1  0
  1 11  1  0
  1 12  1  0
  1 13  1  0
  2  7  1  0
  2  3  1  0
  2 14  1  1
  3  4  1  0
  3 15  1  0
  3 16  1  0
  4 10  1  0
  4  5  1  0
  4 17  1  1
  5  6  1  0
  5 18  1  0
  5 19  1  0
  6  7  1  0
  6  8  1  0
  6 20  1  6
  7 21  1  0
  7 22  1  0
  8 10  1  0
  8  9  1  0
  8 23  1  6
  9 10  1  0
  9 24  1  0
  9 25  1  0
 10 26  1  1
M  END
>  <i_m_ct_stereo_status>  (97) 
1

>  <s_m_source_file>  (97) 
/var/tmp/pbs.5076255.sched01/tmp1pob34vh/39rbzpz6sd.sdf

>  <i_m_source_file_index>  (97) 
13

>  <i_lp_mmshare_version>  (97) 
48012

>  <i_f3d_flags>  (97) 
0

>  <s_epik_input>  (97) 
W0NIM11bQ0BIXShbQ0gyXTEpW0NIMl1bQ0BASF0oW0NIMl0yKVtDQEBIXShbQ0gyXTMpW0NAQEhdM1tDQEhdMTI=

>  <s_epik_cmdline>  (97) 
J2VwaWtfcHl0aG9uJywgJy1waHQnLCAnMi4wJywgJy1waCcsICc3LjAnLCAnLXRuJywgJzgnLCAnLW1hJywgJzIwMCcsICctaW1hZScsICc8aW5maWxlLm1hZT4nLCAnLW9tYWUnLCAnPG91dGZpbGUubWFlPic=

>  <r_lp_tautomer_probability>  (97) 
1

>  <r_epik_Ionization_Penalty>  (97) 
0

>  <r_epik_Ionization_Penalty_Charging>  (97) 
0

>  <r_epik_Ionization_Penalty_Neutral>  (97) 
0

>  <r_epik_State_Penalty>  (97) 
-0

>  <r_epik_Charging_Adjusted_Penalty>  (97) 
0

>  <i_epik_Tot_Q>  (97) 
0

>  <i_epik_Tot_abs_Q>  (97) 
0

>  <s_lp_Force_Field>  (97) 
OPLS3e

>  <r_lp_Energy>  (97) 
25.1733

>  <b_lp_Chiralities_Consistent>  (97) 
1

>  <s_lp_Variant>  (97) 
35:0-1

>  <s_i_glide_gridfile>  (97) 
pfpi4k_grid

>  <i_i_glide_lignum>  (97) 
13

>  <i_i_glide_rotatable_bonds>  (97) 
0

>  <r_i_docking_score>  (97) 
-3.58149

>  <r_i_glide_ligand_efficiency>  (97) 
-0.358149

>  <r_i_glide_ligand_efficiency_sa>  (97) 
-0.771608

>  <r_i_glide_ligand_efficiency_ln>  (97) 
-1.08445

>  <r_i_glide_gscore>  (97) 
-3.58149

>  <r_i_glide_lipo>  (97) 
-0.540063

>  <r_i_glide_hbond>  (97) 
0

>  <r_i_glide_metal>  (97) 
-0

>  <r_i_glide_rewards>  (97) 
-2.25

>  <r_i_glide_evdw>  (97) 
-16.5255

>  <r_i_glide_ecoul>  (97) 
0.232331

>  <r_i_glide_erotb>  (97) 
0

>  <r_i_glide_esite>  (97) 
0

>  <r_i_glide_emodel>  (97) 
-19.8629

>  <r_i_glide_energy>  (97) 
-16.2931

>  <r_i_glide_einternal>  (97) 
0

>  <r_i_glide_intrahb_reward>  (97) 
-0

>  <i_i_glide_confnum>  (97) 
2

>  <i_i_glide_posenum>  (97) 
29

>  <r_i_glide_eff_state_penalty>  (97) 
0

>  <ligand_id>  (97) 
35

>  <original_smiles>  (97) 
CC1CC2CC(C1)C1CC21

>  <smiles>  (97) 
[H]C([H])([H])C1([H])C([H])([H])C2([H])C([H])([H])C([H])(C1([H])[H])C1([H])C([H])([H])C21[H]

$$$$
35:0:1
     RDKit          3D

 26 28  0  0  1  0  0  0  0  0999 V2000
    3.7820   -3.5757    1.2273 C   0  0  0  0  0  0  0  0  0  0  0  0
    3.8272   -2.7880   -0.0953 C   0  0  2  0  0  0  0  0  0  0  0  0
    2.8812   -3.4414   -1.1398 C   0  0  0  0  0  0  0  0  0  0  0  0
    3.2229   -3.0655   -2.6010 C   0  0  2  0  0  0  0  0  0  0  0  0
    4.6822   -3.4665   -2.8221 C   0  0  0  0  0  0  0  0  0  0  0  0
    5.4121   -2.3457   -2.0914 C   0  0  2  0  0  0  0  0  0  0  0  0
    5.2959   -2.6452   -0.5847 C   0  0  0  0  0  0  0  0  0  0  0  0
    4.6124   -1.1134   -2.4940 C   0  0  1  0  0  0  0  0  0  0  0  0
    4.0527   -0.8749   -3.8840 C   0  0  0  0  0  0  0  0  0  0  0  0
    3.2378   -1.5738   -2.8184 C   0  0  1  0  0  0  0  0  0  0  0  0
    4.1531   -4.6023    1.0974 H   0  0  0  0  0  0  0  0  0  0  0  0
    2.7658   -3.6523    1.6234 H   0  0  0  0  0  0  0  0  0  0  0  0
    4.4004   -3.1115    2.0008 H   0  0  0  0  0  0  0  0  0  0  0  0
    3.4427   -1.7886    0.1144 H   0  0  0  0  0  0  0  0  0  0  0  0
    2.8897   -4.5292   -1.0182 H   0  0  0  0  0  0  0  0  0  0  0  0
    1.8621   -3.1291   -0.9362 H   0  0  0  0  0  0  0  0  0  0  0  0
    2.5414   -3.5339   -3.3029 H   0  0  0  0  0  0  0  0  0  0  0  0
    4.9170   -4.4635   -2.4217 H   0  0  0  0  0  0  0  0  0  0  0  0
    4.9390   -3.5038   -3.8848 H   0  0  0  0  0  0  0  0  0  0  0  0
    6.4448   -2.2632   -2.3957 H   0  0  0  0  0  0  0  0  0  0  0  0
    5.7696   -1.8424   -0.0292 H   0  0  0  0  0  0  0  0  0  0  0  0
    5.8648   -3.5519   -0.3430 H   0  0  0  0  0  0  0  0  0  0  0  0
    4.7181   -0.2445   -1.8690 H   0  0  0  0  0  0  0  0  0  0  0  0
    3.7670    0.1575   -4.1338 H   0  0  0  0  0  0  0  0  0  0  0  0
    4.4407   -1.4494   -4.7057 H   0  0  0  0  0  0  0  0  0  0  0  0
    2.4219   -1.0031   -2.4046 H   0  0  0  0  0  0  0  0  0  0  0  0
  1  2  1  0
  1 11  1  0
  1 12  1  0
  1 13  1  0
  2  7  1  0
  2  3  1  0
  2 14  1  1
  3  4  1  0
  3 15  1  0
  3 16  1  0
  4 10  1  0
  4  5  1  0
  4 17  1  6
  5  6  1  0
  5 18  1  0
  5 19  1  0
  6  7  1  0
  6  8  1  0
  6 20  1  6
  7 21  1  0
  7 22  1  0
  8 10  1  0
  8  9  1  0
  8 23  1  1
  9 10  1  0
  9 24  1  0
  9 25  1  0
 10 26  1  1
M  END
>  <i_m_ct_stereo_status>  (98) 
1

>  <s_m_source_file>  (98) 
/var/tmp/pbs.5076255.sched01/tmp1pob34vh/39rbzpz6sd.sdf

>  <i_m_source_file_index>  (98) 
13

>  <i_lp_mmshare_version>  (98) 
48012

>  <i_f3d_flags>  (98) 
0

>  <s_epik_input>  (98) 
W0NIM11bQ0BIXShbQ0gyXTEpW0NIMl1bQ0BASF0oW0NIMl0yKVtDQEBIXShbQ0gyXTMpW0NAQEhdM1tDQEhdMTI=

>  <s_epik_cmdline>  (98) 
J2VwaWtfcHl0aG9uJywgJy1waHQnLCAnMi4wJywgJy1waCcsICc3LjAnLCAnLXRuJywgJzgnLCAnLW1hJywgJzIwMCcsICctaW1hZScsICc8aW5maWxlLm1hZT4nLCAnLW9tYWUnLCAnPG91dGZpbGUubWFlPic=

>  <r_lp_tautomer_probability>  (98) 
1

>  <r_epik_Ionization_Penalty>  (98) 
0

>  <r_epik_Ionization_Penalty_Charging>  (98) 
0

>  <r_epik_Ionization_Penalty_Neutral>  (98) 
0

>  <r_epik_State_Penalty>  (98) 
-0

>  <r_epik_Charging_Adjusted_Penalty>  (98) 
0

>  <i_epik_Tot_Q>  (98) 
0

>  <i_epik_Tot_abs_Q>  (98) 
0

>  <s_lp_Force_Field>  (98) 
OPLS3e

>  <r_lp_Energy>  (98) 
25.1733

>  <b_lp_Chiralities_Consistent>  (98) 
1

>  <s_lp_Variant>  (98) 
35:0-1

>  <s_i_glide_gridfile>  (98) 
pfpi4k_grid

>  <i_i_glide_lignum>  (98) 
13

>  <i_i_glide_rotatable_bonds>  (98) 
0

>  <r_i_docking_score>  (98) 
-3.46298

>  <r_i_glide_ligand_efficiency>  (98) 
-0.346298

>  <r_i_glide_ligand_efficiency_sa>  (98) 
-0.746076

>  <r_i_glide_ligand_efficiency_ln>  (98) 
-1.04857

>  <r_i_glide_gscore>  (98) 
-3.46298

>  <r_i_glide_lipo>  (98) 
-0.325105

>  <r_i_glide_hbond>  (98) 
0

>  <r_i_glide_metal>  (98) 
-0

>  <r_i_glide_rewards>  (98) 
-2.25

>  <r_i_glide_evdw>  (98) 
-17.4658

>  <r_i_glide_ecoul>  (98) 
-0.0972262

>  <r_i_glide_erotb>  (98) 
0

>  <r_i_glide_esite>  (98) 
0

>  <r_i_glide_emodel>  (98) 
-20.9625

>  <r_i_glide_energy>  (98) 
-17.563

>  <r_i_glide_einternal>  (98) 
0

>  <r_i_glide_intrahb_reward>  (98) 
-0

>  <i_i_glide_confnum>  (98) 
1

>  <i_i_glide_posenum>  (98) 
19

>  <r_i_glide_eff_state_penalty>  (98) 
0

>  <ligand_id>  (98) 
35

>  <original_smiles>  (98) 
CC1CC2CC(C1)C1CC21

>  <smiles>  (98) 
[H]C([H])([H])C1([H])C([H])([H])C2([H])C([H])([H])C([H])(C1([H])[H])C1([H])C([H])([H])C21[H]

$$$$
35:0:2
     RDKit          3D

 26 28  0  0  1  0  0  0  0  0999 V2000
    3.4648   -2.7941    1.7967 C   0  0  0  0  0  0  0  0  0  0  0  0
    3.4400   -2.5213    0.2784 C   0  0  2  0  0  0  0  0  0  0  0  0
    3.9162   -3.7792   -0.5088 C   0  0  0  0  0  0  0  0  0  0  0  0
    4.4003   -3.4558   -1.9397 C   0  0  2  0  0  0  0  0  0  0  0  0
    5.5148   -2.4212   -1.7914 C   0  0  0  0  0  0  0  0  0  0  0  0
    4.6945   -1.1580   -1.5339 C   0  0  2  0  0  0  0  0  0  0  0  0
    4.2462   -1.2317   -0.0586 C   0  0  0  0  0  0  0  0  0  0  0  0
    3.5315   -1.2861   -2.5008 C   0  0  1  0  0  0  0  0  0  0  0  0
    3.6609   -1.8152   -3.9007 C   0  0  0  0  0  0  0  0  0  0  0  0
    3.3435   -2.7418   -2.7546 C   0  0  1  0  0  0  0  0  0  0  0  0
    4.4844   -2.9906    2.1566 H   0  0  0  0  0  0  0  0  0  0  0  0
    2.8566   -3.6635    2.0634 H   0  0  0  0  0  0  0  0  0  0  0  0
    3.0834   -1.9387    2.3629 H   0  0  0  0  0  0  0  0  0  0  0  0
    2.3998   -2.3392    0.0148 H   0  0  0  0  0  0  0  0  0  0  0  0
    4.7139   -4.2999    0.0487 H   0  0  0  0  0  0  0  0  0  0  0  0
    3.0923   -4.4854   -0.5664 H   0  0  0  0  0  0  0  0  0  0  0  0
    4.7213   -4.3554   -2.4581 H   0  0  0  0  0  0  0  0  0  0  0  0
    6.2198   -2.6649   -0.9794 H   0  0  0  0  0  0  0  0  0  0  0  0
    6.1060   -2.3553   -2.7090 H   0  0  0  0  0  0  0  0  0  0  0  0
    5.2478   -0.2618   -1.7470 H   0  0  0  0  0  0  0  0  0  0  0  0
    3.6217   -0.3740    0.1608 H   0  0  0  0  0  0  0  0  0  0  0  0
    5.1187   -1.1446    0.6052 H   0  0  0  0  0  0  0  0  0  0  0  0
    2.6523   -0.6996   -2.3010 H   0  0  0  0  0  0  0  0  0  0  0  0
    2.8461   -1.5804   -4.6004 H   0  0  0  0  0  0  0  0  0  0  0  0
    4.6361   -1.8532   -4.3406 H   0  0  0  0  0  0  0  0  0  0  0  0
    2.3425   -3.1404   -2.7248 H   0  0  0  0  0  0  0  0  0  0  0  0
  1  2  1  0
  1 11  1  0
  1 12  1  0
  1 13  1  0
  2  7  1  0
  2  3  1  0
  2 14  1  6
  3  4  1  0
  3 15  1  0
  3 16  1  0
  4 10  1  0
  4  5  1  0
  4 17  1  6
  5  6  1  0
  5 18  1  0
  5 19  1  0
  6  7  1  0
  6  8  1  0
  6 20  1  1
  7 21  1  0
  7 22  1  0
  8 10  1  0
  8  9  1  0
  8 23  1  6
  9 10  1  0
  9 24  1  0
  9 25  1  0
 10 26  1  6
M  END
>  <i_m_ct_stereo_status>  (99) 
1

>  <s_m_source_file>  (99) 
/var/tmp/pbs.5076255.sched01/tmp1pob34vh/39rbzpz6sd.sdf

>  <i_m_source_file_index>  (99) 
13

>  <i_lp_mmshare_version>  (99) 
48012

>  <i_f3d_flags>  (99) 
0

>  <s_epik_input>  (99) 
W0NIM11bQ0BIXShbQ0gyXTEpW0NIMl1bQ0BASF0oW0NIMl0yKVtDQEBIXShbQ0gyXTMpW0NAQEhdM1tDQEhdMTI=

>  <s_epik_cmdline>  (99) 
J2VwaWtfcHl0aG9uJywgJy1waHQnLCAnMi4wJywgJy1waCcsICc3LjAnLCAnLXRuJywgJzgnLCAnLW1hJywgJzIwMCcsICctaW1hZScsICc8aW5maWxlLm1hZT4nLCAnLW9tYWUnLCAnPG91dGZpbGUubWFlPic=

>  <r_lp_tautomer_probability>  (99) 
1

>  <r_epik_Ionization_Penalty>  (99) 
0

>  <r_epik_Ionization_Penalty_Charging>  (99) 
0

>  <r_epik_Ionization_Penalty_Neutral>  (99) 
0

>  <r_epik_State_Penalty>  (99) 
-0

>  <r_epik_Charging_Adjusted_Penalty>  (99) 
0

>  <i_epik_Tot_Q>  (99) 
0

>  <i_epik_Tot_abs_Q>  (99) 
0

>  <s_lp_Force_Field>  (99) 
OPLS3e

>  <r_lp_Energy>  (99) 
25.1733

>  <b_lp_Chiralities_Consistent>  (99) 
1

>  <s_lp_Variant>  (99) 
35:0-1

>  <s_i_glide_gridfile>  (99) 
pfpi4k_grid

>  <i_i_glide_lignum>  (99) 
13

>  <i_i_glide_rotatable_bonds>  (99) 
0

>  <r_i_docking_score>  (99) 
-3.25552

>  <r_i_glide_ligand_efficiency>  (99) 
-0.325552

>  <r_i_glide_ligand_efficiency_sa>  (99) 
-0.701381

>  <r_i_glide_ligand_efficiency_ln>  (99) 
-0.98575

>  <r_i_glide_gscore>  (99) 
-3.25552

>  <r_i_glide_lipo>  (99) 
-0.0898738

>  <r_i_glide_hbond>  (99) 
0

>  <r_i_glide_metal>  (99) 
-0

>  <r_i_glide_rewards>  (99) 
-2.25

>  <r_i_glide_evdw>  (99) 
-17.2632

>  <r_i_glide_ecoul>  (99) 
-0.349934

>  <r_i_glide_erotb>  (99) 
0

>  <r_i_glide_esite>  (99) 
0

>  <r_i_glide_emodel>  (99) 
-20.7548

>  <r_i_glide_energy>  (99) 
-17.6131

>  <r_i_glide_einternal>  (99) 
0

>  <r_i_glide_intrahb_reward>  (99) 
-0

>  <i_i_glide_confnum>  (99) 
2

>  <i_i_glide_posenum>  (99) 
1

>  <r_i_glide_eff_state_penalty>  (99) 
0

>  <ligand_id>  (99) 
35

>  <original_smiles>  (99) 
CC1CC2CC(C1)C1CC21

>  <smiles>  (99) 
[H]C([H])([H])C1([H])C([H])([H])C2([H])C([H])([H])C([H])(C1([H])[H])C1([H])C([H])([H])C21[H]

$$$$
35:1:0
     RDKit          3D

 26 28  0  0  1  0  0  0  0  0999 V2000
    3.6933   -1.4471   -3.9139 C   0  0  0  0  0  0  0  0  0  0  0  0
    3.7572   -2.8456   -3.2824 C   0  0  1  0  0  0  0  0  0  0  0  0
    5.2083   -3.2423   -2.8702 C   0  0  0  0  0  0  0  0  0  0  0  0
    5.5101   -3.1330   -1.3555 C   0  0  2  0  0  0  0  0  0  0  0  0
    4.4246   -3.9369   -0.6337 C   0  0  0  0  0  0  0  0  0  0  0  0
    3.2516   -2.9529   -0.7203 C   0  0  2  0  0  0  0  0  0  0  0  0
    2.6913   -3.0267   -2.1636 C   0  0  0  0  0  0  0  0  0  0  0  0
    3.8867   -1.6000   -0.4405 C   0  0  1  0  0  0  0  0  0  0  0  0
    4.9791   -1.3843    0.5967 C   0  0  0  0  0  0  0  0  0  0  0  0
    5.3212   -1.7136   -0.8480 C   0  0  1  0  0  0  0  0  0  0  0  0
    3.9420   -0.6519   -3.2140 H   0  0  0  0  0  0  0  0  0  0  0  0
    2.6956   -1.2552   -4.2965 H   0  0  0  0  0  0  0  0  0  0  0  0
    4.3712   -1.3762   -4.7560 H   0  0  0  0  0  0  0  0  0  0  0  0
    3.4697   -3.5260   -4.0868 H   0  0  0  0  0  0  0  0  0  0  0  0
    5.3723   -4.2802   -3.1664 H   0  0  0  0  0  0  0  0  0  0  0  0
    5.9384   -2.6665   -3.4305 H   0  0  0  0  0  0  0  0  0  0  0  0
    6.5176   -3.4859   -1.1255 H   0  0  0  0  0  0  0  0  0  0  0  0
    4.2197   -4.8938   -1.1076 H   0  0  0  0  0  0  0  0  0  0  0  0
    4.6959   -4.1407    0.4014 H   0  0  0  0  0  0  0  0  0  0  0  0
    2.4696   -3.1527    0.0147 H   0  0  0  0  0  0  0  0  0  0  0  0
    1.8949   -2.2963   -2.3035 H   0  0  0  0  0  0  0  0  0  0  0  0
    2.1975   -3.9870   -2.2868 H   0  0  0  0  0  0  0  0  0  0  0  0
    3.3244   -0.7159   -0.7347 H   0  0  0  0  0  0  0  0  0  0  0  0
    5.1513   -0.3633    0.9264 H   0  0  0  0  0  0  0  0  0  0  0  0
    5.1298   -2.1404    1.3612 H   0  0  0  0  0  0  0  0  0  0  0  0
    5.7540   -0.9089   -1.4390 H   0  0  0  0  0  0  0  0  0  0  0  0
  1  2  1  0
  1 11  1  0
  1 12  1  0
  1 13  1  0
  2  7  1  0
  2  3  1  0
  2 14  1  6
  3  4  1  0
  3 15  1  0
  3 16  1  0
  4 10  1  0
  4  5  1  0
  4 17  1  6
  5  6  1  0
  5 18  1  0
  5 19  1  0
  6  7  1  0
  6  8  1  0
  6 20  1  1
  7 21  1  0
  7 22  1  0
  8 10  1  0
  8  9  1  0
  8 23  1  6
  9 10  1  0
  9 24  1  0
  9 25  1  0
 10 26  1  6
M  END
>  <i_m_ct_stereo_status>  (100) 
1

>  <s_m_source_file>  (100) 
/var/tmp/pbs.5076255.sched01/tmp1pob34vh/39rbzpz6sd.sdf

>  <i_m_source_file_index>  (100) 
14

>  <i_lp_mmshare_version>  (100) 
48012

>  <i_f3d_flags>  (100) 
0

>  <s_epik_input>  (100) 
W0NIM11bQ0BIXShbQ0gyXTEpW0NIMl1bQ0BASF0oW0NIMl0yKVtDQEBIXShbQ0gyXTMpW0NAQEhdM1tDQEhdMTI=

>  <s_epik_cmdline>  (100) 
J2VwaWtfcHl0aG9uJywgJy1waHQnLCAnMi4wJywgJy1waCcsICc3LjAnLCAnLXRuJywgJzgnLCAnLW1hJywgJzIwMCcsICctaW1hZScsICc8aW5maWxlLm1hZT4nLCAnLW9tYWUnLCAnPG91dGZpbGUubWFlPic=

>  <r_lp_tautomer_probability>  (100) 
1

>  <r_epik_Ionization_Penalty>  (100) 
0

>  <r_epik_Ionization_Penalty_Charging>  (100) 
0

>  <r_epik_Ionization_Penalty_Neutral>  (100) 
0

>  <r_epik_State_Penalty>  (100) 
-0

>  <r_epik_Charging_Adjusted_Penalty>  (100) 
0

>  <i_epik_Tot_Q>  (100) 
0

>  <i_epik_Tot_abs_Q>  (100) 
0

>  <s_lp_Force_Field>  (100) 
OPLS3e

>  <r_lp_Energy>  (100) 
25.1164

>  <b_lp_Chiralities_Consistent>  (100) 
1

>  <s_lp_Variant>  (100) 
35:0-2

>  <s_i_glide_gridfile>  (100) 
pfpi4k_grid

>  <i_i_glide_lignum>  (100) 
14

>  <i_i_glide_rotatable_bonds>  (100) 
0

>  <r_i_docking_score>  (100) 
-3.75812

>  <r_i_glide_ligand_efficiency>  (100) 
-0.375812

>  <r_i_glide_ligand_efficiency_sa>  (100) 
-0.809663

>  <r_i_glide_ligand_efficiency_ln>  (100) 
-1.13793

>  <r_i_glide_gscore>  (100) 
-3.75812

>  <r_i_glide_lipo>  (100) 
-0.562403

>  <r_i_glide_hbond>  (100) 
0

>  <r_i_glide_metal>  (100) 
-0

>  <r_i_glide_rewards>  (100) 
-2.25

>  <r_i_glide_evdw>  (100) 
-18.5544

>  <r_i_glide_ecoul>  (100) 
-0.119999

>  <r_i_glide_erotb>  (100) 
0

>  <r_i_glide_esite>  (100) 
0

>  <r_i_glide_emodel>  (100) 
-22.7891

>  <r_i_glide_energy>  (100) 
-18.6744

>  <r_i_glide_einternal>  (100) 
0

>  <r_i_glide_intrahb_reward>  (100) 
-0

>  <i_i_glide_confnum>  (100) 
1

>  <i_i_glide_posenum>  (100) 
40

>  <r_i_glide_eff_state_penalty>  (100) 
0

>  <ligand_id>  (100) 
35

>  <original_smiles>  (100) 
CC1CC2CC(C1)C1CC21

>  <smiles>  (100) 
[H]C([H])([H])C1([H])C([H])([H])C2([H])C([H])([H])C([H])(C1([H])[H])C1([H])C([H])([H])C21[H]

$$$$
35:1:1
     RDKit          3D

 26 28  0  0  1  0  0  0  0  0999 V2000
    3.8207   -1.8385    0.4643 C   0  0  0  0  0  0  0  0  0  0  0  0
    3.9813   -3.0407   -0.4796 C   0  0  1  0  0  0  0  0  0  0  0  0
    2.7174   -3.2687   -1.3579 C   0  0  0  0  0  0  0  0  0  0  0  0
    2.8519   -2.8170   -2.8309 C   0  0  2  0  0  0  0  0  0  0  0  0
    4.1310   -3.4605   -3.3846 C   0  0  0  0  0  0  0  0  0  0  0  0
    5.1898   -2.5672   -2.7402 C   0  0  2  0  0  0  0  0  0  0  0  0
    5.3232   -3.0022   -1.2651 C   0  0  0  0  0  0  0  0  0  0  0  0
    4.6029   -1.1658   -2.8671 C   0  0  1  0  0  0  0  0  0  0  0  0
    3.8416   -0.6796   -4.0930 C   0  0  0  0  0  0  0  0  0  0  0  0
    3.1275   -1.3263   -2.9254 C   0  0  1  0  0  0  0  0  0  0  0  0
    3.7377   -0.8977   -0.0722 H   0  0  0  0  0  0  0  0  0  0  0  0
    4.6653   -1.7682    1.1481 H   0  0  0  0  0  0  0  0  0  0  0  0
    2.9297   -1.9522    1.0774 H   0  0  0  0  0  0  0  0  0  0  0  0
    4.0436   -3.8975    0.1874 H   0  0  0  0  0  0  0  0  0  0  0  0
    2.4733   -4.3259   -1.3495 H   0  0  0  0  0  0  0  0  0  0  0  0
    1.8564   -2.7967   -0.9014 H   0  0  0  0  0  0  0  0  0  0  0  0
    1.9562   -3.0663   -3.4054 H   0  0  0  0  0  0  0  0  0  0  0  0
    4.2617   -4.5010   -3.1061 H   0  0  0  0  0  0  0  0  0  0  0  0
    4.1621   -3.3994   -4.4725 H   0  0  0  0  0  0  0  0  0  0  0  0
    6.1528   -2.6550   -3.2487 H   0  0  0  0  0  0  0  0  0  0  0  0
    6.0373   -2.3541   -0.7592 H   0  0  0  0  0  0  0  0  0  0  0  0
    5.7685   -3.9988   -1.2418 H   0  0  0  0  0  0  0  0  0  0  0  0
    5.0176   -0.3886   -2.2232 H   0  0  0  0  0  0  0  0  0  0  0  0
    3.7321    0.3969   -4.2095 H   0  0  0  0  0  0  0  0  0  0  0  0
    3.9333   -1.2331   -5.0271 H   0  0  0  0  0  0  0  0  0  0  0  0
    2.5223   -0.6685   -2.3117 H   0  0  0  0  0  0  0  0  0  0  0  0
  1  2  1  0
  1 11  1  0
  1 12  1  0
  1 13  1  0
  2  7  1  0
  2  3  1  0
  2 14  1  1
  3  4  1  0
  3 15  1  0
  3 16  1  0
  4 10  1  0
  4  5  1  0
  4 17  1  6
  5  6  1  0
  5 18  1  0
  5 19  1  0
  6  7  1  0
  6  8  1  0
  6 20  1  6
  7 21  1  0
  7 22  1  0
  8 10  1  0
  8  9  1  0
  8 23  1  1
  9 10  1  0
  9 24  1  0
  9 25  1  0
 10 26  1  1
M  END
>  <i_m_ct_stereo_status>  (101) 
1

>  <s_m_source_file>  (101) 
/var/tmp/pbs.5076255.sched01/tmp1pob34vh/39rbzpz6sd.sdf

>  <i_m_source_file_index>  (101) 
14

>  <i_lp_mmshare_version>  (101) 
48012

>  <i_f3d_flags>  (101) 
0

>  <s_epik_input>  (101) 
W0NIM11bQ0BIXShbQ0gyXTEpW0NIMl1bQ0BASF0oW0NIMl0yKVtDQEBIXShbQ0gyXTMpW0NAQEhdM1tDQEhdMTI=

>  <s_epik_cmdline>  (101) 
J2VwaWtfcHl0aG9uJywgJy1waHQnLCAnMi4wJywgJy1waCcsICc3LjAnLCAnLXRuJywgJzgnLCAnLW1hJywgJzIwMCcsICctaW1hZScsICc8aW5maWxlLm1hZT4nLCAnLW9tYWUnLCAnPG91dGZpbGUubWFlPic=

>  <r_lp_tautomer_probability>  (101) 
1

>  <r_epik_Ionization_Penalty>  (101) 
0

>  <r_epik_Ionization_Penalty_Charging>  (101) 
0

>  <r_epik_Ionization_Penalty_Neutral>  (101) 
0

>  <r_epik_State_Penalty>  (101) 
-0

>  <r_epik_Charging_Adjusted_Penalty>  (101) 
0

>  <i_epik_Tot_Q>  (101) 
0

>  <i_epik_Tot_abs_Q>  (101) 
0

>  <s_lp_Force_Field>  (101) 
OPLS3e

>  <r_lp_Energy>  (101) 
25.1164

>  <b_lp_Chiralities_Consistent>  (101) 
1

>  <s_lp_Variant>  (101) 
35:0-2

>  <s_i_glide_gridfile>  (101) 
pfpi4k_grid

>  <i_i_glide_lignum>  (101) 
14

>  <i_i_glide_rotatable_bonds>  (101) 
0

>  <r_i_docking_score>  (101) 
-3.65533

>  <r_i_glide_ligand_efficiency>  (101) 
-0.365533

>  <r_i_glide_ligand_efficiency_sa>  (101) 
-0.787517

>  <r_i_glide_ligand_efficiency_ln>  (101) 
-1.10681

>  <r_i_glide_gscore>  (101) 
-3.65533

>  <r_i_glide_lipo>  (101) 
-0.557145

>  <r_i_glide_hbond>  (101) 
0

>  <r_i_glide_metal>  (101) 
-0

>  <r_i_glide_rewards>  (101) 
-2.25

>  <r_i_glide_evdw>  (101) 
-16.5578

>  <r_i_glide_ecoul>  (101) 
-0.135288

>  <r_i_glide_erotb>  (101) 
0

>  <r_i_glide_esite>  (101) 
0

>  <r_i_glide_emodel>  (101) 
-20.6593

>  <r_i_glide_energy>  (101) 
-16.6931

>  <r_i_glide_einternal>  (101) 
0

>  <r_i_glide_intrahb_reward>  (101) 
-0

>  <i_i_glide_confnum>  (101) 
2

>  <i_i_glide_posenum>  (101) 
31

>  <r_i_glide_eff_state_penalty>  (101) 
0

>  <ligand_id>  (101) 
35

>  <original_smiles>  (101) 
CC1CC2CC(C1)C1CC21

>  <smiles>  (101) 
[H]C([H])([H])C1([H])C([H])([H])C2([H])C([H])([H])C([H])(C1([H])[H])C1([H])C([H])([H])C21[H]

$$$$
35:1:2
     RDKit          3D

 26 28  0  0  1  0  0  0  0  0999 V2000
    4.4991   -5.0923    0.2860 C   0  0  0  0  0  0  0  0  0  0  0  0
    4.9671   -3.6482    0.4940 C   0  0  1  0  0  0  0  0  0  0  0  0
    6.2551   -3.2999   -0.3101 C   0  0  0  0  0  0  0  0  0  0  0  0
    6.0086   -2.4493   -1.5711 C   0  0  2  0  0  0  0  0  0  0  0  0
    5.2150   -1.2181   -1.1141 C   0  0  0  0  0  0  0  0  0  0  0  0
    3.8179   -1.8136   -0.9526 C   0  0  2  0  0  0  0  0  0  0  0  0
    3.8146   -2.6053    0.3705 C   0  0  0  0  0  0  0  0  0  0  0  0
    3.6818   -2.7211   -2.1615 C   0  0  1  0  0  0  0  0  0  0  0  0
    4.1956   -2.3739   -3.5414 C   0  0  0  0  0  0  0  0  0  0  0  0
    5.0661   -3.1213   -2.5522 C   0  0  1  0  0  0  0  0  0  0  0  0
    4.1680   -5.2650   -0.7258 H   0  0  0  0  0  0  0  0  0  0  0  0
    3.6786   -5.3273    0.9524 H   0  0  0  0  0  0  0  0  0  0  0  0
    5.3015   -5.7898    0.5007 H   0  0  0  0  0  0  0  0  0  0  0  0
    5.2646   -3.6262    1.5405 H   0  0  0  0  0  0  0  0  0  0  0  0
    6.9520   -2.7612    0.3372 H   0  0  0  0  0  0  0  0  0  0  0  0
    6.7634   -4.2114   -0.6030 H   0  0  0  0  0  0  0  0  0  0  0  0
    6.9376   -2.2121   -2.0762 H   0  0  0  0  0  0  0  0  0  0  0  0
    5.5935   -0.7759   -0.1859 H   0  0  0  0  0  0  0  0  0  0  0  0
    5.2204   -0.4188   -1.8639 H   0  0  0  0  0  0  0  0  0  0  0  0
    3.0270   -1.0669   -0.9733 H   0  0  0  0  0  0  0  0  0  0  0  0
    2.8525   -3.0994    0.4800 H   0  0  0  0  0  0  0  0  0  0  0  0
    3.8817   -1.8892    1.1931 H   0  0  0  0  0  0  0  0  0  0  0  0
    2.9159   -3.4867   -2.1217 H   0  0  0  0  0  0  0  0  0  0  0  0
    3.7765   -2.9514   -4.3797 H   0  0  0  0  0  0  0  0  0  0  0  0
    4.4234   -1.3447   -3.7593 H   0  0  0  0  0  0  0  0  0  0  0  0
    5.2508   -4.1656   -2.7761 H   0  0  0  0  0  0  0  0  0  0  0  0
  1  2  1  0
  1 11  1  0
  1 12  1  0
  1 13  1  0
  2  7  1  0
  2  3  1  0
  2 14  1  1
  3  4  1  0
  3 15  1  0
  3 16  1  0
  4 10  1  0
  4  5  1  0
  4 17  1  6
  5  6  1  0
  5 18  1  0
  5 19  1  0
  6  7  1  0
  6  8  1  0
  6 20  1  1
  7 21  1  0
  7 22  1  0
  8 10  1  0
  8  9  1  0
  8 23  1  6
  9 10  1  0
  9 24  1  0
  9 25  1  0
 10 26  1  6
M  END
>  <i_m_ct_stereo_status>  (102) 
1

>  <s_m_source_file>  (102) 
/var/tmp/pbs.5076255.sched01/tmp1pob34vh/39rbzpz6sd.sdf

>  <i_m_source_file_index>  (102) 
14

>  <i_lp_mmshare_version>  (102) 
48012

>  <i_f3d_flags>  (102) 
0

>  <s_epik_input>  (102) 
W0NIM11bQ0BIXShbQ0gyXTEpW0NIMl1bQ0BASF0oW0NIMl0yKVtDQEBIXShbQ0gyXTMpW0NAQEhdM1tDQEhdMTI=

>  <s_epik_cmdline>  (102) 
J2VwaWtfcHl0aG9uJywgJy1waHQnLCAnMi4wJywgJy1waCcsICc3LjAnLCAnLXRuJywgJzgnLCAnLW1hJywgJzIwMCcsICctaW1hZScsICc8aW5maWxlLm1hZT4nLCAnLW9tYWUnLCAnPG91dGZpbGUubWFlPic=

>  <r_lp_tautomer_probability>  (102) 
1

>  <r_epik_Ionization_Penalty>  (102) 
0

>  <r_epik_Ionization_Penalty_Charging>  (102) 
0

>  <r_epik_Ionization_Penalty_Neutral>  (102) 
0

>  <r_epik_State_Penalty>  (102) 
-0

>  <r_epik_Charging_Adjusted_Penalty>  (102) 
0

>  <i_epik_Tot_Q>  (102) 
0

>  <i_epik_Tot_abs_Q>  (102) 
0

>  <s_lp_Force_Field>  (102) 
OPLS3e

>  <r_lp_Energy>  (102) 
25.1164

>  <b_lp_Chiralities_Consistent>  (102) 
1

>  <s_lp_Variant>  (102) 
35:0-2

>  <s_i_glide_gridfile>  (102) 
pfpi4k_grid

>  <i_i_glide_lignum>  (102) 
14

>  <i_i_glide_rotatable_bonds>  (102) 
0

>  <r_i_docking_score>  (102) 
-3.64883

>  <r_i_glide_ligand_efficiency>  (102) 
-0.364883

>  <r_i_glide_ligand_efficiency_sa>  (102) 
-0.786116

>  <r_i_glide_ligand_efficiency_ln>  (102) 
-1.10484

>  <r_i_glide_gscore>  (102) 
-3.64883

>  <r_i_glide_lipo>  (102) 
-0.528369

>  <r_i_glide_hbond>  (102) 
0

>  <r_i_glide_metal>  (102) 
-0

>  <r_i_glide_rewards>  (102) 
-2.25

>  <r_i_glide_evdw>  (102) 
-16.964

>  <r_i_glide_ecoul>  (102) 
-0.148387

>  <r_i_glide_erotb>  (102) 
0

>  <r_i_glide_esite>  (102) 
0

>  <r_i_glide_emodel>  (102) 
-21.0708

>  <r_i_glide_energy>  (102) 
-17.1124

>  <r_i_glide_einternal>  (102) 
0

>  <r_i_glide_intrahb_reward>  (102) 
-0

>  <i_i_glide_confnum>  (102) 
1

>  <i_i_glide_posenum>  (102) 
7

>  <r_i_glide_eff_state_penalty>  (102) 
0

>  <ligand_id>  (102) 
35

>  <original_smiles>  (102) 
CC1CC2CC(C1)C1CC21

>  <smiles>  (102) 
[H]C([H])([H])C1([H])C([H])([H])C2([H])C([H])([H])C([H])(C1([H])[H])C1([H])C([H])([H])C21[H]

$$$$
37:0:0
     RDKit          3D

 47 51  0  0  1  0  0  0  0  0999 V2000
    1.4158   -2.1840    2.7638 C   0  0  0  0  0  0  0  0  0  0  0  0
    2.4411   -2.4628    1.7284 N   0  0  1  0  0  0  0  0  0  0  0  0
    3.1809   -1.2567    1.2373 C   0  0  0  0  0  0  0  0  0  0  0  0
    4.6760   -1.6947    1.0092 C   0  0  0  0  0  0  0  0  0  0  0  0
    4.5833   -3.2373    1.0279 C   0  0  2  0  0  0  0  0  0  0  0  0
    5.5967   -4.1848    1.6063 C   0  0  0  0  0  0  0  0  0  0  0  0
    5.0445   -5.0596    2.5539 C   0  0  0  0  0  0  0  0  0  0  0  0
    5.8513   -6.1104    3.0194 C   0  0  0  0  0  0  0  0  0  0  0  0
    7.1492   -6.2622    2.4703 C   0  0  0  0  0  0  0  0  0  0  0  0
    7.6011   -5.4459    1.3996 C   0  0  0  0  0  0  0  0  0  0  0  0
    8.7816   -5.7510    0.7778 O   0  0  0  0  0  0  0  0  0  0  0  0
    6.7879   -4.3931    0.9101 C   0  0  0  0  0  0  0  0  0  0  0  0
    6.9315   -3.7956   -0.3150 O   0  0  0  0  0  0  0  0  0  0  0  0
    5.7416   -3.9443   -1.1185 C   0  0  2  0  0  0  0  0  0  0  0  0
    5.7223   -2.9139   -2.2498 C   0  0  0  0  0  0  0  0  0  0  0  0
    4.2424   -2.6953   -2.6376 C   0  0  0  0  0  0  0  0  0  0  0  0
    3.9394   -1.2141   -2.9287 C   0  0  0  0  0  0  0  0  0  0  0  0
    3.8719   -3.5644   -3.8539 C   0  0  0  0  0  0  0  0  0  0  0  0
    3.4824   -3.1790   -1.3969 C   0  0  0  0  0  0  0  0  0  0  0  0
    2.2643   -3.1254   -1.2509 O   0  0  0  0  0  0  0  0  0  0  0  0
    4.3811   -3.8579   -0.3818 C   0  0  2  0  0  0  0  0  0  0  0  0
    3.5462   -4.7430    2.6579 C   0  0  0  0  0  0  0  0  0  0  0  0
    3.5604   -3.3156    2.1328 C   0  0  2  0  0  0  0  0  0  0  0  0
    1.8472   -1.6940    3.6397 H   0  0  0  0  0  0  0  0  0  0  0  0
    0.9353   -3.1069    3.0875 H   0  0  0  0  0  0  0  0  0  0  0  0
    0.6416   -1.5301    2.3566 H   0  0  0  0  0  0  0  0  0  0  0  0
    2.7136   -0.8804    0.3279 H   0  0  0  0  0  0  0  0  0  0  0  0
    3.1407   -0.4465    1.9670 H   0  0  0  0  0  0  0  0  0  0  0  0
    5.1045   -1.2854    0.0935 H   0  0  0  0  0  0  0  0  0  0  0  0
    5.2917   -1.3376    1.8391 H   0  0  0  0  0  0  0  0  0  0  0  0
    5.4633   -6.8301    3.7277 H   0  0  0  0  0  0  0  0  0  0  0  0
    7.7595   -7.0853    2.7973 H   0  0  0  0  0  0  0  0  0  0  0  0
    9.2072   -6.5415    1.0947 H   0  0  0  0  0  0  0  0  0  0  0  0
    5.7294   -4.9411   -1.5374 H   0  0  0  0  0  0  0  0  0  0  0  0
    6.1620   -1.9850   -1.8856 H   0  0  0  0  0  0  0  0  0  0  0  0
    6.3370   -3.2488   -3.0895 H   0  0  0  0  0  0  0  0  0  0  0  0
    4.5468   -0.8452   -3.7549 H   0  0  0  0  0  0  0  0  0  0  0  0
    4.1377   -0.5832   -2.0621 H   0  0  0  0  0  0  0  0  0  0  0  0
    2.8913   -1.0748   -3.1972 H   0  0  0  0  0  0  0  0  0  0  0  0
    4.4654   -3.2968   -4.7227 H   0  0  0  0  0  0  0  0  0  0  0  0
    2.8164   -3.4601   -4.1136 H   0  0  0  0  0  0  0  0  0  0  0  0
    4.0817   -4.6168   -3.6736 H   0  0  0  0  0  0  0  0  0  0  0  0
    3.9875   -4.8666   -0.2498 H   0  0  0  0  0  0  0  0  0  0  0  0
    2.9860   -5.4062    1.9965 H   0  0  0  0  0  0  0  0  0  0  0  0
    3.1719   -4.8334    3.6798 H   0  0  0  0  0  0  0  0  0  0  0  0
    3.9602   -2.7893    3.0086 H   0  0  0  0  0  0  0  0  0  0  0  0
    1.9991   -2.8859    0.9185 H   0  0  0  0  0  0  0  0  0  0  0  0
  1  2  1  0
  1 24  1  0
  1 25  1  0
  1 26  1  0
  2 23  1  0
  2  3  1  0
  2 47  1  6
  3  4  1  0
  3 27  1  0
  3 28  1  0
  5  4  1  6
  4 29  1  0
  4 30  1  0
  5 21  1  0
  5 23  1  0
  5  6  1  0
  6 12  1  0
  6  7  2  0
  7  8  1  0
  7 22  1  0
  8  9  2  0
  8 31  1  0
  9 10  1  0
  9 32  1  0
 10 11  1  0
 10 12  2  0
 11 33  1  0
 12 13  1  0
 13 14  1  0
 14 21  1  0
 14 15  1  0
 14 34  1  6
 15 16  1  0
 15 35  1  0
 15 36  1  0
 16 17  1  0
 16 18  1  0
 16 19  1  0
 17 37  1  0
 17 38  1  0
 17 39  1  0
 18 40  1  0
 18 41  1  0
 18 42  1  0
 19 20  2  0
 19 21  1  0
 21 43  1  1
 22 23  1  0
 22 44  1  0
 22 45  1  0
 23 46  1  1
M  CHG  1   2   1
M  END
>  <i_m_ct_stereo_status>  (103) 
1

>  <s_m_source_file>  (103) 
/var/tmp/pbs.5076255.sched01/tmp1pob34vh/39rbzpz6sd.sdf

>  <i_m_source_file_index>  (103) 
17

>  <i_lp_mmshare_version>  (103) 
48012

>  <i_f3d_flags>  (103) 
0

>  <s_epik_input>  (103) 
W0NIMl0xW0NIMl1OKFtDSDNdKVtDQEhdMltDSDJdYyhjM1tDQF0xMjQpW2NIXVtjSF1jKFtPSF0pYzNPW0NASF01W0NAQEhdNEMoPU8pQyhbQ0gyXTUpKFtDSDNdKVtDSDNd

>  <s_epik_cmdline>  (103) 
J2VwaWtfcHl0aG9uJywgJy1waHQnLCAnMi4wJywgJy1waCcsICc3LjAnLCAnLXRuJywgJzgnLCAnLW1hJywgJzIwMCcsICctaW1hZScsICc8aW5maWxlLm1hZT4nLCAnLW9tYWUnLCAnPG91dGZpbGUubWFlPic=

>  <r_lp_tautomer_probability>  (103) 
1

>  <r_epik_Ionization_Penalty>  (103) 
0.0156996

>  <r_epik_Ionization_Penalty_Charging>  (103) 
0.0107833

>  <r_epik_Ionization_Penalty_Neutral>  (103) 
0.00491633

>  <r_epik_State_Penalty>  (103) 
0.00826468

>  <r_epik_Charging_Adjusted_Penalty>  (103) 
0.0190479

>  <i_epik_Tot_Q>  (103) 
1

>  <i_epik_Tot_abs_Q>  (103) 
1

>  <s_lp_Force_Field>  (103) 
OPLS3e

>  <r_lp_Energy>  (103) 
73.0502

>  <b_lp_Chiralities_Consistent>  (103) 
1

>  <s_lp_Variant>  (103) 
37:0-1

>  <s_i_glide_gridfile>  (103) 
pfpi4k_grid

>  <i_i_glide_lignum>  (103) 
17

>  <i_i_glide_rotatable_bonds>  (103) 
1

>  <r_i_docking_score>  (103) 
-4.33648

>  <r_i_glide_ligand_efficiency>  (103) 
-0.188543

>  <r_i_glide_ligand_efficiency_sa>  (103) 
-0.53619

>  <r_i_glide_ligand_efficiency_ln>  (103) 
-1.0486

>  <r_i_glide_gscore>  (103) 
-4.33648

>  <r_i_glide_lipo>  (103) 
-0.599067

>  <r_i_glide_hbond>  (103) 
0

>  <r_i_glide_metal>  (103) 
-0

>  <r_i_glide_rewards>  (103) 
-1.79

>  <r_i_glide_evdw>  (103) 
-20.3587

>  <r_i_glide_ecoul>  (103) 
-6.02094

>  <r_i_glide_erotb>  (103) 
0

>  <r_i_glide_esite>  (103) 
-0.0263432

>  <r_i_glide_emodel>  (103) 
-37.704

>  <r_i_glide_energy>  (103) 
-26.3796

>  <r_i_glide_einternal>  (103) 
0.0328347

>  <r_i_glide_intrahb_reward>  (103) 
-0.5

>  <i_i_glide_confnum>  (103) 
1

>  <i_i_glide_posenum>  (103) 
17

>  <r_i_glide_eff_state_penalty>  (103) 
0

>  <ligand_id>  (103) 
37

>  <original_smiles>  (103) 
CN1CCC23c4c(ccc(O)c4OC4CC(C)(C)C(=O)C42)CC13

>  <smiles>  (103) 
[H]Oc1c([H])c([H])c2c3c1OC1([H])C([H])([H])C(C([H])([H])[H])(C([H])([H])[H])C(=O)C1([H])C31C([H])([H])C([H])([H])[N+]([H])(C([H])([H])[H])C1([H])C2([H])[H]

$$$$
37:0:1
     RDKit          3D

 47 51  0  0  1  0  0  0  0  0999 V2000
    6.1692   -6.5894    1.4776 C   0  0  0  0  0  0  0  0  0  0  0  0
    5.6381   -5.2042    1.4360 N   0  0  1  0  0  0  0  0  0  0  0  0
    6.5251   -4.1828    2.0639 C   0  0  0  0  0  0  0  0  0  0  0  0
    6.4329   -2.8707    1.2079 C   0  0  0  0  0  0  0  0  0  0  0  0
    5.1856   -3.1307    0.3435 C   0  0  2  0  0  0  0  0  0  0  0  0
    5.0139   -2.7336   -1.0913 C   0  0  0  0  0  0  0  0  0  0  0  0
    4.7068   -3.8129   -1.9252 C   0  0  0  0  0  0  0  0  0  0  0  0
    4.3228   -3.5428   -3.2516 C   0  0  0  0  0  0  0  0  0  0  0  0
    4.2104   -2.1914   -3.6475 C   0  0  0  0  0  0  0  0  0  0  0  0
    4.3935   -1.1345   -2.7187 C   0  0  0  0  0  0  0  0  0  0  0  0
    4.1346    0.1373   -3.1184 O   0  0  0  0  0  0  0  0  0  0  0  0
    4.7620   -1.3982   -1.3763 C   0  0  0  0  0  0  0  0  0  0  0  0
    4.6094   -0.5341   -0.3252 O   0  0  0  0  0  0  0  0  0  0  0  0
    3.7172   -1.0670    0.6768 C   0  0  2  0  0  0  0  0  0  0  0  0
    3.9447   -0.3467    2.0061 C   0  0  0  0  0  0  0  0  0  0  0  0
    3.5362   -1.3212    3.1300 C   0  0  0  0  0  0  0  0  0  0  0  0
    4.4821   -1.2337    4.3422 C   0  0  0  0  0  0  0  0  0  0  0  0
    2.0809   -1.0667    3.5619 C   0  0  0  0  0  0  0  0  0  0  0  0
    3.6428   -2.6899    2.4547 C   0  0  0  0  0  0  0  0  0  0  0  0
    3.5247   -3.7681    3.0371 O   0  0  0  0  0  0  0  0  0  0  0  0
    3.8589   -2.5916    0.9576 C   0  0  2  0  0  0  0  0  0  0  0  0
    4.6239   -5.0527   -1.0320 C   0  0  0  0  0  0  0  0  0  0  0  0
    5.4749   -4.5936    0.1215 C   0  0  2  0  0  0  0  0  0  0  0  0
    7.1516   -6.6681    1.0085 H   0  0  0  0  0  0  0  0  0  0  0  0
    5.4926   -7.2803    0.9756 H   0  0  0  0  0  0  0  0  0  0  0  0
    6.2702   -6.9273    2.5108 H   0  0  0  0  0  0  0  0  0  0  0  0
    6.2033   -4.0339    3.0947 H   0  0  0  0  0  0  0  0  0  0  0  0
    7.5532   -4.5368    2.0708 H   0  0  0  0  0  0  0  0  0  0  0  0
    6.3727   -1.9673    1.8127 H   0  0  0  0  0  0  0  0  0  0  0  0
    7.3300   -2.7841    0.5900 H   0  0  0  0  0  0  0  0  0  0  0  0
    4.0264   -4.3393   -3.9234 H   0  0  0  0  0  0  0  0  0  0  0  0
    3.8780   -1.9527   -4.6428 H   0  0  0  0  0  0  0  0  0  0  0  0
    3.2250    0.2979   -3.3367 H   0  0  0  0  0  0  0  0  0  0  0  0
    2.6866   -0.8948    0.3667 H   0  0  0  0  0  0  0  0  0  0  0  0
    4.9977   -0.0830    2.0953 H   0  0  0  0  0  0  0  0  0  0  0  0
    3.3884    0.5912    2.0290 H   0  0  0  0  0  0  0  0  0  0  0  0
    4.4835   -0.2294    4.7665 H   0  0  0  0  0  0  0  0  0  0  0  0
    5.5085   -1.4773    4.0683 H   0  0  0  0  0  0  0  0  0  0  0  0
    4.1827   -1.9294    5.1276 H   0  0  0  0  0  0  0  0  0  0  0  0
    1.9654   -0.0584    3.9619 H   0  0  0  0  0  0  0  0  0  0  0  0
    1.7660   -1.7670    4.3362 H   0  0  0  0  0  0  0  0  0  0  0  0
    1.3888   -1.1683    2.7246 H   0  0  0  0  0  0  0  0  0  0  0  0
    3.0357   -3.1211    0.4767 H   0  0  0  0  0  0  0  0  0  0  0  0
    3.6013   -5.2251   -0.7118 H   0  0  0  0  0  0  0  0  0  0  0  0
    5.0121   -5.9440   -1.5152 H   0  0  0  0  0  0  0  0  0  0  0  0
    6.4748   -4.6920   -0.3192 H   0  0  0  0  0  0  0  0  0  0  0  0
    4.7424   -5.1771    1.9124 H   0  0  0  0  0  0  0  0  0  0  0  0
  1  2  1  0
  1 24  1  0
  1 25  1  0
  1 26  1  0
  2 23  1  0
  2  3  1  0
  2 47  1  1
  3  4  1  0
  3 27  1  0
  3 28  1  0
  5  4  1  1
  4 29  1  0
  4 30  1  0
  5 21  1  0
  5 23  1  0
  5  6  1  0
  6 12  1  0
  6  7  2  0
  7  8  1  0
  7 22  1  0
  8  9  2  0
  8 31  1  0
  9 10  1  0
  9 32  1  0
 10 11  1  0
 10 12  2  0
 11 33  1  0
 12 13  1  0
 13 14  1  0
 14 21  1  0
 14 15  1  0
 14 34  1  6
 15 16  1  0
 15 35  1  0
 15 36  1  0
 16 17  1  0
 16 18  1  0
 16 19  1  0
 17 37  1  0
 17 38  1  0
 17 39  1  0
 18 40  1  0
 18 41  1  0
 18 42  1  0
 19 20  2  0
 19 21  1  0
 21 43  1  6
 22 23  1  0
 22 44  1  0
 22 45  1  0
 23 46  1  6
M  CHG  1   2   1
M  END
>  <i_m_ct_stereo_status>  (104) 
1

>  <s_m_source_file>  (104) 
/var/tmp/pbs.5076255.sched01/tmp1pob34vh/39rbzpz6sd.sdf

>  <i_m_source_file_index>  (104) 
17

>  <i_lp_mmshare_version>  (104) 
48012

>  <i_f3d_flags>  (104) 
0

>  <s_epik_input>  (104) 
W0NIMl0xW0NIMl1OKFtDSDNdKVtDQEhdMltDSDJdYyhjM1tDQF0xMjQpW2NIXVtjSF1jKFtPSF0pYzNPW0NASF01W0NAQEhdNEMoPU8pQyhbQ0gyXTUpKFtDSDNdKVtDSDNd

>  <s_epik_cmdline>  (104) 
J2VwaWtfcHl0aG9uJywgJy1waHQnLCAnMi4wJywgJy1waCcsICc3LjAnLCAnLXRuJywgJzgnLCAnLW1hJywgJzIwMCcsICctaW1hZScsICc8aW5maWxlLm1hZT4nLCAnLW9tYWUnLCAnPG91dGZpbGUubWFlPic=

>  <r_lp_tautomer_probability>  (104) 
1

>  <r_epik_Ionization_Penalty>  (104) 
0.0156996

>  <r_epik_Ionization_Penalty_Charging>  (104) 
0.0107833

>  <r_epik_Ionization_Penalty_Neutral>  (104) 
0.00491633

>  <r_epik_State_Penalty>  (104) 
0.00826468

>  <r_epik_Charging_Adjusted_Penalty>  (104) 
0.0190479

>  <i_epik_Tot_Q>  (104) 
1

>  <i_epik_Tot_abs_Q>  (104) 
1

>  <s_lp_Force_Field>  (104) 
OPLS3e

>  <r_lp_Energy>  (104) 
73.0502

>  <b_lp_Chiralities_Consistent>  (104) 
1

>  <s_lp_Variant>  (104) 
37:0-1

>  <s_i_glide_gridfile>  (104) 
pfpi4k_grid

>  <i_i_glide_lignum>  (104) 
17

>  <i_i_glide_rotatable_bonds>  (104) 
1

>  <r_i_docking_score>  (104) 
-3.74386

>  <r_i_glide_ligand_efficiency>  (104) 
-0.162777

>  <r_i_glide_ligand_efficiency_sa>  (104) 
-0.462915

>  <r_i_glide_ligand_efficiency_ln>  (104) 
-0.9053

>  <r_i_glide_gscore>  (104) 
-3.74386

>  <r_i_glide_lipo>  (104) 
-0.617755

>  <r_i_glide_hbond>  (104) 
0

>  <r_i_glide_metal>  (104) 
-0

>  <r_i_glide_rewards>  (104) 
-1.76609

>  <r_i_glide_evdw>  (104) 
-19.3682

>  <r_i_glide_ecoul>  (104) 
-2.61075

>  <r_i_glide_erotb>  (104) 
0

>  <r_i_glide_esite>  (104) 
0

>  <r_i_glide_emodel>  (104) 
-30.4785

>  <r_i_glide_energy>  (104) 
-21.979

>  <r_i_glide_einternal>  (104) 
2.69312

>  <r_i_glide_intrahb_reward>  (104) 
-0.5

>  <i_i_glide_confnum>  (104) 
2

>  <i_i_glide_posenum>  (104) 
14

>  <r_i_glide_eff_state_penalty>  (104) 
0

>  <ligand_id>  (104) 
37

>  <original_smiles>  (104) 
CN1CCC23c4c(ccc(O)c4OC4CC(C)(C)C(=O)C42)CC13

>  <smiles>  (104) 
[H]Oc1c([H])c([H])c2c3c1OC1([H])C([H])([H])C(C([H])([H])[H])(C([H])([H])[H])C(=O)C1([H])C31C([H])([H])C([H])([H])[N+]([H])(C([H])([H])[H])C1([H])C2([H])[H]

$$$$
37:0:2
     RDKit          3D

 47 51  0  0  1  0  0  0  0  0999 V2000
    6.1227   -6.6579    1.5010 C   0  0  0  0  0  0  0  0  0  0  0  0
    5.6159   -5.2639    1.4597 N   0  0  1  0  0  0  0  0  0  0  0  0
    6.5222   -4.2623    2.0939 C   0  0  0  0  0  0  0  0  0  0  0  0
    6.4569   -2.9431    1.2379 C   0  0  0  0  0  0  0  0  0  0  0  0
    5.2081   -3.1791    0.3671 C   0  0  2  0  0  0  0  0  0  0  0  0
    5.0524   -2.7748   -1.0692 C   0  0  0  0  0  0  0  0  0  0  0  0
    4.7330   -3.8468   -1.9072 C   0  0  0  0  0  0  0  0  0  0  0  0
    4.3587   -3.5658   -3.2332 C   0  0  0  0  0  0  0  0  0  0  0  0
    4.2679   -2.2092   -3.6263 C   0  0  0  0  0  0  0  0  0  0  0  0
    4.4619   -1.1627   -2.6967 C   0  0  0  0  0  0  0  0  0  0  0  0
    4.2123    0.1136   -3.0975 O   0  0  0  0  0  0  0  0  0  0  0  0
    4.8170   -1.4312   -1.3580 C   0  0  0  0  0  0  0  0  0  0  0  0
    4.6649   -0.5672   -0.3093 O   0  0  0  0  0  0  0  0  0  0  0  0
    3.7697   -1.0908    0.6932 C   0  0  2  0  0  0  0  0  0  0  0  0
    4.0068   -0.3759    2.0247 C   0  0  0  0  0  0  0  0  0  0  0  0
    3.5740   -1.3458    3.1459 C   0  0  0  0  0  0  0  0  0  0  0  0
    4.5144   -1.2766    4.3635 C   0  0  0  0  0  0  0  0  0  0  0  0
    2.1213   -1.0663    3.5698 C   0  0  0  0  0  0  0  0  0  0  0  0
    3.6587   -2.7175    2.4718 C   0  0  0  0  0  0  0  0  0  0  0  0
    3.5228   -3.7932    3.0500 O   0  0  0  0  0  0  0  0  0  0  0  0
    3.8865   -2.6168    0.9746 C   0  0  2  0  0  0  0  0  0  0  0  0
    4.6258   -5.0911   -1.0228 C   0  0  0  0  0  0  0  0  0  0  0  0
    5.4695   -4.6488    0.1434 C   0  0  2  0  0  0  0  0  0  0  0  0
    7.1097   -6.7521    1.0356 H   0  0  0  0  0  0  0  0  0  0  0  0
    5.4348   -7.3359    0.9921 H   0  0  0  0  0  0  0  0  0  0  0  0
    6.2122   -6.9990    2.5372 H   0  0  0  0  0  0  0  0  0  0  0  0
    6.2025   -4.1037    3.1237 H   0  0  0  0  0  0  0  0  0  0  0  0
    7.5461   -4.6452    2.1232 H   0  0  0  0  0  0  0  0  0  0  0  0
    6.4078   -2.0395    1.8448 H   0  0  0  0  0  0  0  0  0  0  0  0
    7.3583   -2.8715    0.6244 H   0  0  0  0  0  0  0  0  0  0  0  0
    4.0558   -4.3545   -3.9090 H   0  0  0  0  0  0  0  0  0  0  0  0
    3.9419   -1.9632   -4.6192 H   0  0  0  0  0  0  0  0  0  0  0  0
    4.2745    0.7308   -2.3841 H   0  0  0  0  0  0  0  0  0  0  0  0
    2.7440   -0.9013    0.3794 H   0  0  0  0  0  0  0  0  0  0  0  0
    5.0660   -0.1326    2.1224 H   0  0  0  0  0  0  0  0  0  0  0  0
    3.4650    0.5726    2.0485 H   0  0  0  0  0  0  0  0  0  0  0  0
    4.5313   -0.2729    4.7896 H   0  0  0  0  0  0  0  0  0  0  0  0
    5.5381   -1.5376    4.0957 H   0  0  0  0  0  0  0  0  0  0  0  0
    4.1983   -1.9671    5.1463 H   0  0  0  0  0  0  0  0  0  0  0  0
    2.0211   -0.0565    3.9705 H   0  0  0  0  0  0  0  0  0  0  0  0
    1.7897   -1.7615    4.3414 H   0  0  0  0  0  0  0  0  0  0  0  0
    1.4322   -1.1539    2.7283 H   0  0  0  0  0  0  0  0  0  0  0  0
    3.0572   -3.1322    0.4872 H   0  0  0  0  0  0  0  0  0  0  0  0
    3.5911   -5.2460   -0.7120 H   0  0  0  0  0  0  0  0  0  0  0  0
    5.0122   -5.9843   -1.5048 H   0  0  0  0  0  0  0  0  0  0  0  0
    6.4722   -4.7626   -0.2896 H   0  0  0  0  0  0  0  0  0  0  0  0
    4.7190   -5.2193    1.9332 H   0  0  0  0  0  0  0  0  0  0  0  0
  1  2  1  0
  1 24  1  0
  1 25  1  0
  1 26  1  0
  2 23  1  0
  2  3  1  0
  2 47  1  1
  3  4  1  0
  3 27  1  0
  3 28  1  0
  5  4  1  1
  4 29  1  0
  4 30  1  0
  5 21  1  0
  5 23  1  0
  5  6  1  0
  6 12  1  0
  6  7  2  0
  7  8  1  0
  7 22  1  0
  8  9  2  0
  8 31  1  0
  9 10  1  0
  9 32  1  0
 10 11  1  0
 10 12  2  0
 11 33  1  0
 12 13  1  0
 13 14  1  0
 14 21  1  0
 14 15  1  0
 14 34  1  6
 15 16  1  0
 15 35  1  0
 15 36  1  0
 16 17  1  0
 16 18  1  0
 16 19  1  0
 17 37  1  0
 17 38  1  0
 17 39  1  0
 18 40  1  0
 18 41  1  0
 18 42  1  0
 19 20  2  0
 19 21  1  0
 21 43  1  6
 22 23  1  0
 22 44  1  0
 22 45  1  0
 23 46  1  6
M  CHG  1   2   1
M  END
>  <i_m_ct_stereo_status>  (105) 
1

>  <s_m_source_file>  (105) 
/var/tmp/pbs.5076255.sched01/tmp1pob34vh/39rbzpz6sd.sdf

>  <i_m_source_file_index>  (105) 
17

>  <i_lp_mmshare_version>  (105) 
48012

>  <i_f3d_flags>  (105) 
0

>  <s_epik_input>  (105) 
W0NIMl0xW0NIMl1OKFtDSDNdKVtDQEhdMltDSDJdYyhjM1tDQF0xMjQpW2NIXVtjSF1jKFtPSF0pYzNPW0NASF01W0NAQEhdNEMoPU8pQyhbQ0gyXTUpKFtDSDNdKVtDSDNd

>  <s_epik_cmdline>  (105) 
J2VwaWtfcHl0aG9uJywgJy1waHQnLCAnMi4wJywgJy1waCcsICc3LjAnLCAnLXRuJywgJzgnLCAnLW1hJywgJzIwMCcsICctaW1hZScsICc8aW5maWxlLm1hZT4nLCAnLW9tYWUnLCAnPG91dGZpbGUubWFlPic=

>  <r_lp_tautomer_probability>  (105) 
1

>  <r_epik_Ionization_Penalty>  (105) 
0.0156996

>  <r_epik_Ionization_Penalty_Charging>  (105) 
0.0107833

>  <r_epik_Ionization_Penalty_Neutral>  (105) 
0.00491633

>  <r_epik_State_Penalty>  (105) 
0.00826468

>  <r_epik_Charging_Adjusted_Penalty>  (105) 
0.0190479

>  <i_epik_Tot_Q>  (105) 
1

>  <i_epik_Tot_abs_Q>  (105) 
1

>  <s_lp_Force_Field>  (105) 
OPLS3e

>  <r_lp_Energy>  (105) 
73.0502

>  <b_lp_Chiralities_Consistent>  (105) 
1

>  <s_lp_Variant>  (105) 
37:0-1

>  <s_i_glide_gridfile>  (105) 
pfpi4k_grid

>  <i_i_glide_lignum>  (105) 
17

>  <i_i_glide_rotatable_bonds>  (105) 
1

>  <r_i_docking_score>  (105) 
-3.65973

>  <r_i_glide_ligand_efficiency>  (105) 
-0.159119

>  <r_i_glide_ligand_efficiency_sa>  (105) 
-0.452512

>  <r_i_glide_ligand_efficiency_ln>  (105) 
-0.884956

>  <r_i_glide_gscore>  (105) 
-3.65973

>  <r_i_glide_lipo>  (105) 
-0.611619

>  <r_i_glide_hbond>  (105) 
0

>  <r_i_glide_metal>  (105) 
-0

>  <r_i_glide_rewards>  (105) 
-1.76615

>  <r_i_glide_evdw>  (105) 
-18.9453

>  <r_i_glide_ecoul>  (105) 
-2.23133

>  <r_i_glide_erotb>  (105) 
0

>  <r_i_glide_esite>  (105) 
0

>  <r_i_glide_emodel>  (105) 
-31.4602

>  <r_i_glide_energy>  (105) 
-21.1766

>  <r_i_glide_einternal>  (105) 
0.0189972

>  <r_i_glide_intrahb_reward>  (105) 
-0.5

>  <i_i_glide_confnum>  (105) 
2

>  <i_i_glide_posenum>  (105) 
18

>  <r_i_glide_eff_state_penalty>  (105) 
0

>  <ligand_id>  (105) 
37

>  <original_smiles>  (105) 
CN1CCC23c4c(ccc(O)c4OC4CC(C)(C)C(=O)C42)CC13

>  <smiles>  (105) 
[H]Oc1c([H])c([H])c2c3c1OC1([H])C([H])([H])C(C([H])([H])[H])(C([H])([H])[H])C(=O)C1([H])C31C([H])([H])C([H])([H])[N+]([H])(C([H])([H])[H])C1([H])C2([H])[H]

$$$$
37:1:0
     RDKit          3D

 46 50  0  0  1  0  0  0  0  0999 V2000
    8.7802   -1.5448    0.4736 C   0  0  0  0  0  0  0  0  0  0  0  0
    7.4134   -1.9260    0.1485 N   0  0  0  0  0  0  0  0  0  0  0  0
    7.3402   -3.3264   -0.3147 C   0  0  0  0  0  0  0  0  0  0  0  0
    6.0462   -3.9592    0.3067 C   0  0  0  0  0  0  0  0  0  0  0  0
    5.2978   -2.7364    0.8679 C   0  0  2  0  0  0  0  0  0  0  0  0
    4.5762   -2.6855    2.1866 C   0  0  0  0  0  0  0  0  0  0  0  0
    5.0511   -1.6936    3.0523 C   0  0  0  0  0  0  0  0  0  0  0  0
    4.3468   -1.4652    4.2507 C   0  0  0  0  0  0  0  0  0  0  0  0
    3.1578   -2.2085    4.4765 C   0  0  0  0  0  0  0  0  0  0  0  0
    2.6391   -3.0852    3.4928 C   0  0  0  0  0  0  0  0  0  0  0  0
    1.4104   -3.6452    3.6701 O   0  0  0  0  0  0  0  0  0  0  0  0
    3.3408   -3.3159    2.2825 C   0  0  0  0  0  0  0  0  0  0  0  0
    2.7909   -3.8616    1.1508 O   0  0  0  0  0  0  0  0  0  0  0  0
    2.9279   -2.9675    0.0152 C   0  0  2  0  0  0  0  0  0  0  0  0
    2.8042   -3.7340   -1.3044 C   0  0  0  0  0  0  0  0  0  0  0  0
    3.5794   -2.9662   -2.4002 C   0  0  0  0  0  0  0  0  0  0  0  0
    4.3681   -3.8752   -3.3630 C   0  0  0  0  0  0  0  0  0  0  0  0
    2.6260   -2.0886   -3.2035 C   0  0  0  0  0  0  0  0  0  0  0  0
    4.5271   -2.0861   -1.5777 C   0  0  0  0  0  0  0  0  0  0  0  0
    5.4042   -1.3752   -2.0704 O   0  0  0  0  0  0  0  0  0  0  0  0
    4.2381   -2.1328   -0.0863 C   0  0  2  0  0  0  0  0  0  0  0  0
    6.1580   -0.9544    2.3189 C   0  0  0  0  0  0  0  0  0  0  0  0
    6.5368   -2.0091    1.2967 C   0  0  2  0  0  0  0  0  0  0  0  0
    9.3874   -1.5692   -0.4236 H   0  0  0  0  0  0  0  0  0  0  0  0
    9.2781   -2.2053    1.1808 H   0  0  0  0  0  0  0  0  0  0  0  0
    8.8025   -0.5339    0.8683 H   0  0  0  0  0  0  0  0  0  0  0  0
    7.3238   -3.3424   -1.4044 H   0  0  0  0  0  0  0  0  0  0  0  0
    8.2160   -3.8947   -0.0018 H   0  0  0  0  0  0  0  0  0  0  0  0
    5.4739   -4.5424   -0.4130 H   0  0  0  0  0  0  0  0  0  0  0  0
    6.3304   -4.6418    1.1112 H   0  0  0  0  0  0  0  0  0  0  0  0
    4.6658   -0.7051    4.9482 H   0  0  0  0  0  0  0  0  0  0  0  0
    2.5728   -2.0200    5.3611 H   0  0  0  0  0  0  0  0  0  0  0  0
    1.1572   -4.1563    2.9195 H   0  0  0  0  0  0  0  0  0  0  0  0
    2.1231   -2.2565    0.0933 H   0  0  0  0  0  0  0  0  0  0  0  0
    3.3083   -4.6761   -1.1206 H   0  0  0  0  0  0  0  0  0  0  0  0
    1.7563   -3.9363   -1.5509 H   0  0  0  0  0  0  0  0  0  0  0  0
    3.7210   -4.5252   -3.9488 H   0  0  0  0  0  0  0  0  0  0  0  0
    5.0730   -4.4993   -2.8140 H   0  0  0  0  0  0  0  0  0  0  0  0
    4.9310   -3.2846   -4.0833 H   0  0  0  0  0  0  0  0  0  0  0  0
    1.8527   -2.6841   -3.6938 H   0  0  0  0  0  0  0  0  0  0  0  0
    3.1456   -1.5006   -3.9586 H   0  0  0  0  0  0  0  0  0  0  0  0
    2.1666   -1.3914   -2.5156 H   0  0  0  0  0  0  0  0  0  0  0  0
    4.0372   -1.1130    0.2387 H   0  0  0  0  0  0  0  0  0  0  0  0
    5.7502   -0.0697    1.8363 H   0  0  0  0  0  0  0  0  0  0  0  0
    6.9860   -0.6571    2.9564 H   0  0  0  0  0  0  0  0  0  0  0  0
    7.0226   -2.7348    1.9502 H   0  0  0  0  0  0  0  0  0  0  0  0
  1  2  1  0
  1 24  1  0
  1 25  1  0
  1 26  1  0
  2 23  1  0
  2  3  1  0
  3  4  1  0
  3 27  1  0
  3 28  1  0
  5  4  1  6
  4 29  1  0
  4 30  1  0
  5 21  1  0
  5 23  1  0
  5  6  1  0
  6 12  1  0
  6  7  2  0
  7  8  1  0
  7 22  1  0
  8  9  2  0
  8 31  1  0
  9 10  1  0
  9 32  1  0
 10 11  1  0
 10 12  2  0
 11 33  1  0
 12 13  1  0
 13 14  1  0
 14 21  1  0
 14 15  1  0
 14 34  1  1
 15 16  1  0
 15 35  1  0
 15 36  1  0
 16 17  1  0
 16 18  1  0
 16 19  1  0
 17 37  1  0
 17 38  1  0
 17 39  1  0
 18 40  1  0
 18 41  1  0
 18 42  1  0
 19 20  2  0
 19 21  1  0
 21 43  1  1
 22 23  1  0
 22 44  1  0
 22 45  1  0
 23 46  1  1
M  END
>  <i_m_ct_stereo_status>  (106) 
1

>  <s_m_source_file>  (106) 
/var/tmp/pbs.5076255.sched01/tmp1pob34vh/39rbzpz6sd.sdf

>  <i_m_source_file_index>  (106) 
18

>  <i_lp_mmshare_version>  (106) 
48012

>  <i_f3d_flags>  (106) 
0

>  <s_epik_input>  (106) 
W0NIMl0xW0NIMl1OKFtDSDNdKVtDQEhdMltDSDJdYyhjM1tDQF0xMjQpW2NIXVtjSF1jKFtPSF0pYzNPW0NASF01W0NAQEhdNEMoPU8pQyhbQ0gyXTUpKFtDSDNdKVtDSDNd

>  <s_epik_cmdline>  (106) 
J2VwaWtfcHl0aG9uJywgJy1waHQnLCAnMi4wJywgJy1waCcsICc3LjAnLCAnLXRuJywgJzgnLCAnLW1hJywgJzIwMCcsICctaW1hZScsICc8aW5maWxlLm1hZT4nLCAnLW9tYWUnLCAnPG91dGZpbGUubWFlPic=

>  <r_lp_tautomer_probability>  (106) 
1

>  <r_epik_Ionization_Penalty>  (106) 
2.37946

>  <r_epik_Ionization_Penalty_Charging>  (106) 
0

>  <r_epik_Ionization_Penalty_Neutral>  (106) 
2.37946

>  <r_epik_State_Penalty>  (106) 
2.53543

>  <r_epik_Charging_Adjusted_Penalty>  (106) 
2.53543

>  <i_epik_Tot_Q>  (106) 
0

>  <i_epik_Tot_abs_Q>  (106) 
0

>  <s_lp_Force_Field>  (106) 
OPLS3e

>  <r_lp_Energy>  (106) 
65.9141

>  <b_lp_Chiralities_Consistent>  (106) 
1

>  <s_lp_Variant>  (106) 
37:0-2

>  <s_i_glide_gridfile>  (106) 
pfpi4k_grid

>  <i_i_glide_lignum>  (106) 
18

>  <i_i_glide_rotatable_bonds>  (106) 
1

>  <r_i_docking_score>  (106) 
-3.46431

>  <r_i_glide_ligand_efficiency>  (106) 
-0.150622

>  <r_i_glide_ligand_efficiency_sa>  (106) 
-0.428349

>  <r_i_glide_ligand_efficiency_ln>  (106) 
-0.837701

>  <r_i_glide_gscore>  (106) 
-3.46431

>  <r_i_glide_lipo>  (106) 
-0.637027

>  <r_i_glide_hbond>  (106) 
-0.051377

>  <r_i_glide_metal>  (106) 
-0

>  <r_i_glide_rewards>  (106) 
-1.27234

>  <r_i_glide_evdw>  (106) 
-17.7889

>  <r_i_glide_ecoul>  (106) 
-3.89492

>  <r_i_glide_erotb>  (106) 
0

>  <r_i_glide_esite>  (106) 
-0.0298874

>  <r_i_glide_emodel>  (106) 
-25.5977

>  <r_i_glide_energy>  (106) 
-21.6838

>  <r_i_glide_einternal>  (106) 
1.54775e-06

>  <r_i_glide_intrahb_reward>  (106) 
-0

>  <i_i_glide_confnum>  (106) 
1

>  <i_i_glide_posenum>  (106) 
23

>  <r_i_glide_eff_state_penalty>  (106) 
0

>  <ligand_id>  (106) 
37

>  <original_smiles>  (106) 
CN1CCC23c4c(ccc(O)c4OC4CC(C)(C)C(=O)C42)CC13

>  <smiles>  (106) 
[H]Oc1c([H])c([H])c2c3c1OC1([H])C([H])([H])C(C([H])([H])[H])(C([H])([H])[H])C(=O)C1([H])C31C([H])([H])C([H])([H])N(C([H])([H])[H])C1([H])C2([H])[H]

$$$$
37:1:1
     RDKit          3D

 46 50  0  0  1  0  0  0  0  0999 V2000
    8.7780   -1.5803    0.4665 C   0  0  0  0  0  0  0  0  0  0  0  0
    7.4079   -1.9595    0.1440 N   0  0  0  0  0  0  0  0  0  0  0  0
    7.3264   -3.3649   -0.3019 C   0  0  0  0  0  0  0  0  0  0  0  0
    6.0248   -3.9801    0.3187 C   0  0  0  0  0  0  0  0  0  0  0  0
    5.2828   -2.7446    0.8631 C   0  0  2  0  0  0  0  0  0  0  0  0
    4.5514   -2.6758    2.1729 C   0  0  0  0  0  0  0  0  0  0  0  0
    5.0255   -1.6797    3.0330 C   0  0  0  0  0  0  0  0  0  0  0  0
    4.3153   -1.4308    4.2220 C   0  0  0  0  0  0  0  0  0  0  0  0
    3.1174   -2.1620    4.4459 C   0  0  0  0  0  0  0  0  0  0  0  0
    2.5995   -3.0499    3.4664 C   0  0  0  0  0  0  0  0  0  0  0  0
    1.3646   -3.6032    3.6458 O   0  0  0  0  0  0  0  0  0  0  0  0
    3.3100   -3.2983    2.2691 C   0  0  0  0  0  0  0  0  0  0  0  0
    2.7779   -3.8570    1.1341 O   0  0  0  0  0  0  0  0  0  0  0  0
    2.9247   -2.9745   -0.0019 C   0  0  2  0  0  0  0  0  0  0  0  0
    2.7931   -3.7488   -1.3138 C   0  0  0  0  0  0  0  0  0  0  0  0
    3.5785   -3.0025   -2.4153 C   0  0  0  0  0  0  0  0  0  0  0  0
    4.3706   -3.9238   -3.3677 C   0  0  0  0  0  0  0  0  0  0  0  0
    2.6324   -2.1245   -3.2350 C   0  0  0  0  0  0  0  0  0  0  0  0
    4.5320   -2.1173   -1.6009 C   0  0  0  0  0  0  0  0  0  0  0  0
    5.4140   -1.4223   -2.0955 O   0  0  0  0  0  0  0  0  0  0  0  0
    4.2362   -2.1462   -0.1090 C   0  0  2  0  0  0  0  0  0  0  0  0
    6.1477   -0.9550    2.2994 C   0  0  0  0  0  0  0  0  0  0  0  0
    6.5261   -2.0240    1.2924 C   0  0  2  0  0  0  0  0  0  0  0  0
    9.3937   -1.6158   -0.4277 H   0  0  0  0  0  0  0  0  0  0  0  0
    9.2676   -2.2369    1.1806 H   0  0  0  0  0  0  0  0  0  0  0  0
    8.7986   -0.5665    0.8556 H   0  0  0  0  0  0  0  0  0  0  0  0
    7.3161   -3.3920   -1.3907 H   0  0  0  0  0  0  0  0  0  0  0  0
    8.1962   -3.9350    0.0228 H   0  0  0  0  0  0  0  0  0  0  0  0
    5.4518   -4.5670   -0.3989 H   0  0  0  0  0  0  0  0  0  0  0  0
    6.2985   -4.6585    1.1317 H   0  0  0  0  0  0  0  0  0  0  0  0
    4.6383   -0.6642    4.9106 H   0  0  0  0  0  0  0  0  0  0  0  0
    2.5421   -1.9496    5.3324 H   0  0  0  0  0  0  0  0  0  0  0  0
    0.9618   -3.3435    4.4597 H   0  0  0  0  0  0  0  0  0  0  0  0
    2.1222   -2.2603    0.0940 H   0  0  0  0  0  0  0  0  0  0  0  0
    3.2846   -4.6920   -1.1212 H   0  0  0  0  0  0  0  0  0  0  0  0
    1.7477   -3.9447   -1.5685 H   0  0  0  0  0  0  0  0  0  0  0  0
    3.7280   -4.5770   -3.9539 H   0  0  0  0  0  0  0  0  0  0  0  0
    5.0654   -4.5475   -2.8054 H   0  0  0  0  0  0  0  0  0  0  0  0
    4.9462   -3.3465   -4.0907 H   0  0  0  0  0  0  0  0  0  0  0  0
    1.8626   -2.7200   -3.7277 H   0  0  0  0  0  0  0  0  0  0  0  0
    3.1621   -1.5451   -3.9930 H   0  0  0  0  0  0  0  0  0  0  0  0
    2.1639   -1.4172   -2.5637 H   0  0  0  0  0  0  0  0  0  0  0  0
    4.0360   -1.1238    0.2035 H   0  0  0  0  0  0  0  0  0  0  0  0
    5.7500   -0.0724    1.8038 H   0  0  0  0  0  0  0  0  0  0  0  0
    6.9727   -0.6584    2.9400 H   0  0  0  0  0  0  0  0  0  0  0  0
    7.0109   -2.7419    1.9615 H   0  0  0  0  0  0  0  0  0  0  0  0
  1  2  1  0
  1 24  1  0
  1 25  1  0
  1 26  1  0
  2 23  1  0
  2  3  1  0
  3  4  1  0
  3 27  1  0
  3 28  1  0
  5  4  1  6
  4 29  1  0
  4 30  1  0
  5 21  1  0
  5 23  1  0
  5  6  1  0
  6 12  1  0
  6  7  2  0
  7  8  1  0
  7 22  1  0
  8  9  2  0
  8 31  1  0
  9 10  1  0
  9 32  1  0
 10 11  1  0
 10 12  2  0
 11 33  1  0
 12 13  1  0
 13 14  1  0
 14 21  1  0
 14 15  1  0
 14 34  1  1
 15 16  1  0
 15 35  1  0
 15 36  1  0
 16 17  1  0
 16 18  1  0
 16 19  1  0
 17 37  1  0
 17 38  1  0
 17 39  1  0
 18 40  1  0
 18 41  1  0
 18 42  1  0
 19 20  2  0
 19 21  1  0
 21 43  1  1
 22 23  1  0
 22 44  1  0
 22 45  1  0
 23 46  1  1
M  END
>  <i_m_ct_stereo_status>  (107) 
1

>  <s_m_source_file>  (107) 
/var/tmp/pbs.5076255.sched01/tmp1pob34vh/39rbzpz6sd.sdf

>  <i_m_source_file_index>  (107) 
18

>  <i_lp_mmshare_version>  (107) 
48012

>  <i_f3d_flags>  (107) 
0

>  <s_epik_input>  (107) 
W0NIMl0xW0NIMl1OKFtDSDNdKVtDQEhdMltDSDJdYyhjM1tDQF0xMjQpW2NIXVtjSF1jKFtPSF0pYzNPW0NASF01W0NAQEhdNEMoPU8pQyhbQ0gyXTUpKFtDSDNdKVtDSDNd

>  <s_epik_cmdline>  (107) 
J2VwaWtfcHl0aG9uJywgJy1waHQnLCAnMi4wJywgJy1waCcsICc3LjAnLCAnLXRuJywgJzgnLCAnLW1hJywgJzIwMCcsICctaW1hZScsICc8aW5maWxlLm1hZT4nLCAnLW9tYWUnLCAnPG91dGZpbGUubWFlPic=

>  <r_lp_tautomer_probability>  (107) 
1

>  <r_epik_Ionization_Penalty>  (107) 
2.37946

>  <r_epik_Ionization_Penalty_Charging>  (107) 
0

>  <r_epik_Ionization_Penalty_Neutral>  (107) 
2.37946

>  <r_epik_State_Penalty>  (107) 
2.53543

>  <r_epik_Charging_Adjusted_Penalty>  (107) 
2.53543

>  <i_epik_Tot_Q>  (107) 
0

>  <i_epik_Tot_abs_Q>  (107) 
0

>  <s_lp_Force_Field>  (107) 
OPLS3e

>  <r_lp_Energy>  (107) 
65.9141

>  <b_lp_Chiralities_Consistent>  (107) 
1

>  <s_lp_Variant>  (107) 
37:0-2

>  <s_i_glide_gridfile>  (107) 
pfpi4k_grid

>  <i_i_glide_lignum>  (107) 
18

>  <i_i_glide_rotatable_bonds>  (107) 
1

>  <r_i_docking_score>  (107) 
-3.27867

>  <r_i_glide_ligand_efficiency>  (107) 
-0.142551

>  <r_i_glide_ligand_efficiency_sa>  (107) 
-0.405396

>  <r_i_glide_ligand_efficiency_ln>  (107) 
-0.792813

>  <r_i_glide_gscore>  (107) 
-3.27867

>  <r_i_glide_lipo>  (107) 
-0.655696

>  <r_i_glide_hbond>  (107) 
-0.0467642

>  <r_i_glide_metal>  (107) 
-0

>  <r_i_glide_rewards>  (107) 
-1.27234

>  <r_i_glide_evdw>  (107) 
-17.849

>  <r_i_glide_ecoul>  (107) 
-2.54776

>  <r_i_glide_erotb>  (107) 
0

>  <r_i_glide_esite>  (107) 
-0.0292633

>  <r_i_glide_emodel>  (107) 
-24.0963

>  <r_i_glide_energy>  (107) 
-20.3968

>  <r_i_glide_einternal>  (107) 
0.00526563

>  <r_i_glide_intrahb_reward>  (107) 
-0

>  <i_i_glide_confnum>  (107) 
1

>  <i_i_glide_posenum>  (107) 
1

>  <r_i_glide_eff_state_penalty>  (107) 
0

>  <ligand_id>  (107) 
37

>  <original_smiles>  (107) 
CN1CCC23c4c(ccc(O)c4OC4CC(C)(C)C(=O)C42)CC13

>  <smiles>  (107) 
[H]Oc1c([H])c([H])c2c3c1OC1([H])C([H])([H])C(C([H])([H])[H])(C([H])([H])[H])C(=O)C1([H])C31C([H])([H])C([H])([H])N(C([H])([H])[H])C1([H])C2([H])[H]

$$$$
37:1:2
     RDKit          3D

 46 50  0  0  1  0  0  0  0  0999 V2000
    6.3350   -6.2204    1.2955 C   0  0  0  0  0  0  0  0  0  0  0  0
    5.7315   -4.8951    1.3069 N   0  0  0  0  0  0  0  0  0  0  0  0
    6.6690   -3.8644    1.7766 C   0  0  0  0  0  0  0  0  0  0  0  0
    6.4632   -2.5646    0.9304 C   0  0  0  0  0  0  0  0  0  0  0  0
    5.1613   -2.8847    0.1976 C   0  0  2  0  0  0  0  0  0  0  0  0
    4.8907   -2.5518   -1.2417 C   0  0  0  0  0  0  0  0  0  0  0  0
    4.6058   -3.6702   -2.0243 C   0  0  0  0  0  0  0  0  0  0  0  0
    4.1524   -3.4670   -3.3394 C   0  0  0  0  0  0  0  0  0  0  0  0
    3.9804   -2.1403   -3.7848 C   0  0  0  0  0  0  0  0  0  0  0  0
    4.1580   -1.0488   -2.9124 C   0  0  0  0  0  0  0  0  0  0  0  0
    3.8116    0.1721   -3.3934 O   0  0  0  0  0  0  0  0  0  0  0  0
    4.5802   -1.2419   -1.5709 C   0  0  0  0  0  0  0  0  0  0  0  0
    4.4736   -0.3319   -0.5524 O   0  0  0  0  0  0  0  0  0  0  0  0
    3.6781   -0.8304    0.5412 C   0  0  2  0  0  0  0  0  0  0  0  0
    4.0120   -0.0317    1.8053 C   0  0  0  0  0  0  0  0  0  0  0  0
    3.7186   -0.9462    3.0120 C   0  0  0  0  0  0  0  0  0  0  0  0
    4.7701   -0.7846    4.1259 C   0  0  0  0  0  0  0  0  0  0  0  0
    2.3055   -0.6776    3.5566 C   0  0  0  0  0  0  0  0  0  0  0  0
    3.7758   -2.3540    2.4124 C   0  0  0  0  0  0  0  0  0  0  0  0
    3.6814   -3.3808    3.0781 O   0  0  0  0  0  0  0  0  0  0  0  0
    3.8709   -2.3370    0.8920 C   0  0  2  0  0  0  0  0  0  0  0  0
    4.6173   -4.8768   -1.1005 C   0  0  0  0  0  0  0  0  0  0  0  0
    5.4883   -4.3501    0.0039 C   0  0  2  0  0  0  0  0  0  0  0  0
    6.5813   -6.5438    2.3089 H   0  0  0  0  0  0  0  0  0  0  0  0
    7.2475   -6.2514    0.6994 H   0  0  0  0  0  0  0  0  0  0  0  0
    5.6313   -6.9417    0.8818 H   0  0  0  0  0  0  0  0  0  0  0  0
    6.3968   -3.7078    2.8154 H   0  0  0  0  0  0  0  0  0  0  0  0
    7.7108   -4.1876    1.7066 H   0  0  0  0  0  0  0  0  0  0  0  0
    6.4263   -1.6611    1.5354 H   0  0  0  0  0  0  0  0  0  0  0  0
    7.2920   -2.4467    0.2295 H   0  0  0  0  0  0  0  0  0  0  0  0
    3.8555   -4.2981   -3.9580 H   0  0  0  0  0  0  0  0  0  0  0  0
    3.5729   -1.9506   -4.7617 H   0  0  0  0  0  0  0  0  0  0  0  0
    3.3021    0.6975   -2.7887 H   0  0  0  0  0  0  0  0  0  0  0  0
    2.6225   -0.6743    0.3160 H   0  0  0  0  0  0  0  0  0  0  0  0
    5.0733    0.2239    1.7879 H   0  0  0  0  0  0  0  0  0  0  0  0
    3.4510    0.9093    1.8329 H   0  0  0  0  0  0  0  0  0  0  0  0
    4.7962    0.2400    4.4971 H   0  0  0  0  0  0  0  0  0  0  0  0
    5.7708   -1.0359    3.7740 H   0  0  0  0  0  0  0  0  0  0  0  0
    4.5489   -1.4405    4.9675 H   0  0  0  0  0  0  0  0  0  0  0  0
    2.2160    0.3463    3.9186 H   0  0  0  0  0  0  0  0  0  0  0  0
    2.0670   -1.3449    4.3840 H   0  0  0  0  0  0  0  0  0  0  0  0
    1.5468   -0.8197    2.7861 H   0  0  0  0  0  0  0  0  0  0  0  0
    3.0195   -2.8953    0.5034 H   0  0  0  0  0  0  0  0  0  0  0  0
    3.6199   -5.0752   -0.7232 H   0  0  0  0  0  0  0  0  0  0  0  0
    5.0119   -5.7771   -1.5536 H   0  0  0  0  0  0  0  0  0  0  0  0
    6.4671   -4.4110   -0.4840 H   0  0  0  0  0  0  0  0  0  0  0  0
  1  2  1  0
  1 24  1  0
  1 25  1  0
  1 26  1  0
  2 23  1  0
  2  3  1  0
  3  4  1  0
  3 27  1  0
  3 28  1  0
  5  4  1  1
  4 29  1  0
  4 30  1  0
  5 21  1  0
  5 23  1  0
  5  6  1  0
  6 12  1  0
  6  7  2  0
  7  8  1  0
  7 22  1  0
  8  9  2  0
  8 31  1  0
  9 10  1  0
  9 32  1  0
 10 11  1  0
 10 12  2  0
 11 33  1  0
 12 13  1  0
 13 14  1  0
 14 21  1  0
 14 15  1  0
 14 34  1  6
 15 16  1  0
 15 35  1  0
 15 36  1  0
 16 17  1  0
 16 18  1  0
 16 19  1  0
 17 37  1  0
 17 38  1  0
 17 39  1  0
 18 40  1  0
 18 41  1  0
 18 42  1  0
 19 20  2  0
 19 21  1  0
 21 43  1  6
 22 23  1  0
 22 44  1  0
 22 45  1  0
 23 46  1  6
M  END
>  <i_m_ct_stereo_status>  (108) 
1

>  <s_m_source_file>  (108) 
/var/tmp/pbs.5076255.sched01/tmp1pob34vh/39rbzpz6sd.sdf

>  <i_m_source_file_index>  (108) 
18

>  <i_lp_mmshare_version>  (108) 
48012

>  <i_f3d_flags>  (108) 
0

>  <s_epik_input>  (108) 
W0NIMl0xW0NIMl1OKFtDSDNdKVtDQEhdMltDSDJdYyhjM1tDQF0xMjQpW2NIXVtjSF1jKFtPSF0pYzNPW0NASF01W0NAQEhdNEMoPU8pQyhbQ0gyXTUpKFtDSDNdKVtDSDNd

>  <s_epik_cmdline>  (108) 
J2VwaWtfcHl0aG9uJywgJy1waHQnLCAnMi4wJywgJy1waCcsICc3LjAnLCAnLXRuJywgJzgnLCAnLW1hJywgJzIwMCcsICctaW1hZScsICc8aW5maWxlLm1hZT4nLCAnLW9tYWUnLCAnPG91dGZpbGUubWFlPic=

>  <r_lp_tautomer_probability>  (108) 
1

>  <r_epik_Ionization_Penalty>  (108) 
2.37946

>  <r_epik_Ionization_Penalty_Charging>  (108) 
0

>  <r_epik_Ionization_Penalty_Neutral>  (108) 
2.37946

>  <r_epik_State_Penalty>  (108) 
2.53543

>  <r_epik_Charging_Adjusted_Penalty>  (108) 
2.53543

>  <i_epik_Tot_Q>  (108) 
0

>  <i_epik_Tot_abs_Q>  (108) 
0

>  <s_lp_Force_Field>  (108) 
OPLS3e

>  <r_lp_Energy>  (108) 
65.9141

>  <b_lp_Chiralities_Consistent>  (108) 
1

>  <s_lp_Variant>  (108) 
37:0-2

>  <s_i_glide_gridfile>  (108) 
pfpi4k_grid

>  <i_i_glide_lignum>  (108) 
18

>  <i_i_glide_rotatable_bonds>  (108) 
1

>  <r_i_docking_score>  (108) 
-3.24981

>  <r_i_glide_ligand_efficiency>  (108) 
-0.141296

>  <r_i_glide_ligand_efficiency_sa>  (108) 
-0.401828

>  <r_i_glide_ligand_efficiency_ln>  (108) 
-0.785834

>  <r_i_glide_gscore>  (108) 
-3.24981

>  <r_i_glide_lipo>  (108) 
-0.67135

>  <r_i_glide_hbond>  (108) 
0

>  <r_i_glide_metal>  (108) 
-0

>  <r_i_glide_rewards>  (108) 
-1.27234

>  <r_i_glide_evdw>  (108) 
-19.5086

>  <r_i_glide_ecoul>  (108) 
-2.20464

>  <r_i_glide_erotb>  (108) 
0

>  <r_i_glide_esite>  (108) 
-1.44542e-06

>  <r_i_glide_emodel>  (108) 
-23.857

>  <r_i_glide_energy>  (108) 
-21.7132

>  <r_i_glide_einternal>  (108) 
2.05873

>  <r_i_glide_intrahb_reward>  (108) 
-0

>  <i_i_glide_confnum>  (108) 
1

>  <i_i_glide_posenum>  (108) 
2

>  <r_i_glide_eff_state_penalty>  (108) 
0

>  <ligand_id>  (108) 
37

>  <original_smiles>  (108) 
CN1CCC23c4c(ccc(O)c4OC4CC(C)(C)C(=O)C42)CC13

>  <smiles>  (108) 
[H]Oc1c([H])c([H])c2c3c1OC1([H])C([H])([H])C(C([H])([H])[H])(C([H])([H])[H])C(=O)C1([H])C31C([H])([H])C([H])([H])N(C([H])([H])[H])C1([H])C2([H])[H]

$$$$
38:0:0
     RDKit          3D

 71 76  0  0  1  0  0  0  0  0999 V2000
    1.1508  -10.4031    5.0064 C   0  0  0  0  0  0  0  0  0  0  0  0
    1.4921   -9.2181    4.0541 C   0  0  2  0  0  0  0  0  0  0  0  0
    1.2067   -7.9522    4.6792 O   0  0  0  0  0  0  0  0  0  0  0  0
   -0.1316   -7.6594    4.9651 C   0  0  1  0  0  0  0  0  0  0  0  0
   -0.3092   -6.4402    5.6023 O   0  0  0  0  0  0  0  0  0  0  0  0
    0.2521   -6.3603    6.9166 C   0  0  0  0  0  0  0  0  0  0  0  0
    0.1834   -4.9205    7.5299 C   0  0  1  0  0  0  0  0  0  0  0  0
   -1.3622   -4.6466    7.5628 C   0  0  0  0  0  0  0  0  0  0  0  0
    0.6788   -5.0462    8.9949 C   0  0  0  0  0  0  0  0  0  0  0  0
   -0.0428   -5.6424    9.8017 O   0  0  0  0  0  0  0  0  0  0  0  0
    2.0011   -4.4624    9.4050 C   0  0  0  0  0  0  0  0  0  0  0  0
    2.8589   -3.9437    8.5158 C   0  0  0  0  0  0  0  0  0  0  0  0
    2.5925   -3.9546    7.0096 C   0  0  2  0  0  0  0  0  0  0  0  0
    3.2374   -5.2924    6.5386 C   0  0  0  0  0  0  0  0  0  0  0  0
    3.2320   -2.8081    6.1638 C   0  0  2  0  0  0  0  0  0  0  0  0
    4.7026   -2.5599    5.7984 C   0  0  0  0  0  0  0  0  0  0  0  0
    4.6985   -1.6744    4.5013 C   0  0  0  0  0  0  0  0  0  0  0  0
    3.4410   -1.8995    3.5820 C   0  0  2  0  0  0  0  0  0  0  0  0
    3.3825   -0.9645    2.3789 C   0  0  1  0  0  0  0  0  0  0  0  0
    3.1681   -1.6997    1.0486 C   0  0  0  0  0  0  0  0  0  0  0  0
    2.2059   -0.0547    2.6924 C   0  0  0  0  0  0  0  0  0  0  0  0
    1.9267    0.9259    2.0227 O   0  0  0  0  0  0  0  0  0  0  0  0
    1.5816   -0.4970    3.7884 O   0  0  0  0  0  0  0  0  0  0  0  0
    2.1037   -1.6751    4.3934 C   0  0  1  0  0  0  0  0  0  0  0  0
    1.0773   -2.8290    4.2613 C   0  0  0  0  0  0  0  0  0  0  0  0
    0.6183   -3.6406    5.2595 C   0  0  0  0  0  0  0  0  0  0  0  0
    1.0190   -3.7771    6.7743 C   0  0  1  0  0  0  0  0  0  0  0  0
    0.7142   -2.3650    7.4243 C   0  0  0  0  0  0  0  0  0  0  0  0
   -0.1670   -2.1607    8.2568 O   0  0  0  0  0  0  0  0  0  0  0  0
    1.5804   -1.3784    7.0559 O   0  0  0  0  0  0  0  0  0  0  0  0
    2.4250   -1.4799    5.9089 C   0  0  2  0  0  0  0  0  0  0  0  0
   -0.9612   -7.6693    3.6690 C   0  0  1  0  0  0  0  0  0  0  0  0
   -0.5653   -6.6504    2.7874 O   0  0  0  0  0  0  0  0  0  0  0  0
   -0.7209   -8.9864    2.9082 C   0  0  1  0  0  0  0  0  0  0  0  0
   -1.4454   -9.0155    1.6820 O   0  0  0  0  0  0  0  0  0  0  0  0
    0.7810   -9.3145    2.6988 C   0  0  1  0  0  0  0  0  0  0  0  0
    1.4044   -8.4658    1.7421 O   0  0  0  0  0  0  0  0  0  0  0  0
    1.4254  -11.3717    4.5827 H   0  0  0  0  0  0  0  0  0  0  0  0
    0.0925  -10.4911    5.2533 H   0  0  0  0  0  0  0  0  0  0  0  0
    1.6685  -10.2961    5.9593 H   0  0  0  0  0  0  0  0  0  0  0  0
    2.5591   -9.2543    3.8565 H   0  0  0  0  0  0  0  0  0  0  0  0
   -0.5247   -8.3826    5.6741 H   0  0  0  0  0  0  0  0  0  0  0  0
   -0.3032   -7.0322    7.5902 H   0  0  0  0  0  0  0  0  0  0  0  0
    1.2319   -6.8124    6.8968 H   0  0  0  0  0  0  0  0  0  0  0  0
   -1.7606   -4.3334    6.5988 H   0  0  0  0  0  0  0  0  0  0  0  0
   -1.6859   -3.9228    8.3111 H   0  0  0  0  0  0  0  0  0  0  0  0
   -1.9153   -5.5370    7.8598 H   0  0  0  0  0  0  0  0  0  0  0  0
    2.2189   -4.4802   10.4670 H   0  0  0  0  0  0  0  0  0  0  0  0
    3.8159   -3.5252    8.8335 H   0  0  0  0  0  0  0  0  0  0  0  0
    2.8007   -5.6702    5.6068 H   0  0  0  0  0  0  0  0  0  0  0  0
    3.1808   -6.0809    7.3010 H   0  0  0  0  0  0  0  0  0  0  0  0
    4.3072   -5.1921    6.3654 H   0  0  0  0  0  0  0  0  0  0  0  0
    3.1376   -3.4477    5.2974 H   0  0  0  0  0  0  0  0  0  0  0  0
    5.2424   -2.0676    6.6060 H   0  0  0  0  0  0  0  0  0  0  0  0
    5.2224   -3.4900    5.5814 H   0  0  0  0  0  0  0  0  0  0  0  0
    4.7284   -0.6226    4.8054 H   0  0  0  0  0  0  0  0  0  0  0  0
    5.6190   -1.8477    3.9354 H   0  0  0  0  0  0  0  0  0  0  0  0
    3.4904   -2.9270    3.2166 H   0  0  0  0  0  0  0  0  0  0  0  0
    4.2695   -0.3450    2.3191 H   0  0  0  0  0  0  0  0  0  0  0  0
    3.0771   -0.9937    0.2142 H   0  0  0  0  0  0  0  0  0  0  0  0
    2.2505   -2.3050    1.0551 H   0  0  0  0  0  0  0  0  0  0  0  0
    4.0074   -2.3634    0.8260 H   0  0  0  0  0  0  0  0  0  0  0  0
    0.6516   -2.9536    3.2749 H   0  0  0  0  0  0  0  0  0  0  0  0
   -0.1750   -4.2869    4.9337 H   0  0  0  0  0  0  0  0  0  0  0  0
    1.3883   -1.2337    5.7080 H   0  0  0  0  0  0  0  0  0  0  0  0
   -2.0051   -7.5682    3.9533 H   0  0  0  0  0  0  0  0  0  0  0  0
    0.3353   -6.8316    2.5780 H   0  0  0  0  0  0  0  0  0  0  0  0
   -1.1458   -9.7971    3.4967 H   0  0  0  0  0  0  0  0  0  0  0  0
   -0.9148   -9.4589    1.0084 H   0  0  0  0  0  0  0  0  0  0  0  0
    0.8821  -10.3216    2.2883 H   0  0  0  0  0  0  0  0  0  0  0  0
    0.9716   -8.5935    0.9094 H   0  0  0  0  0  0  0  0  0  0  0  0
  1  2  1  0
  1 38  1  0
  1 39  1  0
  1 40  1  0
  2 36  1  0
  2  3  1  0
  2 41  1  6
  3  4  1  0
  4  5  1  0
  4 32  1  0
  4 42  1  1
  5  6  1  0
  7  6  1  6
  6 43  1  0
  6 44  1  0
  7 27  1  0
  7  8  1  0
  7  9  1  0
  8 45  1  0
  8 46  1  0
  8 47  1  0
  9 10  2  0
  9 11  1  0
 11 12  2  0
 11 48  1  0
 12 13  1  0
 12 49  1  0
 13 27  1  0
 13 14  1  6
 13 15  1  0
 14 50  1  0
 14 51  1  0
 14 52  1  0
 15 31  1  0
 15 16  1  0
 15 53  1  6
 16 17  1  0
 16 54  1  0
 16 55  1  0
 17 18  1  0
 17 56  1  0
 17 57  1  0
 18 24  1  0
 18 19  1  0
 18 58  1  6
 19 20  1  0
 19 21  1  0
 19 59  1  6
 20 60  1  0
 20 61  1  0
 20 62  1  0
 21 22  2  0
 21 23  1  0
 24 23  1  6
 24 31  1  0
 24 25  1  0
 25 26  2  0
 25 63  1  0
 27 26  1  6
 26 64  1  0
 27 28  1  0
 28 29  2  0
 28 30  1  0
 30 31  1  0
 31 65  1  6
 32 33  1  0
 32 34  1  0
 32 66  1  1
 33 67  1  0
 34 35  1  0
 34 36  1  0
 34 68  1  1
 35 69  1  0
 36 37  1  0
 36 70  1  6
 37 71  1  0
M  END
>  <i_m_ct_stereo_status>  (109) 
1

>  <s_m_source_file>  (109) 
/var/tmp/pbs.5076255.sched01/tmp1pob34vh/39rbzpz6sd.sdf

>  <i_m_source_file_index>  (109) 
19

>  <i_lp_mmshare_version>  (109) 
48012

>  <i_f3d_flags>  (109) 
0

>  <s_epik_input>  (109) 
W09IXVtDQEBIXTFbQ0BIXShbT0hdKVtDQEhdKFtPSF0pW0NAQEhdKE9bQ0BIXTFbQ0gzXSlPW0NIMl1bQ0BAXShbQ0gzXSkoQyg9TylbQ0hdPVtDSF0yKVtDQEBdKFtDSF09W0NIXTMpKEMoPU8pT1tDQEhdNDUpW0NAQF0yKFtDSDNdKVtDQEBIXTRbQ0gyXVtDSDJdW0NAQEhdKFtDQEBdMzU2KVtDQEBIXShbQ0gzXSlDKD1PKU82

>  <s_epik_cmdline>  (109) 
J2VwaWtfcHl0aG9uJywgJy1waHQnLCAnMi4wJywgJy1waCcsICc3LjAnLCAnLXRuJywgJzgnLCAnLW1hJywgJzIwMCcsICctaW1hZScsICc8aW5maWxlLm1hZT4nLCAnLW9tYWUnLCAnPG91dGZpbGUubWFlPic=

>  <r_lp_tautomer_probability>  (109) 
1

>  <r_epik_Ionization_Penalty>  (109) 
5.69285e-07

>  <r_epik_Ionization_Penalty_Charging>  (109) 
0

>  <r_epik_Ionization_Penalty_Neutral>  (109) 
5.69285e-07

>  <r_epik_State_Penalty>  (109) 
-0

>  <r_epik_Charging_Adjusted_Penalty>  (109) 
0

>  <i_epik_Tot_Q>  (109) 
0

>  <i_epik_Tot_abs_Q>  (109) 
0

>  <s_epik_Chemistry_Notes>  (109) 
This compound has an ester and may undergo hydrolysis at high or low pH. This compound contains an acetal/aminal-like group ( X-CH(R)-Y where X, Y are N, S, or O) that may be acid/base labile, releasing an aldehyde.

>  <s_lp_Force_Field>  (109) 
OPLS3e

>  <r_lp_Energy>  (109) 
181.75

>  <b_lp_Chiralities_Consistent>  (109) 
1

>  <s_lp_Variant>  (109) 
38:0-1

>  <s_i_glide_gridfile>  (109) 
pfpi4k_grid

>  <i_i_glide_lignum>  (109) 
19

>  <i_i_glide_rotatable_bonds>  (109) 
6

>  <r_i_docking_score>  (109) 
-3.96114

>  <r_i_glide_ligand_efficiency>  (109) 
-0.107058

>  <r_i_glide_ligand_efficiency_sa>  (109) 
-0.356741

>  <r_i_glide_ligand_efficiency_ln>  (109) 
-0.859079

>  <r_i_glide_gscore>  (109) 
-3.96114

>  <r_i_glide_lipo>  (109) 
-0.0839264

>  <r_i_glide_hbond>  (109) 
-0.23524

>  <r_i_glide_metal>  (109) 
-0

>  <r_i_glide_rewards>  (109) 
0

>  <r_i_glide_evdw>  (109) 
-21.5245

>  <r_i_glide_ecoul>  (109) 
-18.1579

>  <r_i_glide_erotb>  (109) 
0.229149

>  <r_i_glide_esite>  (109) 
-0.0712215

>  <r_i_glide_emodel>  (109) 
-47.1394

>  <r_i_glide_energy>  (109) 
-39.6823

>  <r_i_glide_einternal>  (109) 
5.6021

>  <r_i_glide_intrahb_reward>  (109) 
-0

>  <i_i_glide_confnum>  (109) 
4

>  <i_i_glide_posenum>  (109) 
33

>  <r_i_glide_eff_state_penalty>  (109) 
0

>  <ligand_id>  (109) 
38

>  <original_smiles>  (109) 
CC1OC(OCC2(C)C(=O)C=CC3(C)C4CCC5C(C)C(=O)OC56C=CC23C(=O)OC46)C(O)C(O)C1O

>  <smiles>  (109) 
[H]OC1([H])C([H])(OC([H])([H])C2(C([H])([H])[H])C(=O)C([H])=C([H])C3(C([H])([H])[H])C24C(=O)OC2([H])C5(OC(=O)C([H])(C([H])([H])[H])C5([H])C([H])([H])C([H])([H])C23[H])C([H])=C4[H])OC([H])(C([H])([H])[H])C([H])(O[H])C1([H])O[H]

$$$$
38:0:1
     RDKit          3D

 71 76  0  0  1  0  0  0  0  0999 V2000
    3.8731  -10.5942    6.2534 C   0  0  0  0  0  0  0  0  0  0  0  0
    3.7193  -10.0590    4.8045 C   0  0  2  0  0  0  0  0  0  0  0  0
    2.9997   -8.8192    4.7727 O   0  0  0  0  0  0  0  0  0  0  0  0
    1.6485   -8.8454    5.1195 C   0  0  1  0  0  0  0  0  0  0  0  0
    1.0633   -7.5938    5.0590 O   0  0  0  0  0  0  0  0  0  0  0  0
    1.6830   -6.5936    5.8628 C   0  0  0  0  0  0  0  0  0  0  0  0
    0.7238   -5.4440    6.3476 C   0  0  1  0  0  0  0  0  0  0  0  0
   -0.6502   -5.7364    5.6434 C   0  0  0  0  0  0  0  0  0  0  0  0
    0.5174   -5.5745    7.8941 C   0  0  0  0  0  0  0  0  0  0  0  0
   -0.1964   -6.4774    8.3171 O   0  0  0  0  0  0  0  0  0  0  0  0
    1.2167   -4.6239    8.8215 C   0  0  0  0  0  0  0  0  0  0  0  0
    2.1078   -3.7165    8.3977 C   0  0  0  0  0  0  0  0  0  0  0  0
    2.5392   -3.6184    6.9341 C   0  0  2  0  0  0  0  0  0  0  0  0
    3.7696   -4.5691    6.8369 C   0  0  0  0  0  0  0  0  0  0  0  0
    2.9875   -2.2059    6.4363 C   0  0  2  0  0  0  0  0  0  0  0  0
    4.2413   -1.3792    6.7884 C   0  0  0  0  0  0  0  0  0  0  0  0
    4.4618   -0.3745    5.6020 C   0  0  0  0  0  0  0  0  0  0  0  0
    3.9200   -0.8970    4.2130 C   0  0  2  0  0  0  0  0  0  0  0  0
    4.0231    0.1339    3.0923 C   0  0  1  0  0  0  0  0  0  0  0  0
    4.7372   -0.4097    1.8333 C   0  0  0  0  0  0  0  0  0  0  0  0
    2.5895    0.4838    2.8038 C   0  0  0  0  0  0  0  0  0  0  0  0
    2.2628    1.3918    2.0402 O   0  0  0  0  0  0  0  0  0  0  0  0
    1.7813   -0.3106    3.4972 O   0  0  0  0  0  0  0  0  0  0  0  0
    2.3961   -1.3035    4.3221 C   0  0  1  0  0  0  0  0  0  0  0  0
    2.0701   -2.7240    3.7625 C   0  0  0  0  0  0  0  0  0  0  0  0
    1.5967   -3.8066    4.4815 C   0  0  0  0  0  0  0  0  0  0  0  0
    1.2783   -3.9605    6.0165 C   0  0  1  0  0  0  0  0  0  0  0  0
    0.2096   -2.8651    6.3948 C   0  0  0  0  0  0  0  0  0  0  0  0
   -0.9542   -3.0918    6.7384 O   0  0  0  0  0  0  0  0  0  0  0  0
    0.7090   -1.6050    6.4253 O   0  0  0  0  0  0  0  0  0  0  0  0
    1.9231   -1.2321    5.7976 C   0  0  2  0  0  0  0  0  0  0  0  0
    0.8813   -9.7879    4.1723 C   0  0  1  0  0  0  0  0  0  0  0  0
    0.8137   -9.2905    2.8588 O   0  0  0  0  0  0  0  0  0  0  0  0
    1.5849  -11.1667    4.1250 C   0  0  1  0  0  0  0  0  0  0  0  0
    0.9373  -12.0664    3.2563 O   0  0  0  0  0  0  0  0  0  0  0  0
    3.1029  -11.0663    3.8154 C   0  0  1  0  0  0  0  0  0  0  0  0
    3.3966  -10.6396    2.4893 O   0  0  0  0  0  0  0  0  0  0  0  0
    4.5284  -11.4643    6.3054 H   0  0  0  0  0  0  0  0  0  0  0  0
    2.9257  -10.8761    6.7199 H   0  0  0  0  0  0  0  0  0  0  0  0
    4.3065   -9.8375    6.8968 H   0  0  0  0  0  0  0  0  0  0  0  0
    4.7215   -9.8339    4.4366 H   0  0  0  0  0  0  0  0  0  0  0  0
    1.5155   -9.1667    6.1457 H   0  0  0  0  0  0  0  0  0  0  0  0
    2.1563   -7.0371    6.7569 H   0  0  0  0  0  0  0  0  0  0  0  0
    2.4908   -6.2428    5.2211 H   0  0  0  0  0  0  0  0  0  0  0  0
   -0.6173   -5.4586    4.5869 H   0  0  0  0  0  0  0  0  0  0  0  0
   -1.5144   -5.2707    6.1197 H   0  0  0  0  0  0  0  0  0  0  0  0
   -0.9434   -6.7890    5.6805 H   0  0  0  0  0  0  0  0  0  0  0  0
    0.9508   -4.7178    9.8617 H   0  0  0  0  0  0  0  0  0  0  0  0
    2.5966   -3.0366    9.0919 H   0  0  0  0  0  0  0  0  0  0  0  0
    4.0425   -4.8316    5.8052 H   0  0  0  0  0  0  0  0  0  0  0  0
    3.6211   -5.4968    7.3976 H   0  0  0  0  0  0  0  0  0  0  0  0
    4.6511   -4.1012    7.2904 H   0  0  0  0  0  0  0  0  0  0  0  0
    3.5464   -2.6890    5.6474 H   0  0  0  0  0  0  0  0  0  0  0  0
    4.1252   -0.8398    7.7328 H   0  0  0  0  0  0  0  0  0  0  0  0
    5.1213   -2.0212    6.8730 H   0  0  0  0  0  0  0  0  0  0  0  0
    3.9433    0.5611    5.8435 H   0  0  0  0  0  0  0  0  0  0  0  0
    5.5210   -0.1077    5.5327 H   0  0  0  0  0  0  0  0  0  0  0  0
    4.5323   -1.7671    3.9482 H   0  0  0  0  0  0  0  0  0  0  0  0
    4.5417    1.0298    3.4473 H   0  0  0  0  0  0  0  0  0  0  0  0
    4.7437    0.3386    1.0352 H   0  0  0  0  0  0  0  0  0  0  0  0
    4.2292   -1.3040    1.4410 H   0  0  0  0  0  0  0  0  0  0  0  0
    5.7739   -0.6757    2.0518 H   0  0  0  0  0  0  0  0  0  0  0  0
    2.2247   -2.8449    2.6989 H   0  0  0  0  0  0  0  0  0  0  0  0
    1.3992   -4.7034    3.9089 H   0  0  0  0  0  0  0  0  0  0  0  0
    1.0768   -1.3494    5.1343 H   0  0  0  0  0  0  0  0  0  0  0  0
   -0.1411   -9.8940    4.5670 H   0  0  0  0  0  0  0  0  0  0  0  0
    1.6540   -9.4775    2.4492 H   0  0  0  0  0  0  0  0  0  0  0  0
    1.4854  -11.6114    5.1120 H   0  0  0  0  0  0  0  0  0  0  0  0
    1.3911  -12.9107    3.2882 H   0  0  0  0  0  0  0  0  0  0  0  0
    3.5786  -12.0458    3.9495 H   0  0  0  0  0  0  0  0  0  0  0  0
    3.4264  -11.3711    1.8706 H   0  0  0  0  0  0  0  0  0  0  0  0
  1  2  1  0
  1 38  1  0
  1 39  1  0
  1 40  1  0
  2 36  1  0
  2  3  1  0
  2 41  1  6
  3  4  1  0
  4  5  1  0
  4 32  1  0
  4 42  1  1
  5  6  1  0
  7  6  1  6
  6 43  1  0
  6 44  1  0
  7 27  1  0
  7  8  1  0
  7  9  1  0
  8 45  1  0
  8 46  1  0
  8 47  1  0
  9 10  2  0
  9 11  1  0
 11 12  2  0
 11 48  1  0
 12 13  1  0
 12 49  1  0
 13 27  1  0
 13 14  1  1
 13 15  1  0
 14 50  1  0
 14 51  1  0
 14 52  1  0
 15 31  1  0
 15 16  1  0
 15 53  1  6
 16 17  1  0
 16 54  1  0
 16 55  1  0
 17 18  1  0
 17 56  1  0
 17 57  1  0
 18 24  1  0
 18 19  1  0
 18 58  1  6
 19 20  1  0
 19 21  1  0
 19 59  1  1
 20 60  1  0
 20 61  1  0
 20 62  1  0
 21 22  2  0
 21 23  1  0
 24 23  1  6
 24 31  1  0
 24 25  1  0
 25 26  2  0
 25 63  1  0
 27 26  1  6
 26 64  1  0
 27 28  1  0
 28 29  2  0
 28 30  1  0
 30 31  1  0
 31 65  1  1
 32 33  1  0
 32 34  1  0
 32 66  1  1
 33 67  1  0
 34 35  1  0
 34 36  1  0
 34 68  1  1
 35 69  1  0
 36 37  1  0
 36 70  1  1
 37 71  1  0
M  END
>  <i_m_ct_stereo_status>  (110) 
1

>  <s_m_source_file>  (110) 
/var/tmp/pbs.5076255.sched01/tmp1pob34vh/39rbzpz6sd.sdf

>  <i_m_source_file_index>  (110) 
19

>  <i_lp_mmshare_version>  (110) 
48012

>  <i_f3d_flags>  (110) 
0

>  <s_epik_input>  (110) 
W09IXVtDQEBIXTFbQ0BIXShbT0hdKVtDQEhdKFtPSF0pW0NAQEhdKE9bQ0BIXTFbQ0gzXSlPW0NIMl1bQ0BAXShbQ0gzXSkoQyg9TylbQ0hdPVtDSF0yKVtDQEBdKFtDSF09W0NIXTMpKEMoPU8pT1tDQEhdNDUpW0NAQF0yKFtDSDNdKVtDQEBIXTRbQ0gyXVtDSDJdW0NAQEhdKFtDQEBdMzU2KVtDQEBIXShbQ0gzXSlDKD1PKU82

>  <s_epik_cmdline>  (110) 
J2VwaWtfcHl0aG9uJywgJy1waHQnLCAnMi4wJywgJy1waCcsICc3LjAnLCAnLXRuJywgJzgnLCAnLW1hJywgJzIwMCcsICctaW1hZScsICc8aW5maWxlLm1hZT4nLCAnLW9tYWUnLCAnPG91dGZpbGUubWFlPic=

>  <r_lp_tautomer_probability>  (110) 
1

>  <r_epik_Ionization_Penalty>  (110) 
5.69285e-07

>  <r_epik_Ionization_Penalty_Charging>  (110) 
0

>  <r_epik_Ionization_Penalty_Neutral>  (110) 
5.69285e-07

>  <r_epik_State_Penalty>  (110) 
-0

>  <r_epik_Charging_Adjusted_Penalty>  (110) 
0

>  <i_epik_Tot_Q>  (110) 
0

>  <i_epik_Tot_abs_Q>  (110) 
0

>  <s_epik_Chemistry_Notes>  (110) 
This compound has an ester and may undergo hydrolysis at high or low pH. This compound contains an acetal/aminal-like group ( X-CH(R)-Y where X, Y are N, S, or O) that may be acid/base labile, releasing an aldehyde.

>  <s_lp_Force_Field>  (110) 
OPLS3e

>  <r_lp_Energy>  (110) 
181.75

>  <b_lp_Chiralities_Consistent>  (110) 
1

>  <s_lp_Variant>  (110) 
38:0-1

>  <s_i_glide_gridfile>  (110) 
pfpi4k_grid

>  <i_i_glide_lignum>  (110) 
19

>  <i_i_glide_rotatable_bonds>  (110) 
6

>  <r_i_docking_score>  (110) 
-3.37146

>  <r_i_glide_ligand_efficiency>  (110) 
-0.0911205

>  <r_i_glide_ligand_efficiency_sa>  (110) 
-0.303634

>  <r_i_glide_ligand_efficiency_ln>  (110) 
-0.73119

>  <r_i_glide_gscore>  (110) 
-3.37146

>  <r_i_glide_lipo>  (110) 
-0.211576

>  <r_i_glide_hbond>  (110) 
-0.0892013

>  <r_i_glide_metal>  (110) 
-0

>  <r_i_glide_rewards>  (110) 
-0.5

>  <r_i_glide_evdw>  (110) 
-20.7383

>  <r_i_glide_ecoul>  (110) 
-11.4978

>  <r_i_glide_erotb>  (110) 
0.229149

>  <r_i_glide_esite>  (110) 
-0.03825

>  <r_i_glide_emodel>  (110) 
-42.3496

>  <r_i_glide_energy>  (110) 
-32.236

>  <r_i_glide_einternal>  (110) 
6.9094

>  <r_i_glide_intrahb_reward>  (110) 
-0.5

>  <i_i_glide_confnum>  (110) 
4

>  <i_i_glide_posenum>  (110) 
19

>  <r_i_glide_eff_state_penalty>  (110) 
0

>  <ligand_id>  (110) 
38

>  <original_smiles>  (110) 
CC1OC(OCC2(C)C(=O)C=CC3(C)C4CCC5C(C)C(=O)OC56C=CC23C(=O)OC46)C(O)C(O)C1O

>  <smiles>  (110) 
[H]OC1([H])C([H])(OC([H])([H])C2(C([H])([H])[H])C(=O)C([H])=C([H])C3(C([H])([H])[H])C24C(=O)OC2([H])C5(OC(=O)C([H])(C([H])([H])[H])C5([H])C([H])([H])C([H])([H])C23[H])C([H])=C4[H])OC([H])(C([H])([H])[H])C([H])(O[H])C1([H])O[H]

$$$$
38:0:2
     RDKit          3D

 71 76  0  0  1  0  0  0  0  0999 V2000
    4.7826   -5.3023   -0.7015 C   0  0  0  0  0  0  0  0  0  0  0  0
    5.7425   -4.0947   -0.5564 C   0  0  2  0  0  0  0  0  0  0  0  0
    5.2898   -3.3394    0.5578 O   0  0  0  0  0  0  0  0  0  0  0  0
    4.0390   -2.6998    0.4460 C   0  0  1  0  0  0  0  0  0  0  0  0
    3.7571   -1.9993    1.6085 O   0  0  0  0  0  0  0  0  0  0  0  0
    2.7356   -2.5014    2.4664 C   0  0  0  0  0  0  0  0  0  0  0  0
    2.8908   -2.0535    3.9547 C   0  0  1  0  0  0  0  0  0  0  0  0
    2.2963   -3.2615    4.7622 C   0  0  0  0  0  0  0  0  0  0  0  0
    4.4187   -1.9786    4.2590 C   0  0  0  0  0  0  0  0  0  0  0  0
    5.0490   -3.0283    4.3726 O   0  0  0  0  0  0  0  0  0  0  0  0
    5.0833   -0.6518    4.3966 C   0  0  0  0  0  0  0  0  0  0  0  0
    4.4373    0.5184    4.1505 C   0  0  0  0  0  0  0  0  0  0  0  0
    2.9944    0.5820    3.6628 C   0  0  2  0  0  0  0  0  0  0  0  0
    3.1338    0.6153    2.1057 C   0  0  0  0  0  0  0  0  0  0  0  0
    2.1646    1.8353    4.0626 C   0  0  2  0  0  0  0  0  0  0  0  0
    2.2866    3.2845    3.5806 C   0  0  0  0  0  0  0  0  0  0  0  0
    0.8900    3.9552    3.8256 C   0  0  0  0  0  0  0  0  0  0  0  0
   -0.3197    2.9463    3.7492 C   0  0  2  0  0  0  0  0  0  0  0  0
   -1.6600    3.5779    4.0989 C   0  0  1  0  0  0  0  0  0  0  0  0
   -2.7505    3.3024    3.0615 C   0  0  0  0  0  0  0  0  0  0  0  0
   -2.0087    2.9390    5.4263 C   0  0  0  0  0  0  0  0  0  0  0  0
   -2.9627    3.2892    6.1249 O   0  0  0  0  0  0  0  0  0  0  0  0
   -1.1530    1.9522    5.7158 O   0  0  0  0  0  0  0  0  0  0  0  0
   -0.1246    1.7273    4.7429 C   0  0  1  0  0  0  0  0  0  0  0  0
   -0.2887    0.3205    4.0945 C   0  0  0  0  0  0  0  0  0  0  0  0
    0.6646   -0.6520    3.9554 C   0  0  0  0  0  0  0  0  0  0  0  0
    2.1996   -0.6525    4.3047 C   0  0  1  0  0  0  0  0  0  0  0  0
    2.3015   -0.3804    5.8575 C   0  0  0  0  0  0  0  0  0  0  0  0
    2.6960   -1.1825    6.7041 O   0  0  0  0  0  0  0  0  0  0  0  0
    2.0190    0.9060    6.2417 O   0  0  0  0  0  0  0  0  0  0  0  0
    1.3067    1.8058    5.3785 C   0  0  2  0  0  0  0  0  0  0  0  0
    4.0417   -1.7314   -0.7581 C   0  0  1  0  0  0  0  0  0  0  0  0
    4.8884   -0.6384   -0.4976 O   0  0  0  0  0  0  0  0  0  0  0  0
    4.5110   -2.4586   -2.0297 C   0  0  1  0  0  0  0  0  0  0  0  0
    4.5375   -1.6277   -3.1840 O   0  0  0  0  0  0  0  0  0  0  0  0
    5.8465   -3.2067   -1.8221 C   0  0  1  0  0  0  0  0  0  0  0  0
    6.9886   -2.3374   -1.7189 O   0  0  0  0  0  0  0  0  0  0  0  0
    5.0062   -5.9826   -1.5199 H   0  0  0  0  0  0  0  0  0  0  0  0
    3.7655   -5.0043   -0.9218 H   0  0  0  0  0  0  0  0  0  0  0  0
    4.7382   -5.8701    0.2302 H   0  0  0  0  0  0  0  0  0  0  0  0
    6.7354   -4.4554   -0.3071 H   0  0  0  0  0  0  0  0  0  0  0  0
    3.2551   -3.4563    0.2885 H   0  0  0  0  0  0  0  0  0  0  0  0
    1.7861   -2.1828    2.0401 H   0  0  0  0  0  0  0  0  0  0  0  0
    2.6907   -3.5977    2.3949 H   0  0  0  0  0  0  0  0  0  0  0  0
    1.2065   -3.2546    4.7904 H   0  0  0  0  0  0  0  0  0  0  0  0
    2.6545   -3.3301    5.7840 H   0  0  0  0  0  0  0  0  0  0  0  0
    2.6044   -4.2273    4.3539 H   0  0  0  0  0  0  0  0  0  0  0  0
    6.1192   -0.6428    4.6948 H   0  0  0  0  0  0  0  0  0  0  0  0
    4.9551    1.4590    4.2555 H   0  0  0  0  0  0  0  0  0  0  0  0
    2.2814    0.1735    1.5778 H   0  0  0  0  0  0  0  0  0  0  0  0
    4.0574    0.1508    1.7718 H   0  0  0  0  0  0  0  0  0  0  0  0
    3.2323    1.6310    1.7234 H   0  0  0  0  0  0  0  0  0  0  0  0
    1.5127    1.6223    3.2260 H   0  0  0  0  0  0  0  0  0  0  0  0
    3.0837    3.8171    4.0902 H   0  0  0  0  0  0  0  0  0  0  0  0
    2.4955    3.3462    2.5158 H   0  0  0  0  0  0  0  0  0  0  0  0
    0.9055    4.4163    4.8183 H   0  0  0  0  0  0  0  0  0  0  0  0
    0.7509    4.7766    3.1186 H   0  0  0  0  0  0  0  0  0  0  0  0
   -0.3665    2.5857    2.7205 H   0  0  0  0  0  0  0  0  0  0  0  0
   -1.5550    4.6401    4.2621 H   0  0  0  0  0  0  0  0  0  0  0  0
   -3.7241    3.7218    3.3237 H   0  0  0  0  0  0  0  0  0  0  0  0
   -2.8897    2.2338    2.8712 H   0  0  0  0  0  0  0  0  0  0  0  0
   -2.4588    3.7765    2.1307 H   0  0  0  0  0  0  0  0  0  0  0  0
   -1.2916    0.1097    3.7549 H   0  0  0  0  0  0  0  0  0  0  0  0
    0.3229   -1.5751    3.5184 H   0  0  0  0  0  0  0  0  0  0  0  0
    0.7013    1.0737    5.9002 H   0  0  0  0  0  0  0  0  0  0  0  0
    3.0189   -1.3645   -0.8598 H   0  0  0  0  0  0  0  0  0  0  0  0
    4.6758    0.0490   -1.1094 H   0  0  0  0  0  0  0  0  0  0  0  0
    3.7587   -3.2010   -2.2681 H   0  0  0  0  0  0  0  0  0  0  0  0
    3.7370   -1.1365   -3.2342 H   0  0  0  0  0  0  0  0  0  0  0  0
    6.0496   -3.8362   -2.6947 H   0  0  0  0  0  0  0  0  0  0  0  0
    7.7775   -2.8417   -1.8123 H   0  0  0  0  0  0  0  0  0  0  0  0
  1  2  1  0
  1 38  1  0
  1 39  1  0
  1 40  1  0
  2 36  1  0
  2  3  1  0
  2 41  1  1
  3  4  1  0
  4  5  1  0
  4 32  1  0
  4 42  1  6
  5  6  1  0
  7  6  1  6
  6 43  1  0
  6 44  1  0
  7 27  1  0
  7  8  1  0
  7  9  1  0
  8 45  1  0
  8 46  1  0
  8 47  1  0
  9 10  2  0
  9 11  1  0
 11 12  2  0
 11 48  1  0
 12 13  1  0
 12 49  1  0
 13 27  1  0
 13 14  1  6
 13 15  1  0
 14 50  1  0
 14 51  1  0
 14 52  1  0
 15 31  1  0
 15 16  1  0
 15 53  1  6
 16 17  1  0
 16 54  1  0
 16 55  1  0
 17 18  1  0
 17 56  1  0
 17 57  1  0
 18 24  1  0
 18 19  1  0
 18 58  1  6
 19 20  1  0
 19 21  1  0
 19 59  1  1
 20 60  1  0
 20 61  1  0
 20 62  1  0
 21 22  2  0
 21 23  1  0
 24 23  1  1
 24 31  1  0
 24 25  1  0
 25 26  2  0
 25 63  1  0
 27 26  1  6
 26 64  1  0
 27 28  1  0
 28 29  2  0
 28 30  1  0
 30 31  1  0
 31 65  1  1
 32 33  1  0
 32 34  1  0
 32 66  1  6
 33 67  1  0
 34 35  1  0
 34 36  1  0
 34 68  1  6
 35 69  1  0
 36 37  1  0
 36 70  1  6
 37 71  1  0
M  END
>  <i_m_ct_stereo_status>  (111) 
1

>  <s_m_source_file>  (111) 
/var/tmp/pbs.5076255.sched01/tmp1pob34vh/39rbzpz6sd.sdf

>  <i_m_source_file_index>  (111) 
19

>  <i_lp_mmshare_version>  (111) 
48012

>  <i_f3d_flags>  (111) 
0

>  <s_epik_input>  (111) 
W09IXVtDQEBIXTFbQ0BIXShbT0hdKVtDQEhdKFtPSF0pW0NAQEhdKE9bQ0BIXTFbQ0gzXSlPW0NIMl1bQ0BAXShbQ0gzXSkoQyg9TylbQ0hdPVtDSF0yKVtDQEBdKFtDSF09W0NIXTMpKEMoPU8pT1tDQEhdNDUpW0NAQF0yKFtDSDNdKVtDQEBIXTRbQ0gyXVtDSDJdW0NAQEhdKFtDQEBdMzU2KVtDQEBIXShbQ0gzXSlDKD1PKU82

>  <s_epik_cmdline>  (111) 
J2VwaWtfcHl0aG9uJywgJy1waHQnLCAnMi4wJywgJy1waCcsICc3LjAnLCAnLXRuJywgJzgnLCAnLW1hJywgJzIwMCcsICctaW1hZScsICc8aW5maWxlLm1hZT4nLCAnLW9tYWUnLCAnPG91dGZpbGUubWFlPic=

>  <r_lp_tautomer_probability>  (111) 
1

>  <r_epik_Ionization_Penalty>  (111) 
5.69285e-07

>  <r_epik_Ionization_Penalty_Charging>  (111) 
0

>  <r_epik_Ionization_Penalty_Neutral>  (111) 
5.69285e-07

>  <r_epik_State_Penalty>  (111) 
-0

>  <r_epik_Charging_Adjusted_Penalty>  (111) 
0

>  <i_epik_Tot_Q>  (111) 
0

>  <i_epik_Tot_abs_Q>  (111) 
0

>  <s_epik_Chemistry_Notes>  (111) 
This compound has an ester and may undergo hydrolysis at high or low pH. This compound contains an acetal/aminal-like group ( X-CH(R)-Y where X, Y are N, S, or O) that may be acid/base labile, releasing an aldehyde.

>  <s_lp_Force_Field>  (111) 
OPLS3e

>  <r_lp_Energy>  (111) 
181.75

>  <b_lp_Chiralities_Consistent>  (111) 
1

>  <s_lp_Variant>  (111) 
38:0-1

>  <s_i_glide_gridfile>  (111) 
pfpi4k_grid

>  <i_i_glide_lignum>  (111) 
19

>  <i_i_glide_rotatable_bonds>  (111) 
6

>  <r_i_docking_score>  (111) 
-3.267

>  <r_i_glide_ligand_efficiency>  (111) 
-0.0882974

>  <r_i_glide_ligand_efficiency_sa>  (111) 
-0.294226

>  <r_i_glide_ligand_efficiency_ln>  (111) 
-0.708536

>  <r_i_glide_gscore>  (111) 
-3.267

>  <r_i_glide_lipo>  (111) 
-0.418026

>  <r_i_glide_hbond>  (111) 
0

>  <r_i_glide_metal>  (111) 
-0

>  <r_i_glide_rewards>  (111) 
-0.0442144

>  <r_i_glide_evdw>  (111) 
-29.0652

>  <r_i_glide_ecoul>  (111) 
-10.4986

>  <r_i_glide_erotb>  (111) 
0.229149

>  <r_i_glide_esite>  (111) 
-0.00586908

>  <r_i_glide_emodel>  (111) 
-42.6347

>  <r_i_glide_energy>  (111) 
-39.5638

>  <r_i_glide_einternal>  (111) 
9.1274

>  <r_i_glide_intrahb_reward>  (111) 
-0

>  <i_i_glide_confnum>  (111) 
5

>  <i_i_glide_posenum>  (111) 
38

>  <r_i_glide_eff_state_penalty>  (111) 
0

>  <ligand_id>  (111) 
38

>  <original_smiles>  (111) 
CC1OC(OCC2(C)C(=O)C=CC3(C)C4CCC5C(C)C(=O)OC56C=CC23C(=O)OC46)C(O)C(O)C1O

>  <smiles>  (111) 
[H]OC1([H])C([H])(OC([H])([H])C2(C([H])([H])[H])C(=O)C([H])=C([H])C3(C([H])([H])[H])C24C(=O)OC2([H])C5(OC(=O)C([H])(C([H])([H])[H])C5([H])C([H])([H])C([H])([H])C23[H])C([H])=C4[H])OC([H])(C([H])([H])[H])C([H])(O[H])C1([H])O[H]

$$$$
39:0:0
     RDKit          3D

 44 47  0  0  1  0  0  0  0  0999 V2000
    3.5247   -8.2283    3.8486 C   0  0  0  0  0  0  0  0  0  0  0  0
    4.1393   -6.8604    3.4638 C   0  0  0  0  0  0  0  0  0  0  0  0
    3.5372   -6.2209    2.1894 C   0  0  1  0  0  0  0  0  0  0  0  0
    4.1150   -4.8181    1.8517 C   0  0  0  0  0  0  0  0  0  0  0  0
    4.8186   -4.2199    2.6572 O   0  0  0  0  0  0  0  0  0  0  0  0
    3.8540   -4.3185    0.6345 N   0  0  0  0  0  0  0  0  0  0  0  0
    4.2964   -3.0358    0.1356 C   0  0  2  0  0  0  0  0  0  0  0  0
    3.1954   -2.4220   -0.7295 C   0  0  1  0  0  0  0  0  0  0  0  0
    3.6370   -1.0471   -1.2043 C   0  0  0  0  0  0  0  0  0  0  0  0
    4.9002   -1.1633   -2.0643 C   0  0  1  0  0  0  0  0  0  0  0  0
    6.0190   -1.8078   -1.2240 C   0  0  0  0  0  0  0  0  0  0  0  0
    5.5526   -3.1907   -0.7392 C   0  0  2  0  0  0  0  0  0  0  0  0
    5.2333   -4.0624   -1.9703 C   0  0  0  0  0  0  0  0  0  0  0  0
    4.1118   -3.4160   -2.8052 C   0  0  2  0  0  0  0  0  0  0  0  0
    3.9225   -4.2310   -3.9340 O   0  0  0  0  0  0  0  0  0  0  0  0
    4.5435   -2.0328   -3.2867 C   0  0  0  0  0  0  0  0  0  0  0  0
    2.8281   -3.2748   -1.9578 C   0  0  0  0  0  0  0  0  0  0  0  0
    3.2313   -7.0902    0.9822 C   0  0  0  0  0  0  0  0  0  0  0  0
    1.8327   -7.0562    1.2358 O   0  0  0  0  0  0  0  0  0  0  0  0
    1.9733   -6.1458    2.2087 C   0  0  0  0  0  0  0  0  0  0  0  0
    1.0876   -5.5781    2.8053 O   0  0  0  0  0  0  0  0  0  0  0  0
    4.0633   -8.6613    4.6906 H   0  0  0  0  0  0  0  0  0  0  0  0
    3.5731   -8.9523    3.0414 H   0  0  0  0  0  0  0  0  0  0  0  0
    2.4799   -8.1359    4.1369 H   0  0  0  0  0  0  0  0  0  0  0  0
    4.0566   -6.1810    4.3072 H   0  0  0  0  0  0  0  0  0  0  0  0
    5.2059   -7.0203    3.2884 H   0  0  0  0  0  0  0  0  0  0  0  0
    3.2945   -4.8634   -0.0104 H   0  0  0  0  0  0  0  0  0  0  0  0
    4.5005   -2.3545    0.9676 H   0  0  0  0  0  0  0  0  0  0  0  0
    2.3056   -2.3319   -0.1053 H   0  0  0  0  0  0  0  0  0  0  0  0
    2.8458   -0.6655   -1.8494 H   0  0  0  0  0  0  0  0  0  0  0  0
    3.8110   -0.3715   -0.3593 H   0  0  0  0  0  0  0  0  0  0  0  0
    5.2014   -0.1669   -2.3880 H   0  0  0  0  0  0  0  0  0  0  0  0
    6.9178   -1.9171   -1.8274 H   0  0  0  0  0  0  0  0  0  0  0  0
    6.2619   -1.1689   -0.3697 H   0  0  0  0  0  0  0  0  0  0  0  0
    6.3436   -3.6527   -0.1485 H   0  0  0  0  0  0  0  0  0  0  0  0
    6.1233   -4.1667   -2.5849 H   0  0  0  0  0  0  0  0  0  0  0  0
    4.9563   -5.0710   -1.6622 H   0  0  0  0  0  0  0  0  0  0  0  0
    3.5023   -5.0109   -3.5836 H   0  0  0  0  0  0  0  0  0  0  0  0
    3.7763   -1.5545   -3.9009 H   0  0  0  0  0  0  0  0  0  0  0  0
    5.3900   -2.2083   -3.9068 H   0  0  0  0  0  0  0  0  0  0  0  0
    2.4366   -4.2356   -1.6316 H   0  0  0  0  0  0  0  0  0  0  0  0
    2.0267   -2.8041   -2.5356 H   0  0  0  0  0  0  0  0  0  0  0  0
    3.4307   -6.6591   -0.0070 H   0  0  0  0  0  0  0  0  0  0  0  0
    3.6405   -8.1058    1.0583 H   0  0  0  0  0  0  0  0  0  0  0  0
  1  2  1  0
  1 22  1  0
  1 23  1  0
  1 24  1  0
  3  2  1  1
  2 25  1  0
  2 26  1  0
  3 20  1  0
  3  4  1  0
  3 18  1  0
  4  5  2  0
  4  6  1  0
  6  7  1  0
  6 27  1  0
  7 12  1  0
  7  8  1  0
  7 28  1  1
  8 17  1  0
  8  9  1  0
  8 29  1  1
  9 10  1  0
  9 30  1  0
  9 31  1  0
 10 16  1  0
 10 11  1  0
 10 32  1  6
 11 12  1  0
 11 33  1  0
 11 34  1  0
 12 13  1  0
 12 35  1  1
 13 14  1  0
 13 36  1  0
 13 37  1  0
 14 15  1  6
 14 16  1  0
 14 17  1  0
 15 38  1  0
 16 39  1  0
 16 40  1  0
 17 41  1  0
 17 42  1  0
 18 19  1  0
 18 43  1  0
 18 44  1  0
 19 20  1  0
 20 21  2  0
M  END
>  <i_m_ct_stereo_status>  (112) 
1

>  <s_m_source_file>  (112) 
/var/tmp/pbs.5076255.sched01/tmp1pob34vh/39rbzpz6sd.sdf

>  <i_m_source_file_index>  (112) 
20

>  <i_lp_mmshare_version>  (112) 
48012

>  <i_f3d_flags>  (112) 
0

>  <s_epik_input>  (112) 
Tz1DMU9bQ0gyXVtDQEBdMShbQ0gyXVtDSDNdKUMoPU8pW05IXVtDQEhdKFtDQEhdKFtDSDJdMilbQ0gyXVtDQEBIXShbQ0gyXTMpW0NIMl00KVtDQEhdM1tDSDJdW0NAQF0yNFtPSF0=

>  <s_epik_cmdline>  (112) 
J2VwaWtfcHl0aG9uJywgJy1waHQnLCAnMi4wJywgJy1waCcsICc3LjAnLCAnLXRuJywgJzgnLCAnLW1hJywgJzIwMCcsICctaW1hZScsICc8aW5maWxlLm1hZT4nLCAnLW9tYWUnLCAnPG91dGZpbGUubWFlPic=

>  <r_lp_tautomer_probability>  (112) 
1

>  <r_epik_Ionization_Penalty>  (112) 
1.52641e-06

>  <r_epik_Ionization_Penalty_Charging>  (112) 
0

>  <r_epik_Ionization_Penalty_Neutral>  (112) 
1.52641e-06

>  <r_epik_State_Penalty>  (112) 
-0

>  <r_epik_Charging_Adjusted_Penalty>  (112) 
0

>  <i_epik_Tot_Q>  (112) 
0

>  <i_epik_Tot_abs_Q>  (112) 
0

>  <s_epik_Chemistry_Notes>  (112) 
This compound has an ester and may undergo hydrolysis at high or low pH.

>  <s_lp_Force_Field>  (112) 
OPLS3e

>  <r_lp_Energy>  (112) 
-7.01126

>  <b_lp_Chiralities_Consistent>  (112) 
1

>  <s_lp_Variant>  (112) 
39:0-1

>  <s_i_glide_gridfile>  (112) 
pfpi4k_grid

>  <i_i_glide_lignum>  (112) 
20

>  <i_i_glide_rotatable_bonds>  (112) 
5

>  <r_i_docking_score>  (112) 
-3.32081

>  <r_i_glide_ligand_efficiency>  (112) 
-0.158134

>  <r_i_glide_ligand_efficiency_sa>  (112) 
-0.436279

>  <r_i_glide_ligand_efficiency_ln>  (112) 
-0.821064

>  <r_i_glide_gscore>  (112) 
-3.32081

>  <r_i_glide_lipo>  (112) 
-0.265639

>  <r_i_glide_hbond>  (112) 
-0.311314

>  <r_i_glide_metal>  (112) 
-0

>  <r_i_glide_rewards>  (112) 
-1.4239

>  <r_i_glide_evdw>  (112) 
-13.9051

>  <r_i_glide_ecoul>  (112) 
-8.26762

>  <r_i_glide_erotb>  (112) 
0.636944

>  <r_i_glide_esite>  (112) 
-0.0215012

>  <r_i_glide_emodel>  (112) 
-24.3364

>  <r_i_glide_energy>  (112) 
-22.1727

>  <r_i_glide_einternal>  (112) 
5.38735

>  <r_i_glide_intrahb_reward>  (112) 
-0

>  <i_i_glide_confnum>  (112) 
3

>  <i_i_glide_posenum>  (112) 
1

>  <r_i_glide_eff_state_penalty>  (112) 
0

>  <ligand_id>  (112) 
39

>  <original_smiles>  (112) 
CCC1(C(=O)NC2C3CC4CC2CC(O)(C4)C3)COC1=O

>  <smiles>  (112) 
[H]OC12C([H])([H])C3([H])C([H])([H])C([H])(C1([H])[H])C([H])(N([H])C(=O)C1(C([H])([H])C([H])([H])[H])C(=O)OC1([H])[H])C([H])(C3([H])[H])C2([H])[H]

$$$$
39:0:1
     RDKit          3D

 44 47  0  0  1  0  0  0  0  0999 V2000
    1.5794   -9.4667    2.0852 C   0  0  0  0  0  0  0  0  0  0  0  0
    1.5480   -7.9378    1.8849 C   0  0  0  0  0  0  0  0  0  0  0  0
    2.8583   -7.2204    2.2896 C   0  0  1  0  0  0  0  0  0  0  0  0
    2.8247   -5.6879    2.0966 C   0  0  0  0  0  0  0  0  0  0  0  0
    1.9176   -5.0433    2.6295 O   0  0  0  0  0  0  0  0  0  0  0  0
    3.8056   -5.0923    1.3837 N   0  0  0  0  0  0  0  0  0  0  0  0
    4.1205   -3.6754    1.3464 C   0  0  2  0  0  0  0  0  0  0  0  0
    3.0488   -2.8367    0.6181 C   0  0  1  0  0  0  0  0  0  0  0  0
    3.4146   -1.3491    0.7243 C   0  0  0  0  0  0  0  0  0  0  0  0
    4.7609   -1.1129    0.0141 C   0  0  1  0  0  0  0  0  0  0  0  0
    5.8550   -1.9506    0.7148 C   0  0  0  0  0  0  0  0  0  0  0  0
    5.4797   -3.4500    0.6401 C   0  0  2  0  0  0  0  0  0  0  0  0
    5.3901   -3.8770   -0.8470 C   0  0  0  0  0  0  0  0  0  0  0  0
    4.2943   -3.0439   -1.5521 C   0  0  2  0  0  0  0  0  0  0  0  0
    4.1999   -3.4570   -2.9029 O   0  0  0  0  0  0  0  0  0  0  0  0
    4.6617   -1.5431   -1.4703 C   0  0  0  0  0  0  0  0  0  0  0  0
    2.9341   -3.2654   -0.8593 C   0  0  0  0  0  0  0  0  0  0  0  0
    3.5472   -7.6029    3.5939 C   0  0  0  0  0  0  0  0  0  0  0  0
    4.5988   -8.3089    2.8871 O   0  0  0  0  0  0  0  0  0  0  0  0
    4.1348   -7.8666    1.6985 C   0  0  0  0  0  0  0  0  0  0  0  0
    4.6476   -7.9977    0.5965 O   0  0  0  0  0  0  0  0  0  0  0  0
    0.6119   -9.9131    1.8714 H   0  0  0  0  0  0  0  0  0  0  0  0
    1.8222   -9.7458    3.1067 H   0  0  0  0  0  0  0  0  0  0  0  0
    2.3132   -9.9419    1.4378 H   0  0  0  0  0  0  0  0  0  0  0  0
    1.2931   -7.7041    0.8539 H   0  0  0  0  0  0  0  0  0  0  0  0
    0.7283   -7.5462    2.4889 H   0  0  0  0  0  0  0  0  0  0  0  0
    4.4355   -5.7048    0.8830 H   0  0  0  0  0  0  0  0  0  0  0  0
    4.2072   -3.3479    2.3838 H   0  0  0  0  0  0  0  0  0  0  0  0
    2.0851   -2.9723    1.0972 H   0  0  0  0  0  0  0  0  0  0  0  0
    2.6334   -0.7243    0.2923 H   0  0  0  0  0  0  0  0  0  0  0  0
    3.4899   -1.0566    1.7722 H   0  0  0  0  0  0  0  0  0  0  0  0
    5.0156   -0.0513    0.0780 H   0  0  0  0  0  0  0  0  0  0  0  0
    6.8206   -1.7757    0.2397 H   0  0  0  0  0  0  0  0  0  0  0  0
    5.9610   -1.6336    1.7547 H   0  0  0  0  0  0  0  0  0  0  0  0
    6.2575   -4.0317    1.1389 H   0  0  0  0  0  0  0  0  0  0  0  0
    6.3527   -3.7254   -1.3371 H   0  0  0  0  0  0  0  0  0  0  0  0
    5.1721   -4.9440   -0.9327 H   0  0  0  0  0  0  0  0  0  0  0  0
    3.8772   -4.3512   -2.9014 H   0  0  0  0  0  0  0  0  0  0  0  0
    3.9131   -0.9402   -1.9877 H   0  0  0  0  0  0  0  0  0  0  0  0
    5.6142   -1.3671   -1.9698 H   0  0  0  0  0  0  0  0  0  0  0  0
    2.6329   -4.3107   -0.9265 H   0  0  0  0  0  0  0  0  0  0  0  0
    2.1564   -2.6940   -1.3660 H   0  0  0  0  0  0  0  0  0  0  0  0
    3.9532   -6.7545    4.1610 H   0  0  0  0  0  0  0  0  0  0  0  0
    2.9411   -8.2604    4.2288 H   0  0  0  0  0  0  0  0  0  0  0  0
  1  2  1  0
  1 22  1  0
  1 23  1  0
  1 24  1  0
  3  2  1  6
  2 25  1  0
  2 26  1  0
  3 20  1  0
  3  4  1  0
  3 18  1  0
  4  5  2  0
  4  6  1  0
  6  7  1  0
  6 27  1  0
  7 12  1  0
  7  8  1  0
  7 28  1  1
  8 17  1  0
  8  9  1  0
  8 29  1  1
  9 10  1  0
  9 30  1  0
  9 31  1  0
 10 16  1  0
 10 11  1  0
 10 32  1  6
 11 12  1  0
 11 33  1  0
 11 34  1  0
 12 13  1  0
 12 35  1  1
 13 14  1  0
 13 36  1  0
 13 37  1  0
 14 15  1  6
 14 16  1  0
 14 17  1  0
 15 38  1  0
 16 39  1  0
 16 40  1  0
 17 41  1  0
 17 42  1  0
 18 19  1  0
 18 43  1  0
 18 44  1  0
 19 20  1  0
 20 21  2  0
M  END
>  <i_m_ct_stereo_status>  (113) 
1

>  <s_m_source_file>  (113) 
/var/tmp/pbs.5076255.sched01/tmp1pob34vh/39rbzpz6sd.sdf

>  <i_m_source_file_index>  (113) 
20

>  <i_lp_mmshare_version>  (113) 
48012

>  <i_f3d_flags>  (113) 
0

>  <s_epik_input>  (113) 
Tz1DMU9bQ0gyXVtDQEBdMShbQ0gyXVtDSDNdKUMoPU8pW05IXVtDQEhdKFtDQEhdKFtDSDJdMilbQ0gyXVtDQEBIXShbQ0gyXTMpW0NIMl00KVtDQEhdM1tDSDJdW0NAQF0yNFtPSF0=

>  <s_epik_cmdline>  (113) 
J2VwaWtfcHl0aG9uJywgJy1waHQnLCAnMi4wJywgJy1waCcsICc3LjAnLCAnLXRuJywgJzgnLCAnLW1hJywgJzIwMCcsICctaW1hZScsICc8aW5maWxlLm1hZT4nLCAnLW9tYWUnLCAnPG91dGZpbGUubWFlPic=

>  <r_lp_tautomer_probability>  (113) 
1

>  <r_epik_Ionization_Penalty>  (113) 
1.52641e-06

>  <r_epik_Ionization_Penalty_Charging>  (113) 
0

>  <r_epik_Ionization_Penalty_Neutral>  (113) 
1.52641e-06

>  <r_epik_State_Penalty>  (113) 
-0

>  <r_epik_Charging_Adjusted_Penalty>  (113) 
0

>  <i_epik_Tot_Q>  (113) 
0

>  <i_epik_Tot_abs_Q>  (113) 
0

>  <s_epik_Chemistry_Notes>  (113) 
This compound has an ester and may undergo hydrolysis at high or low pH.

>  <s_lp_Force_Field>  (113) 
OPLS3e

>  <r_lp_Energy>  (113) 
-7.01126

>  <b_lp_Chiralities_Consistent>  (113) 
1

>  <s_lp_Variant>  (113) 
39:0-1

>  <s_i_glide_gridfile>  (113) 
pfpi4k_grid

>  <i_i_glide_lignum>  (113) 
20

>  <i_i_glide_rotatable_bonds>  (113) 
5

>  <r_i_docking_score>  (113) 
-3.04529

>  <r_i_glide_ligand_efficiency>  (113) 
-0.145014

>  <r_i_glide_ligand_efficiency_sa>  (113) 
-0.400082

>  <r_i_glide_ligand_efficiency_ln>  (113) 
-0.752941

>  <r_i_glide_gscore>  (113) 
-3.04529

>  <r_i_glide_lipo>  (113) 
-0.299515

>  <r_i_glide_hbond>  (113) 
-0.32

>  <r_i_glide_metal>  (113) 
-0

>  <r_i_glide_rewards>  (113) 
-1.41778

>  <r_i_glide_evdw>  (113) 
-20.3936

>  <r_i_glide_ecoul>  (113) 
-4.13641

>  <r_i_glide_erotb>  (113) 
0.636944

>  <r_i_glide_esite>  (113) 
-0.00479958

>  <r_i_glide_emodel>  (113) 
-26.2132

>  <r_i_glide_energy>  (113) 
-24.53

>  <r_i_glide_einternal>  (113) 
5.58631

>  <r_i_glide_intrahb_reward>  (113) 
-0

>  <i_i_glide_confnum>  (113) 
3

>  <i_i_glide_posenum>  (113) 
33

>  <r_i_glide_eff_state_penalty>  (113) 
0

>  <ligand_id>  (113) 
39

>  <original_smiles>  (113) 
CCC1(C(=O)NC2C3CC4CC2CC(O)(C4)C3)COC1=O

>  <smiles>  (113) 
[H]OC12C([H])([H])C3([H])C([H])([H])C([H])(C1([H])[H])C([H])(N([H])C(=O)C1(C([H])([H])C([H])([H])[H])C(=O)OC1([H])[H])C([H])(C3([H])[H])C2([H])[H]

$$$$
40:0:0
     RDKit          3D

 36 38  0  0  1  0  0  0  0  0999 V2000
    3.8760    0.2383    1.2887 C   0  0  0  0  0  0  0  0  0  0  0  0
    3.0132    0.9485    2.1571 O   0  0  0  0  0  0  0  0  0  0  0  0
    2.5048    0.1685    3.2248 C   0  0  0  0  0  0  0  0  0  0  0  0
    1.3171   -0.6898    2.7500 C   0  0  0  0  0  0  0  0  0  0  0  0
    0.6461   -1.4203    3.9168 C   0  0  0  0  0  0  0  0  0  0  0  0
    0.2615   -0.4646    4.9753 N   0  0  0  0  0  0  0  0  0  0  0  0
   -1.0007   -0.3937    5.4549 C   0  0  0  0  0  0  0  0  0  0  0  0
   -1.9383   -1.0535    4.9808 O   0  0  0  0  0  0  0  0  0  0  0  0
   -1.2557    0.5549    6.5810 C   0  0  0  0  0  0  0  0  0  0  0  0
   -2.2169    1.5515    6.4559 N   0  0  0  0  0  0  0  0  0  0  0  0
   -2.1768    2.1596    7.6041 C   0  0  0  0  0  0  0  0  0  0  0  0
   -2.9651    3.4817    8.4456 S   0  0  0  0  0  0  0  0  0  0  0  0
   -2.0017    3.2939    9.9023 C   0  0  0  0  0  0  0  0  0  0  0  0
   -2.1962    4.1909   11.0654 C   0  0  0  0  0  0  0  0  0  0  0  0
   -1.1477    2.2405    9.7114 C   0  0  0  0  0  0  0  0  0  0  0  0
   -1.2579    1.6372    8.4981 N   0  0  0  0  0  0  0  0  0  0  0  0
   -0.6867    0.5646    7.8292 C   0  0  0  0  0  0  0  0  0  0  0  0
    0.2106   -0.1995    8.4826 O   0  0  0  0  0  0  0  0  0  0  0  0
    1.3999    0.3494    5.4671 C   0  0  0  0  0  0  0  0  0  0  0  0
    2.0531    1.1195    4.3254 C   0  0  0  0  0  0  0  0  0  0  0  0
    4.1874    0.8990    0.4797 H   0  0  0  0  0  0  0  0  0  0  0  0
    3.3878   -0.6302    0.8449 H   0  0  0  0  0  0  0  0  0  0  0  0
    4.7712   -0.0871    1.8156 H   0  0  0  0  0  0  0  0  0  0  0  0
    3.2882   -0.4667    3.6489 H   0  0  0  0  0  0  0  0  0  0  0  0
    0.5939   -0.0461    2.2426 H   0  0  0  0  0  0  0  0  0  0  0  0
    1.6417   -1.4260    2.0178 H   0  0  0  0  0  0  0  0  0  0  0  0
   -0.1946   -1.9883    3.5205 H   0  0  0  0  0  0  0  0  0  0  0  0
    1.3066   -2.1542    4.3560 H   0  0  0  0  0  0  0  0  0  0  0  0
   -1.5223    3.9442   11.8859 H   0  0  0  0  0  0  0  0  0  0  0  0
   -3.2195    4.1043   11.4198 H   0  0  0  0  0  0  0  0  0  0  0  0
   -2.0307    5.2231   10.7632 H   0  0  0  0  0  0  0  0  0  0  0  0
   -0.4408    1.8468   10.4182 H   0  0  0  0  0  0  0  0  0  0  0  0
    1.1405    1.1433    6.1641 H   0  0  0  0  0  0  0  0  0  0  0  0
    2.1005   -0.3071    5.9815 H   0  0  0  0  0  0  0  0  0  0  0  0
    2.8937    1.6859    4.7247 H   0  0  0  0  0  0  0  0  0  0  0  0
    1.3457    1.8517    3.9329 H   0  0  0  0  0  0  0  0  0  0  0  0
  1  2  1  0
  1 21  1  0
  1 22  1  0
  1 23  1  0
  2  3  1  0
  3 20  1  0
  3  4  1  0
  3 24  1  0
  4  5  1  0
  4 25  1  0
  4 26  1  0
  5  6  1  0
  5 27  1  0
  5 28  1  0
  6  7  1  0
  6 19  1  0
  7  8  2  0
  7  9  1  0
  9 17  2  0
  9 10  1  0
 10 11  2  0
 11 16  1  0
 11 12  1  0
 12 13  1  0
 13 14  1  0
 13 15  2  0
 14 29  1  0
 14 30  1  0
 14 31  1  0
 15 16  1  0
 15 32  1  0
 16 17  1  0
 17 18  1  0
 19 20  1  0
 19 33  1  0
 19 34  1  0
 20 35  1  0
 20 36  1  0
M  CHG  1  18  -1
M  END
>  <i_m_ct_stereo_status>  (114) 
1

>  <s_m_source_file>  (114) 
/var/tmp/pbs.5076255.sched01/tmp1pob34vh/39rbzpz6sd.sdf

>  <i_m_source_file_index>  (114) 
21

>  <i_lp_mmshare_version>  (114) 
48012

>  <i_f3d_flags>  (114) 
0

>  <s_epik_input>  (114) 
W0NIM11PW0NIXTFbQ0gyXVtDSDJdTihbQ0gyXVtDSDJdMSlDKD1PKWMobjIpYyhbT0hdKW4oYzIzKVtjSF1jKHMzKVtDSDNd

>  <s_epik_cmdline>  (114) 
J2VwaWtfcHl0aG9uJywgJy1waHQnLCAnMi4wJywgJy1waCcsICc3LjAnLCAnLXRuJywgJzgnLCAnLW1hJywgJzIwMCcsICctaW1hZScsICc8aW5maWxlLm1hZT4nLCAnLW9tYWUnLCAnPG91dGZpbGUubWFlPic=

>  <r_lp_tautomer_probability>  (114) 
1

>  <r_epik_Ionization_Penalty>  (114) 
6.36535e-05

>  <r_epik_Ionization_Penalty_Charging>  (114) 
5.51724e-05

>  <r_epik_Ionization_Penalty_Neutral>  (114) 
8.48116e-06

>  <r_epik_State_Penalty>  (114) 
-0

>  <r_epik_Charging_Adjusted_Penalty>  (114) 
5.51724e-05

>  <i_epik_Tot_Q>  (114) 
-1

>  <i_epik_Tot_abs_Q>  (114) 
1

>  <s_lp_Force_Field>  (114) 
OPLS3e

>  <r_lp_Energy>  (114) 
8.58252

>  <b_lp_Chiralities_Consistent>  (114) 
1

>  <s_lp_Variant>  (114) 
40:0-1

>  <s_i_glide_gridfile>  (114) 
pfpi4k_grid

>  <i_i_glide_lignum>  (114) 
21

>  <i_i_glide_rotatable_bonds>  (114) 
3

>  <r_i_docking_score>  (114) 
-2.6256

>  <r_i_glide_ligand_efficiency>  (114) 
-0.13128

>  <r_i_glide_ligand_efficiency_sa>  (114) 
-0.356348

>  <r_i_glide_ligand_efficiency_ln>  (114) 
-0.6571

>  <r_i_glide_gscore>  (114) 
-2.6256

>  <r_i_glide_lipo>  (114) 
-0.12538

>  <r_i_glide_hbond>  (114) 
0

>  <r_i_glide_metal>  (114) 
-0

>  <r_i_glide_rewards>  (114) 
-1.40216

>  <r_i_glide_evdw>  (114) 
-19.9785

>  <r_i_glide_ecoul>  (114) 
-2.7752

>  <r_i_glide_erotb>  (114) 
0.422133

>  <r_i_glide_esite>  (114) 
-0.104988

>  <r_i_glide_emodel>  (114) 
-27.2332

>  <r_i_glide_energy>  (114) 
-22.7537

>  <r_i_glide_einternal>  (114) 
1.16503

>  <r_i_glide_intrahb_reward>  (114) 
-0

>  <i_i_glide_confnum>  (114) 
6

>  <i_i_glide_posenum>  (114) 
36

>  <r_i_glide_eff_state_penalty>  (114) 
0

>  <ligand_id>  (114) 
40

>  <original_smiles>  (114) 
COC1CCN(C(=O)c2nc3sc(C)cn3c2O)CC1

>  <smiles>  (114) 
[H]c1c(C([H])([H])[H])sc2nc(C(=O)N3C([H])([H])C([H])([H])C([H])(OC([H])([H])[H])C([H])([H])C3([H])[H])c([O-])n12

$$$$
40:0:1
     RDKit          3D

 36 38  0  0  1  0  0  0  0  0999 V2000
   -0.7702    3.8840   12.9854 C   0  0  0  0  0  0  0  0  0  0  0  0
   -0.1453    3.6734   11.7264 O   0  0  0  0  0  0  0  0  0  0  0  0
   -0.8903    2.8395   10.8459 C   0  0  0  0  0  0  0  0  0  0  0  0
    0.0387    2.3844    9.7145 C   0  0  0  0  0  0  0  0  0  0  0  0
   -0.7078    1.5639    8.6508 C   0  0  0  0  0  0  0  0  0  0  0  0
   -1.8843    2.2935    8.1409 N   0  0  0  0  0  0  0  0  0  0  0  0
   -2.1208    2.5695    6.8306 C   0  0  0  0  0  0  0  0  0  0  0  0
   -3.0027    3.3449    6.4624 O   0  0  0  0  0  0  0  0  0  0  0  0
   -1.2394    1.9266    5.8223 C   0  0  0  0  0  0  0  0  0  0  0  0
   -0.3914    2.6959    5.0337 N   0  0  0  0  0  0  0  0  0  0  0  0
    0.2222    1.8137    4.3000 C   0  0  0  0  0  0  0  0  0  0  0  0
    1.4444    1.7239    3.0345 S   0  0  0  0  0  0  0  0  0  0  0  0
    1.3787   -0.0212    2.9166 C   0  0  0  0  0  0  0  0  0  0  0  0
    2.2385   -0.7436    1.9469 C   0  0  0  0  0  0  0  0  0  0  0  0
    0.4477   -0.4697    3.8214 C   0  0  0  0  0  0  0  0  0  0  0  0
   -0.1622    0.5085    4.5350 N   0  0  0  0  0  0  0  0  0  0  0  0
   -1.1481    0.5871    5.5043 C   0  0  0  0  0  0  0  0  0  0  0  0
   -1.7661   -0.5511    5.9018 O   0  0  0  0  0  0  0  0  0  0  0  0
   -2.8148    2.7541    9.1907 C   0  0  0  0  0  0  0  0  0  0  0  0
   -2.0923    3.5946   10.2537 C   0  0  0  0  0  0  0  0  0  0  0  0
   -0.1188    4.4811   13.6231 H   0  0  0  0  0  0  0  0  0  0  0  0
   -0.9612    2.9402   13.4940 H   0  0  0  0  0  0  0  0  0  0  0  0
   -1.7151    4.4184   12.8956 H   0  0  0  0  0  0  0  0  0  0  0  0
   -1.2343    1.9472   11.3704 H   0  0  0  0  0  0  0  0  0  0  0  0
    0.5013    3.2493    9.2389 H   0  0  0  0  0  0  0  0  0  0  0  0
    0.8538    1.7840   10.1146 H   0  0  0  0  0  0  0  0  0  0  0  0
    0.0436    1.3211    7.9004 H   0  0  0  0  0  0  0  0  0  0  0  0
   -1.0392    0.6085    9.0523 H   0  0  0  0  0  0  0  0  0  0  0  0
    2.0634   -1.8216    1.9658 H   0  0  0  0  0  0  0  0  0  0  0  0
    3.2874   -0.5444    2.1690 H   0  0  0  0  0  0  0  0  0  0  0  0
    2.0480   -0.3668    0.9409 H   0  0  0  0  0  0  0  0  0  0  0  0
    0.1698   -1.5017    3.9885 H   0  0  0  0  0  0  0  0  0  0  0  0
   -3.6499    3.3418    8.8040 H   0  0  0  0  0  0  0  0  0  0  0  0
   -3.2684    1.8894    9.6706 H   0  0  0  0  0  0  0  0  0  0  0  0
   -2.8112    3.8455   11.0334 H   0  0  0  0  0  0  0  0  0  0  0  0
   -1.7563    4.5357    9.8175 H   0  0  0  0  0  0  0  0  0  0  0  0
  1  2  1  0
  1 21  1  0
  1 22  1  0
  1 23  1  0
  2  3  1  0
  3 20  1  0
  3  4  1  0
  3 24  1  0
  4  5  1  0
  4 25  1  0
  4 26  1  0
  5  6  1  0
  5 27  1  0
  5 28  1  0
  6  7  1  0
  6 19  1  0
  7  8  2  0
  7  9  1  0
  9 17  2  0
  9 10  1  0
 10 11  2  0
 11 16  1  0
 11 12  1  0
 12 13  1  0
 13 14  1  0
 13 15  2  0
 14 29  1  0
 14 30  1  0
 14 31  1  0
 15 16  1  0
 15 32  1  0
 16 17  1  0
 17 18  1  0
 19 20  1  0
 19 33  1  0
 19 34  1  0
 20 35  1  0
 20 36  1  0
M  CHG  1  18  -1
M  END
>  <i_m_ct_stereo_status>  (115) 
1

>  <s_m_source_file>  (115) 
/var/tmp/pbs.5076255.sched01/tmp1pob34vh/39rbzpz6sd.sdf

>  <i_m_source_file_index>  (115) 
21

>  <i_lp_mmshare_version>  (115) 
48012

>  <i_f3d_flags>  (115) 
0

>  <s_epik_input>  (115) 
W0NIM11PW0NIXTFbQ0gyXVtDSDJdTihbQ0gyXVtDSDJdMSlDKD1PKWMobjIpYyhbT0hdKW4oYzIzKVtjSF1jKHMzKVtDSDNd

>  <s_epik_cmdline>  (115) 
J2VwaWtfcHl0aG9uJywgJy1waHQnLCAnMi4wJywgJy1waCcsICc3LjAnLCAnLXRuJywgJzgnLCAnLW1hJywgJzIwMCcsICctaW1hZScsICc8aW5maWxlLm1hZT4nLCAnLW9tYWUnLCAnPG91dGZpbGUubWFlPic=

>  <r_lp_tautomer_probability>  (115) 
1

>  <r_epik_Ionization_Penalty>  (115) 
6.36535e-05

>  <r_epik_Ionization_Penalty_Charging>  (115) 
5.51724e-05

>  <r_epik_Ionization_Penalty_Neutral>  (115) 
8.48116e-06

>  <r_epik_State_Penalty>  (115) 
-0

>  <r_epik_Charging_Adjusted_Penalty>  (115) 
5.51724e-05

>  <i_epik_Tot_Q>  (115) 
-1

>  <i_epik_Tot_abs_Q>  (115) 
1

>  <s_lp_Force_Field>  (115) 
OPLS3e

>  <r_lp_Energy>  (115) 
8.58252

>  <b_lp_Chiralities_Consistent>  (115) 
1

>  <s_lp_Variant>  (115) 
40:0-1

>  <s_i_glide_gridfile>  (115) 
pfpi4k_grid

>  <i_i_glide_lignum>  (115) 
21

>  <i_i_glide_rotatable_bonds>  (115) 
3

>  <r_i_docking_score>  (115) 
-2.24961

>  <r_i_glide_ligand_efficiency>  (115) 
-0.11248

>  <r_i_glide_ligand_efficiency_sa>  (115) 
-0.305318

>  <r_i_glide_ligand_efficiency_ln>  (115) 
-0.563002

>  <r_i_glide_gscore>  (115) 
-2.24961

>  <r_i_glide_lipo>  (115) 
0

>  <r_i_glide_hbond>  (115) 
-0.129818

>  <r_i_glide_metal>  (115) 
-0

>  <r_i_glide_rewards>  (115) 
-1.50652

>  <r_i_glide_evdw>  (115) 
-19.2176

>  <r_i_glide_ecoul>  (115) 
-0.123993

>  <r_i_glide_erotb>  (115) 
0.422133

>  <r_i_glide_esite>  (115) 
-0.0559238

>  <r_i_glide_emodel>  (115) 
-23.5602

>  <r_i_glide_energy>  (115) 
-19.3416

>  <r_i_glide_einternal>  (115) 
0.190859

>  <r_i_glide_intrahb_reward>  (115) 
-0

>  <i_i_glide_confnum>  (115) 
1

>  <i_i_glide_posenum>  (115) 
1

>  <r_i_glide_eff_state_penalty>  (115) 
0

>  <ligand_id>  (115) 
40

>  <original_smiles>  (115) 
COC1CCN(C(=O)c2nc3sc(C)cn3c2O)CC1

>  <smiles>  (115) 
[H]c1c(C([H])([H])[H])sc2nc(C(=O)N3C([H])([H])C([H])([H])C([H])(OC([H])([H])[H])C([H])([H])C3([H])[H])c([O-])n12

$$$$
40:0:2
     RDKit          3D

 36 38  0  0  1  0  0  0  0  0999 V2000
    5.9831   -8.9821    1.7808 C   0  0  0  0  0  0  0  0  0  0  0  0
    4.6499   -8.8220    1.3170 O   0  0  0  0  0  0  0  0  0  0  0  0
    3.6569   -9.0662    2.3102 C   0  0  0  0  0  0  0  0  0  0  0  0
    2.3151   -9.3455    1.6111 C   0  0  0  0  0  0  0  0  0  0  0  0
    1.1625   -9.4962    2.6199 C   0  0  0  0  0  0  0  0  0  0  0  0
    1.0996   -8.3108    3.4914 N   0  0  0  0  0  0  0  0  0  0  0  0
   -0.0468   -7.6042    3.6497 C   0  0  0  0  0  0  0  0  0  0  0  0
   -1.1393   -7.9626    3.1909 O   0  0  0  0  0  0  0  0  0  0  0  0
    0.0554   -6.3321    4.4264 C   0  0  0  0  0  0  0  0  0  0  0  0
   -0.5801   -6.1690    5.6542 N   0  0  0  0  0  0  0  0  0  0  0  0
   -0.2278   -4.9702    6.0155 C   0  0  0  0  0  0  0  0  0  0  0  0
   -0.4845   -3.8577    7.3406 S   0  0  0  0  0  0  0  0  0  0  0  0
    0.4803   -2.5745    6.6313 C   0  0  0  0  0  0  0  0  0  0  0  0
    0.6593   -1.2746    7.3258 C   0  0  0  0  0  0  0  0  0  0  0  0
    0.9623   -3.0314    5.4315 C   0  0  0  0  0  0  0  0  0  0  0  0
    0.5766   -4.3001    5.1158 N   0  0  0  0  0  0  0  0  0  0  0  0
    0.7568   -5.1999    4.0715 C   0  0  0  0  0  0  0  0  0  0  0  0
    1.5030   -4.8446    3.0098 O   0  0  0  0  0  0  0  0  0  0  0  0
    2.3601   -8.0682    4.2331 C   0  0  0  0  0  0  0  0  0  0  0  0
    3.5172   -7.8610    3.2517 C   0  0  0  0  0  0  0  0  0  0  0  0
    6.6823   -8.8317    0.9572 H   0  0  0  0  0  0  0  0  0  0  0  0
    6.1392   -9.9878    2.1711 H   0  0  0  0  0  0  0  0  0  0  0  0
    6.2356   -8.2652    2.5627 H   0  0  0  0  0  0  0  0  0  0  0  0
    3.9154   -9.9537    2.8909 H   0  0  0  0  0  0  0  0  0  0  0  0
    2.0829   -8.5321    0.9214 H   0  0  0  0  0  0  0  0  0  0  0  0
    2.4093  -10.2468    1.0086 H   0  0  0  0  0  0  0  0  0  0  0  0
    0.2337   -9.6509    2.0716 H   0  0  0  0  0  0  0  0  0  0  0  0
    1.2848  -10.3838    3.2317 H   0  0  0  0  0  0  0  0  0  0  0  0
    1.2782   -0.5807    6.7531 H   0  0  0  0  0  0  0  0  0  0  0  0
    1.1236   -1.4339    8.2979 H   0  0  0  0  0  0  0  0  0  0  0  0
   -0.3076   -0.8068    7.4998 H   0  0  0  0  0  0  0  0  0  0  0  0
    1.5958   -2.4934    4.7395 H   0  0  0  0  0  0  0  0  0  0  0  0
    2.3463   -7.2037    4.8931 H   0  0  0  0  0  0  0  0  0  0  0  0
    2.5527   -8.9132    4.8923 H   0  0  0  0  0  0  0  0  0  0  0  0
    4.4311   -7.6927    3.8179 H   0  0  0  0  0  0  0  0  0  0  0  0
    3.3477   -6.9604    2.6620 H   0  0  0  0  0  0  0  0  0  0  0  0
  1  2  1  0
  1 21  1  0
  1 22  1  0
  1 23  1  0
  2  3  1  0
  3 20  1  0
  3  4  1  0
  3 24  1  0
  4  5  1  0
  4 25  1  0
  4 26  1  0
  5  6  1  0
  5 27  1  0
  5 28  1  0
  6  7  1  0
  6 19  1  0
  7  8  2  0
  7  9  1  0
  9 17  2  0
  9 10  1  0
 10 11  2  0
 11 16  1  0
 11 12  1  0
 12 13  1  0
 13 14  1  0
 13 15  2  0
 14 29  1  0
 14 30  1  0
 14 31  1  0
 15 16  1  0
 15 32  1  0
 16 17  1  0
 17 18  1  0
 19 20  1  0
 19 33  1  0
 19 34  1  0
 20 35  1  0
 20 36  1  0
M  CHG  1  18  -1
M  END
>  <i_m_ct_stereo_status>  (116) 
1

>  <s_m_source_file>  (116) 
/var/tmp/pbs.5076255.sched01/tmp1pob34vh/39rbzpz6sd.sdf

>  <i_m_source_file_index>  (116) 
21

>  <i_lp_mmshare_version>  (116) 
48012

>  <i_f3d_flags>  (116) 
0

>  <s_epik_input>  (116) 
W0NIM11PW0NIXTFbQ0gyXVtDSDJdTihbQ0gyXVtDSDJdMSlDKD1PKWMobjIpYyhbT0hdKW4oYzIzKVtjSF1jKHMzKVtDSDNd

>  <s_epik_cmdline>  (116) 
J2VwaWtfcHl0aG9uJywgJy1waHQnLCAnMi4wJywgJy1waCcsICc3LjAnLCAnLXRuJywgJzgnLCAnLW1hJywgJzIwMCcsICctaW1hZScsICc8aW5maWxlLm1hZT4nLCAnLW9tYWUnLCAnPG91dGZpbGUubWFlPic=

>  <r_lp_tautomer_probability>  (116) 
1

>  <r_epik_Ionization_Penalty>  (116) 
6.36535e-05

>  <r_epik_Ionization_Penalty_Charging>  (116) 
5.51724e-05

>  <r_epik_Ionization_Penalty_Neutral>  (116) 
8.48116e-06

>  <r_epik_State_Penalty>  (116) 
-0

>  <r_epik_Charging_Adjusted_Penalty>  (116) 
5.51724e-05

>  <i_epik_Tot_Q>  (116) 
-1

>  <i_epik_Tot_abs_Q>  (116) 
1

>  <s_lp_Force_Field>  (116) 
OPLS3e

>  <r_lp_Energy>  (116) 
8.58252

>  <b_lp_Chiralities_Consistent>  (116) 
1

>  <s_lp_Variant>  (116) 
40:0-1

>  <s_i_glide_gridfile>  (116) 
pfpi4k_grid

>  <i_i_glide_lignum>  (116) 
21

>  <i_i_glide_rotatable_bonds>  (116) 
3

>  <r_i_docking_score>  (116) 
-2.14591

>  <r_i_glide_ligand_efficiency>  (116) 
-0.107296

>  <r_i_glide_ligand_efficiency_sa>  (116) 
-0.291245

>  <r_i_glide_ligand_efficiency_ln>  (116) 
-0.537051

>  <r_i_glide_gscore>  (116) 
-2.14591

>  <r_i_glide_lipo>  (116) 
-0.194354

>  <r_i_glide_hbond>  (116) 
0

>  <r_i_glide_metal>  (116) 
-0

>  <r_i_glide_rewards>  (116) 
-1.40319

>  <r_i_glide_evdw>  (116) 
-18.8338

>  <r_i_glide_ecoul>  (116) 
0.195298

>  <r_i_glide_erotb>  (116) 
0.422133

>  <r_i_glide_esite>  (116) 
-0.0581052

>  <r_i_glide_emodel>  (116) 
-22.573

>  <r_i_glide_energy>  (116) 
-18.6385

>  <r_i_glide_einternal>  (116) 
0.678309

>  <r_i_glide_intrahb_reward>  (116) 
-0

>  <i_i_glide_confnum>  (116) 
2

>  <i_i_glide_posenum>  (116) 
5

>  <r_i_glide_eff_state_penalty>  (116) 
0

>  <ligand_id>  (116) 
40

>  <original_smiles>  (116) 
COC1CCN(C(=O)c2nc3sc(C)cn3c2O)CC1

>  <smiles>  (116) 
[H]c1c(C([H])([H])[H])sc2nc(C(=O)N3C([H])([H])C([H])([H])C([H])(OC([H])([H])[H])C([H])([H])C3([H])[H])c([O-])n12

$$$$
41:0:0
     RDKit          3D

 49 51  0  0  1  0  0  0  0  0999 V2000
   -1.8088   -8.4740    2.6642 C   0  0  0  0  0  0  0  0  0  0  0  0
   -1.2381   -7.3007    3.2253 O   0  0  0  0  0  0  0  0  0  0  0  0
   -0.1855   -6.7255    2.4682 C   0  0  0  0  0  0  0  0  0  0  0  0
    0.9550   -7.7201    2.1666 C   0  0  0  0  0  0  0  0  0  0  0  0
    2.2908   -7.1430    2.0955 N   0  0  0  0  0  0  0  0  0  0  0  0
    3.2717   -8.2160    1.8944 C   0  0  0  0  0  0  0  0  0  0  0  0
    4.7354   -7.7910    2.0306 C   0  0  0  0  0  0  0  0  0  0  0  0
    5.0942   -7.0062    0.9056 O   0  0  0  0  0  0  0  0  0  0  0  0
    4.9652   -5.6074    1.0958 C   0  0  1  0  0  0  0  0  0  0  0  0
    5.3164   -4.9018   -0.2095 C   0  0  0  0  0  0  0  0  0  0  0  0
    4.2198   -3.9671   -0.5267 N   0  0  2  0  0  0  0  0  0  0  0  0
    4.6246   -2.7199   -1.2435 C   0  0  0  0  0  0  0  0  0  0  0  0
    3.4041   -2.0024   -1.8486 C   0  0  0  0  0  0  0  0  0  0  0  0
    2.8363   -2.7830   -3.0527 C   0  0  0  0  0  0  0  0  0  0  0  0
    3.8522   -2.9579   -4.0341 O   0  0  0  0  0  0  0  0  0  0  0  0
    4.9576   -3.7147   -3.5520 C   0  0  0  0  0  0  0  0  0  0  0  0
    5.6312   -2.9837   -2.3832 C   0  0  0  0  0  0  0  0  0  0  0  0
    3.4709   -3.7661    0.7344 C   0  0  0  0  0  0  0  0  0  0  0  0
    3.5673   -5.0993    1.4776 C   0  0  1  0  0  0  0  0  0  0  0  0
    2.4229   -6.0611    1.1139 C   0  0  0  0  0  0  0  0  0  0  0  0
   -2.5892   -8.8290    3.3274 H   0  0  0  0  0  0  0  0  0  0  0  0
   -1.0970   -9.2939    2.5807 H   0  0  0  0  0  0  0  0  0  0  0  0
   -2.2341   -8.2772    1.6810 H   0  0  0  0  0  0  0  0  0  0  0  0
   -0.5768   -6.3092    1.5382 H   0  0  0  0  0  0  0  0  0  0  0  0
    0.1997   -5.8922    3.0584 H   0  0  0  0  0  0  0  0  0  0  0  0
    0.9716   -8.4511    2.9781 H   0  0  0  0  0  0  0  0  0  0  0  0
    0.7332   -8.2768    1.2562 H   0  0  0  0  0  0  0  0  0  0  0  0
    3.0993   -9.0033    2.6327 H   0  0  0  0  0  0  0  0  0  0  0  0
    3.1206   -8.6885    0.9213 H   0  0  0  0  0  0  0  0  0  0  0  0
    4.9131   -7.2697    2.9735 H   0  0  0  0  0  0  0  0  0  0  0  0
    5.3664   -8.6816    2.0372 H   0  0  0  0  0  0  0  0  0  0  0  0
    5.6754   -5.2767    1.8547 H   0  0  0  0  0  0  0  0  0  0  0  0
    6.2637   -4.3793   -0.0585 H   0  0  0  0  0  0  0  0  0  0  0  0
    5.4081   -5.6023   -1.0399 H   0  0  0  0  0  0  0  0  0  0  0  0
    5.1028   -2.0504   -0.5233 H   0  0  0  0  0  0  0  0  0  0  0  0
    2.6411   -1.8528   -1.0934 H   0  0  0  0  0  0  0  0  0  0  0  0
    3.6914   -1.0061   -2.1869 H   0  0  0  0  0  0  0  0  0  0  0  0
    2.4376   -3.7541   -2.7459 H   0  0  0  0  0  0  0  0  0  0  0  0
    2.0036   -2.2469   -3.5071 H   0  0  0  0  0  0  0  0  0  0  0  0
    4.6260   -4.7078   -3.2535 H   0  0  0  0  0  0  0  0  0  0  0  0
    5.6787   -3.8541   -4.3519 H   0  0  0  0  0  0  0  0  0  0  0  0
    5.9954   -2.0217   -2.7256 H   0  0  0  0  0  0  0  0  0  0  0  0
    6.5238   -3.5322   -2.0763 H   0  0  0  0  0  0  0  0  0  0  0  0
    3.9829   -3.0058    1.3284 H   0  0  0  0  0  0  0  0  0  0  0  0
    2.4424   -3.4369    0.5769 H   0  0  0  0  0  0  0  0  0  0  0  0
    3.5217   -4.9092    2.5525 H   0  0  0  0  0  0  0  0  0  0  0  0
    2.5125   -6.4378    0.0906 H   0  0  0  0  0  0  0  0  0  0  0  0
    1.5175   -5.4564    1.1222 H   0  0  0  0  0  0  0  0  0  0  0  0
    3.6037   -4.4834   -1.1501 H   0  0  0  0  0  0  0  0  0  0  0  0
  1  2  1  0
  1 21  1  0
  1 22  1  0
  1 23  1  0
  2  3  1  0
  3  4  1  0
  3 24  1  0
  3 25  1  0
  4  5  1  0
  4 26  1  0
  4 27  1  0
  5 20  1  0
  5  6  1  0
  6  7  1  0
  6 28  1  0
  6 29  1  0
  7  8  1  0
  7 30  1  0
  7 31  1  0
  8  9  1  0
  9 19  1  0
  9 10  1  0
  9 32  1  1
 10 11  1  0
 10 33  1  0
 10 34  1  0
 11 12  1  0
 11 18  1  0
 11 49  1  6
 12 17  1  0
 12 13  1  0
 12 35  1  0
 13 14  1  0
 13 36  1  0
 13 37  1  0
 14 15  1  0
 14 38  1  0
 14 39  1  0
 15 16  1  0
 16 17  1  0
 16 40  1  0
 16 41  1  0
 17 42  1  0
 17 43  1  0
 18 19  1  0
 18 44  1  0
 18 45  1  0
 19 20  1  0
 19 46  1  1
 20 47  1  0
 20 48  1  0
M  CHG  1  11   1
M  END
>  <i_m_ct_stereo_status>  (117) 
1

>  <s_m_source_file>  (117) 
/var/tmp/pbs.5076255.sched01/tmp1pob34vh/39rbzpz6sd.sdf

>  <i_m_source_file_index>  (117) 
22

>  <i_lp_mmshare_version>  (117) 
48012

>  <i_f3d_flags>  (117) 
0

>  <s_epik_input>  (117) 
W0NIM11PW0NIMl1bQ0gyXU4oW0NIMl1bQ0gyXU8xKVtDSDJdW0NAQEhdKFtDQEBIXTEyKVtDSDJdTihbQ0gyXTIpW0NIXTNbQ0gyXVtDSDJdT1tDSDJdW0NIMl0z

>  <s_epik_cmdline>  (117) 
J2VwaWtfcHl0aG9uJywgJy1waHQnLCAnMi4wJywgJy1waCcsICc3LjAnLCAnLXRuJywgJzgnLCAnLW1hJywgJzIwMCcsICctaW1hZScsICc8aW5maWxlLm1hZT4nLCAnLW9tYWUnLCAnPG91dGZpbGUubWFlPic=

>  <r_epik_Ionization_Penalty>  (117) 
0.225102

>  <r_epik_Ionization_Penalty_Charging>  (117) 
0.0135226

>  <r_epik_Ionization_Penalty_Neutral>  (117) 
0.211579

>  <r_epik_State_Penalty>  (117) 
0.277104

>  <r_epik_Charging_Adjusted_Penalty>  (117) 
0.290627

>  <i_epik_Tot_Q>  (117) 
1

>  <i_epik_Tot_abs_Q>  (117) 
1

>  <s_lp_Force_Field>  (117) 
OPLS3e

>  <r_lp_Energy>  (117) 
27.5909

>  <b_lp_Chiralities_Consistent>  (117) 
1

>  <s_lp_Variant>  (117) 
41:0-1

>  <s_i_glide_gridfile>  (117) 
pfpi4k_grid

>  <i_i_glide_lignum>  (117) 
22

>  <i_i_glide_rotatable_bonds>  (117) 
4

>  <r_i_docking_score>  (117) 
-3.58629

>  <r_i_glide_ligand_efficiency>  (117) 
-0.179314

>  <r_i_glide_ligand_efficiency_sa>  (117) 
-0.486734

>  <r_i_glide_ligand_efficiency_ln>  (117) 
-0.89753

>  <r_i_glide_gscore>  (117) 
-3.58629

>  <r_i_glide_lipo>  (117) 
-0.536091

>  <r_i_glide_hbond>  (117) 
-0.226491

>  <r_i_glide_metal>  (117) 
-0

>  <r_i_glide_rewards>  (117) 
-1.46317

>  <r_i_glide_evdw>  (117) 
-22.2196

>  <r_i_glide_ecoul>  (117) 
-6.06188

>  <r_i_glide_erotb>  (117) 
0.668214

>  <r_i_glide_esite>  (117) 
-0.0084931

>  <r_i_glide_emodel>  (117) 
-32.5835

>  <r_i_glide_energy>  (117) 
-28.2815

>  <r_i_glide_einternal>  (117) 
4.29604

>  <r_i_glide_intrahb_reward>  (117) 
-0

>  <i_i_glide_confnum>  (117) 
4

>  <i_i_glide_posenum>  (117) 
13

>  <r_i_glide_eff_state_penalty>  (117) 
0

>  <ligand_id>  (117) 
41

>  <original_smiles>  (117) 
COCCN1CCOC2CN(C3CCOCC3)CC2C1

>  <smiles>  (117) 
[H]C([H])([H])OC([H])([H])C([H])([H])N1C([H])([H])C([H])([H])OC2([H])C([H])(C1([H])[H])C([H])([H])[N+]([H])(C1([H])C([H])([H])C([H])([H])OC([H])([H])C1([H])[H])C2([H])[H]

$$$$
41:0:1
     RDKit          3D

 49 51  0  0  1  0  0  0  0  0999 V2000
   -1.5733   -8.2686    3.2711 C   0  0  0  0  0  0  0  0  0  0  0  0
   -1.3836   -7.0943    2.4846 O   0  0  0  0  0  0  0  0  0  0  0  0
   -0.1011   -7.0024    1.8805 C   0  0  0  0  0  0  0  0  0  0  0  0
    0.9203   -6.5019    2.9300 C   0  0  0  0  0  0  0  0  0  0  0  0
    2.3159   -6.3741    2.5209 N   0  0  0  0  0  0  0  0  0  0  0  0
    2.8826   -7.6623    2.1141 C   0  0  0  0  0  0  0  0  0  0  0  0
    4.3970   -7.6774    1.8966 C   0  0  0  0  0  0  0  0  0  0  0  0
    4.6924   -6.9624    0.7076 O   0  0  0  0  0  0  0  0  0  0  0  0
    5.0428   -5.6001    0.9137 C   0  0  1  0  0  0  0  0  0  0  0  0
    5.2814   -4.9342   -0.4371 C   0  0  0  0  0  0  0  0  0  0  0  0
    4.4680   -3.7103   -0.4766 N   0  0  2  0  0  0  0  0  0  0  0  0
    5.0537   -2.5829   -1.2709 C   0  0  0  0  0  0  0  0  0  0  0  0
    4.0294   -1.4508   -1.4799 C   0  0  0  0  0  0  0  0  0  0  0  0
    2.9329   -1.8757   -2.4770 C   0  0  0  0  0  0  0  0  0  0  0  0
    3.5223   -2.2636   -3.7156 O   0  0  0  0  0  0  0  0  0  0  0  0
    4.3707   -3.3951   -3.5938 C   0  0  0  0  0  0  0  0  0  0  0  0
    5.5337   -3.0549   -2.6592 C   0  0  0  0  0  0  0  0  0  0  0  0
    4.1314   -3.3865    0.9251 C   0  0  0  0  0  0  0  0  0  0  0  0
    3.9876   -4.7373    1.6269 C   0  0  1  0  0  0  0  0  0  0  0  0
    2.5451   -5.2907    1.5583 C   0  0  0  0  0  0  0  0  0  0  0  0
   -2.5878   -8.2902    3.6683 H   0  0  0  0  0  0  0  0  0  0  0  0
   -0.9069   -8.3170    4.1332 H   0  0  0  0  0  0  0  0  0  0  0  0
   -1.4394   -9.1788    2.6848 H   0  0  0  0  0  0  0  0  0  0  0  0
    0.1693   -7.9578    1.4337 H   0  0  0  0  0  0  0  0  0  0  0  0
   -0.1834   -6.2887    1.0637 H   0  0  0  0  0  0  0  0  0  0  0  0
    0.5906   -5.5428    3.3341 H   0  0  0  0  0  0  0  0  0  0  0  0
    0.9121   -7.1753    3.7777 H   0  0  0  0  0  0  0  0  0  0  0  0
    2.6549   -8.4027    2.8804 H   0  0  0  0  0  0  0  0  0  0  0  0
    2.4047   -8.0146    1.1979 H   0  0  0  0  0  0  0  0  0  0  0  0
    4.9378   -7.2895    2.7627 H   0  0  0  0  0  0  0  0  0  0  0  0
    4.7209   -8.7092    1.7526 H   0  0  0  0  0  0  0  0  0  0  0  0
    5.9787   -5.5416    1.4762 H   0  0  0  0  0  0  0  0  0  0  0  0
    6.3387   -4.7015   -0.5020 H   0  0  0  0  0  0  0  0  0  0  0  0
    4.9959   -5.5838   -1.2605 H   0  0  0  0  0  0  0  0  0  0  0  0
    5.9116   -2.1831   -0.7333 H   0  0  0  0  0  0  0  0  0  0  0  0
    3.5741   -1.0986   -0.5495 H   0  0  0  0  0  0  0  0  0  0  0  0
    4.5353   -0.5684   -1.8893 H   0  0  0  0  0  0  0  0  0  0  0  0
    2.3263   -2.6873   -2.0684 H   0  0  0  0  0  0  0  0  0  0  0  0
    2.2574   -1.0437   -2.6702 H   0  0  0  0  0  0  0  0  0  0  0  0
    3.8152   -4.2458   -3.2144 H   0  0  0  0  0  0  0  0  0  0  0  0
    4.7347   -3.6849   -4.5794 H   0  0  0  0  0  0  0  0  0  0  0  0
    6.1021   -2.2583   -3.1195 H   0  0  0  0  0  0  0  0  0  0  0  0
    6.2563   -3.8622   -2.6446 H   0  0  0  0  0  0  0  0  0  0  0  0
    4.9713   -2.8627    1.3775 H   0  0  0  0  0  0  0  0  0  0  0  0
    3.2384   -2.7723    1.0266 H   0  0  0  0  0  0  0  0  0  0  0  0
    4.2556   -4.6135    2.6824 H   0  0  0  0  0  0  0  0  0  0  0  0
    2.2777   -5.5837    0.5336 H   0  0  0  0  0  0  0  0  0  0  0  0
    1.8734   -4.4681    1.8099 H   0  0  0  0  0  0  0  0  0  0  0  0
    3.6079   -3.9809   -0.9249 H   0  0  0  0  0  0  0  0  0  0  0  0
  1  2  1  0
  1 21  1  0
  1 22  1  0
  1 23  1  0
  2  3  1  0
  3  4  1  0
  3 24  1  0
  3 25  1  0
  4  5  1  0
  4 26  1  0
  4 27  1  0
  5 20  1  0
  5  6  1  0
  6  7  1  0
  6 28  1  0
  6 29  1  0
  7  8  1  0
  7 30  1  0
  7 31  1  0
  8  9  1  0
  9 19  1  0
  9 10  1  0
  9 32  1  1
 10 11  1  0
 10 33  1  0
 10 34  1  0
 11 12  1  0
 11 18  1  0
 11 49  1  6
 12 17  1  0
 12 13  1  0
 12 35  1  0
 13 14  1  0
 13 36  1  0
 13 37  1  0
 14 15  1  0
 14 38  1  0
 14 39  1  0
 15 16  1  0
 16 17  1  0
 16 40  1  0
 16 41  1  0
 17 42  1  0
 17 43  1  0
 18 19  1  0
 18 44  1  0
 18 45  1  0
 19 20  1  0
 19 46  1  1
 20 47  1  0
 20 48  1  0
M  CHG  1  11   1
M  END
>  <i_m_ct_stereo_status>  (118) 
1

>  <s_m_source_file>  (118) 
/var/tmp/pbs.5076255.sched01/tmp1pob34vh/39rbzpz6sd.sdf

>  <i_m_source_file_index>  (118) 
22

>  <i_lp_mmshare_version>  (118) 
48012

>  <i_f3d_flags>  (118) 
0

>  <s_epik_input>  (118) 
W0NIM11PW0NIMl1bQ0gyXU4oW0NIMl1bQ0gyXU8xKVtDSDJdW0NAQEhdKFtDQEBIXTEyKVtDSDJdTihbQ0gyXTIpW0NIXTNbQ0gyXVtDSDJdT1tDSDJdW0NIMl0z

>  <s_epik_cmdline>  (118) 
J2VwaWtfcHl0aG9uJywgJy1waHQnLCAnMi4wJywgJy1waCcsICc3LjAnLCAnLXRuJywgJzgnLCAnLW1hJywgJzIwMCcsICctaW1hZScsICc8aW5maWxlLm1hZT4nLCAnLW9tYWUnLCAnPG91dGZpbGUubWFlPic=

>  <r_epik_Ionization_Penalty>  (118) 
0.225102

>  <r_epik_Ionization_Penalty_Charging>  (118) 
0.0135226

>  <r_epik_Ionization_Penalty_Neutral>  (118) 
0.211579

>  <r_epik_State_Penalty>  (118) 
0.277104

>  <r_epik_Charging_Adjusted_Penalty>  (118) 
0.290627

>  <i_epik_Tot_Q>  (118) 
1

>  <i_epik_Tot_abs_Q>  (118) 
1

>  <s_lp_Force_Field>  (118) 
OPLS3e

>  <r_lp_Energy>  (118) 
27.5909

>  <b_lp_Chiralities_Consistent>  (118) 
1

>  <s_lp_Variant>  (118) 
41:0-1

>  <s_i_glide_gridfile>  (118) 
pfpi4k_grid

>  <i_i_glide_lignum>  (118) 
22

>  <i_i_glide_rotatable_bonds>  (118) 
4

>  <r_i_docking_score>  (118) 
-3.39653

>  <r_i_glide_ligand_efficiency>  (118) 
-0.169827

>  <r_i_glide_ligand_efficiency_sa>  (118) 
-0.460981

>  <r_i_glide_ligand_efficiency_ln>  (118) 
-0.85004

>  <r_i_glide_gscore>  (118) 
-3.39653

>  <r_i_glide_lipo>  (118) 
-0.554102

>  <r_i_glide_hbond>  (118) 
-0.16

>  <r_i_glide_metal>  (118) 
-0

>  <r_i_glide_rewards>  (118) 
-1.46317

>  <r_i_glide_evdw>  (118) 
-21.109

>  <r_i_glide_ecoul>  (118) 
-5.54688

>  <r_i_glide_erotb>  (118) 
0.668214

>  <r_i_glide_esite>  (118) 
0

>  <r_i_glide_emodel>  (118) 
-31.233

>  <r_i_glide_energy>  (118) 
-26.6558

>  <r_i_glide_einternal>  (118) 
3.31499

>  <r_i_glide_intrahb_reward>  (118) 
-0

>  <i_i_glide_confnum>  (118) 
4

>  <i_i_glide_posenum>  (118) 
1

>  <r_i_glide_eff_state_penalty>  (118) 
0

>  <ligand_id>  (118) 
41

>  <original_smiles>  (118) 
COCCN1CCOC2CN(C3CCOCC3)CC2C1

>  <smiles>  (118) 
[H]C([H])([H])OC([H])([H])C([H])([H])N1C([H])([H])C([H])([H])OC2([H])C([H])(C1([H])[H])C([H])([H])[N+]([H])(C1([H])C([H])([H])C([H])([H])OC([H])([H])C1([H])[H])C2([H])[H]

$$$$
41:0:2
     RDKit          3D

 49 51  0  0  1  0  0  0  0  0999 V2000
    0.8825    1.2175    5.0949 C   0  0  0  0  0  0  0  0  0  0  0  0
    1.0544    1.0085    3.7006 O   0  0  0  0  0  0  0  0  0  0  0  0
    0.1701    0.0452    3.1445 C   0  0  0  0  0  0  0  0  0  0  0  0
    0.5928   -1.3936    3.5465 C   0  0  0  0  0  0  0  0  0  0  0  0
    1.9916   -1.7412    3.2752 N   0  0  0  0  0  0  0  0  0  0  0  0
    2.2768   -3.0679    3.8328 C   0  0  0  0  0  0  0  0  0  0  0  0
    3.7490   -3.4991    3.7761 C   0  0  0  0  0  0  0  0  0  0  0  0
    4.1026   -3.8207    2.4363 O   0  0  0  0  0  0  0  0  0  0  0  0
    4.6970   -2.7591    1.7131 C   0  0  1  0  0  0  0  0  0  0  0  0
    4.9348   -3.1979    0.2624 C   0  0  0  0  0  0  0  0  0  0  0  0
    4.3334   -2.1652   -0.6049 N   0  0  2  0  0  0  0  0  0  0  0  0
    5.0357   -1.9528   -1.9101 C   0  0  0  0  0  0  0  0  0  0  0  0
    4.3638   -0.8668   -2.7644 C   0  0  0  0  0  0  0  0  0  0  0  0
    3.0156   -1.3405   -3.3121 C   0  0  0  0  0  0  0  0  0  0  0  0
    3.2361   -2.5117   -4.0888 O   0  0  0  0  0  0  0  0  0  0  0  0
    3.7282   -3.6022   -3.3189 C   0  0  0  0  0  0  0  0  0  0  0  0
    5.0996   -3.2501   -2.7367 C   0  0  0  0  0  0  0  0  0  0  0  0
    4.1607   -0.9647    0.2317 C   0  0  0  0  0  0  0  0  0  0  0  0
    3.8482   -1.4822    1.6292 C   0  0  1  0  0  0  0  0  0  0  0  0
    2.3347   -1.6855    1.8442 C   0  0  0  0  0  0  0  0  0  0  0  0
    1.5746    1.9845    5.4414 H   0  0  0  0  0  0  0  0  0  0  0  0
    1.0792    0.3195    5.6822 H   0  0  0  0  0  0  0  0  0  0  0  0
   -0.1312    1.5564    5.3069 H   0  0  0  0  0  0  0  0  0  0  0  0
   -0.8531    0.2537    3.4539 H   0  0  0  0  0  0  0  0  0  0  0  0
    0.1598    0.1847    2.0592 H   0  0  0  0  0  0  0  0  0  0  0  0
    0.4357   -1.4868    4.6181 H   0  0  0  0  0  0  0  0  0  0  0  0
   -0.0743   -2.1456    3.1264 H   0  0  0  0  0  0  0  0  0  0  0  0
    1.9792   -3.0872    4.8848 H   0  0  0  0  0  0  0  0  0  0  0  0
    1.6665   -3.8296    3.3336 H   0  0  0  0  0  0  0  0  0  0  0  0
    4.4083   -2.7364    4.2012 H   0  0  0  0  0  0  0  0  0  0  0  0
    3.8816   -4.4010    4.3730 H   0  0  0  0  0  0  0  0  0  0  0  0
    5.6639   -2.4997    2.1552 H   0  0  0  0  0  0  0  0  0  0  0  0
    6.0120   -3.2851    0.0934 H   0  0  0  0  0  0  0  0  0  0  0  0
    4.4810   -4.1690    0.0535 H   0  0  0  0  0  0  0  0  0  0  0  0
    6.0579   -1.6344   -1.6953 H   0  0  0  0  0  0  0  0  0  0  0  0
    4.2555    0.0972   -2.2640 H   0  0  0  0  0  0  0  0  0  0  0  0
    5.0004   -0.6794   -3.6297 H   0  0  0  0  0  0  0  0  0  0  0  0
    2.2968   -1.5360   -2.5161 H   0  0  0  0  0  0  0  0  0  0  0  0
    2.5972   -0.5743   -3.9587 H   0  0  0  0  0  0  0  0  0  0  0  0
    3.0175   -3.8536   -2.5292 H   0  0  0  0  0  0  0  0  0  0  0  0
    3.8133   -4.4688   -3.9717 H   0  0  0  0  0  0  0  0  0  0  0  0
    5.7998   -3.1086   -3.5617 H   0  0  0  0  0  0  0  0  0  0  0  0
    5.4938   -4.1010   -2.1817 H   0  0  0  0  0  0  0  0  0  0  0  0
    5.0959   -0.4034    0.2625 H   0  0  0  0  0  0  0  0  0  0  0  0
    3.3728   -0.3063   -0.1249 H   0  0  0  0  0  0  0  0  0  0  0  0
    4.1928   -0.7371    2.3483 H   0  0  0  0  0  0  0  0  0  0  0  0
    1.9478   -2.5447    1.2823 H   0  0  0  0  0  0  0  0  0  0  0  0
    1.8660   -0.8109    1.3860 H   0  0  0  0  0  0  0  0  0  0  0  0
    3.3933   -2.4783   -0.8124 H   0  0  0  0  0  0  0  0  0  0  0  0
  1  2  1  0
  1 21  1  0
  1 22  1  0
  1 23  1  0
  2  3  1  0
  3  4  1  0
  3 24  1  0
  3 25  1  0
  4  5  1  0
  4 26  1  0
  4 27  1  0
  5 20  1  0
  5  6  1  0
  6  7  1  0
  6 28  1  0
  6 29  1  0
  7  8  1  0
  7 30  1  0
  7 31  1  0
  8  9  1  0
  9 19  1  0
  9 10  1  0
  9 32  1  1
 10 11  1  0
 10 33  1  0
 10 34  1  0
 11 12  1  0
 11 18  1  0
 11 49  1  6
 12 17  1  0
 12 13  1  0
 12 35  1  0
 13 14  1  0
 13 36  1  0
 13 37  1  0
 14 15  1  0
 14 38  1  0
 14 39  1  0
 15 16  1  0
 16 17  1  0
 16 40  1  0
 16 41  1  0
 17 42  1  0
 17 43  1  0
 18 19  1  0
 18 44  1  0
 18 45  1  0
 19 20  1  0
 19 46  1  1
 20 47  1  0
 20 48  1  0
M  CHG  1  11   1
M  END
>  <i_m_ct_stereo_status>  (119) 
1

>  <s_m_source_file>  (119) 
/var/tmp/pbs.5076255.sched01/tmp1pob34vh/39rbzpz6sd.sdf

>  <i_m_source_file_index>  (119) 
22

>  <i_lp_mmshare_version>  (119) 
48012

>  <i_f3d_flags>  (119) 
0

>  <s_epik_input>  (119) 
W0NIM11PW0NIMl1bQ0gyXU4oW0NIMl1bQ0gyXU8xKVtDSDJdW0NAQEhdKFtDQEBIXTEyKVtDSDJdTihbQ0gyXTIpW0NIXTNbQ0gyXVtDSDJdT1tDSDJdW0NIMl0z

>  <s_epik_cmdline>  (119) 
J2VwaWtfcHl0aG9uJywgJy1waHQnLCAnMi4wJywgJy1waCcsICc3LjAnLCAnLXRuJywgJzgnLCAnLW1hJywgJzIwMCcsICctaW1hZScsICc8aW5maWxlLm1hZT4nLCAnLW9tYWUnLCAnPG91dGZpbGUubWFlPic=

>  <r_epik_Ionization_Penalty>  (119) 
0.225102

>  <r_epik_Ionization_Penalty_Charging>  (119) 
0.0135226

>  <r_epik_Ionization_Penalty_Neutral>  (119) 
0.211579

>  <r_epik_State_Penalty>  (119) 
0.277104

>  <r_epik_Charging_Adjusted_Penalty>  (119) 
0.290627

>  <i_epik_Tot_Q>  (119) 
1

>  <i_epik_Tot_abs_Q>  (119) 
1

>  <s_lp_Force_Field>  (119) 
OPLS3e

>  <r_lp_Energy>  (119) 
27.5909

>  <b_lp_Chiralities_Consistent>  (119) 
1

>  <s_lp_Variant>  (119) 
41:0-1

>  <s_i_glide_gridfile>  (119) 
pfpi4k_grid

>  <i_i_glide_lignum>  (119) 
22

>  <i_i_glide_rotatable_bonds>  (119) 
4

>  <r_i_docking_score>  (119) 
-2.92787

>  <r_i_glide_ligand_efficiency>  (119) 
-0.146393

>  <r_i_glide_ligand_efficiency_sa>  (119) 
-0.397373

>  <r_i_glide_ligand_efficiency_ln>  (119) 
-0.732748

>  <r_i_glide_gscore>  (119) 
-2.92787

>  <r_i_glide_lipo>  (119) 
-0.409544

>  <r_i_glide_hbond>  (119) 
-0.13657

>  <r_i_glide_metal>  (119) 
-0

>  <r_i_glide_rewards>  (119) 
-1.46317

>  <r_i_glide_evdw>  (119) 
-17.4398

>  <r_i_glide_ecoul>  (119) 
-4.6084

>  <r_i_glide_erotb>  (119) 
0.668214

>  <r_i_glide_esite>  (119) 
-0.0235534

>  <r_i_glide_emodel>  (119) 
-26.4524

>  <r_i_glide_energy>  (119) 
-22.0482

>  <r_i_glide_einternal>  (119) 
2.05314

>  <r_i_glide_intrahb_reward>  (119) 
-0

>  <i_i_glide_confnum>  (119) 
2

>  <i_i_glide_posenum>  (119) 
4

>  <r_i_glide_eff_state_penalty>  (119) 
0

>  <ligand_id>  (119) 
41

>  <original_smiles>  (119) 
COCCN1CCOC2CN(C3CCOCC3)CC2C1

>  <smiles>  (119) 
[H]C([H])([H])OC([H])([H])C([H])([H])N1C([H])([H])C([H])([H])OC2([H])C([H])(C1([H])[H])C([H])([H])[N+]([H])(C1([H])C([H])([H])C([H])([H])OC([H])([H])C1([H])[H])C2([H])[H]

$$$$
41:1:0
     RDKit          3D

 50 52  0  0  1  0  0  0  0  0999 V2000
    3.7021    0.9248   -5.2923 C   0  0  0  0  0  0  0  0  0  0  0  0
    4.0590   -0.0947   -4.3700 O   0  0  0  0  0  0  0  0  0  0  0  0
    2.9513   -0.5130   -3.6064 C   0  0  0  0  0  0  0  0  0  0  0  0
    3.3909   -1.3729   -2.4122 C   0  0  0  0  0  0  0  0  0  0  0  0
    3.5324   -2.7930   -2.7999 N   0  0  2  0  0  0  0  0  0  0  0  0
    2.2263   -3.4747   -2.9753 C   0  0  0  0  0  0  0  0  0  0  0  0
    1.5144   -3.8961   -1.6657 C   0  0  0  0  0  0  0  0  0  0  0  0
    2.2750   -4.5880   -0.6926 O   0  0  0  0  0  0  0  0  0  0  0  0
    3.1156   -3.7581    0.0982 C   0  0  1  0  0  0  0  0  0  0  0  0
    3.3894   -4.5630    1.3525 C   0  0  0  0  0  0  0  0  0  0  0  0
    4.5505   -5.4067    1.0181 N   0  0  2  0  0  0  0  0  0  0  0  0
    5.2230   -6.0892    2.1702 C   0  0  0  0  0  0  0  0  0  0  0  0
    6.2549   -7.1302    1.6778 C   0  0  0  0  0  0  0  0  0  0  0  0
    5.5518   -8.3635    1.0743 C   0  0  0  0  0  0  0  0  0  0  0  0
    4.6645   -8.9292    2.0281 O   0  0  0  0  0  0  0  0  0  0  0  0
    3.6185   -8.0504    2.4161 C   0  0  0  0  0  0  0  0  0  0  0  0
    4.2237   -6.8127    3.1065 C   0  0  0  0  0  0  0  0  0  0  0  0
    5.4178   -4.5656    0.1624 C   0  0  0  0  0  0  0  0  0  0  0  0
    4.5016   -3.5327   -0.5318 C   0  0  1  0  0  0  0  0  0  0  0  0
    4.5779   -3.5787   -2.0776 C   0  0  0  0  0  0  0  0  0  0  0  0
    4.5757    1.1936   -5.8754 H   0  0  0  0  0  0  0  0  0  0  0  0
    3.3512    1.8272   -4.7899 H   0  0  0  0  0  0  0  0  0  0  0  0
    2.9348    0.5882   -5.9896 H   0  0  0  0  0  0  0  0  0  0  0  0
    2.4343    0.3399   -3.1967 H   0  0  0  0  0  0  0  0  0  0  0  0
    2.2261   -1.0000   -4.2901 H   0  0  0  0  0  0  0  0  0  0  0  0
    4.3175   -0.9667   -2.0091 H   0  0  0  0  0  0  0  0  0  0  0  0
    2.6579   -1.3005   -1.6107 H   0  0  0  0  0  0  0  0  0  0  0  0
    1.5199   -2.8850   -3.5502 H   0  0  0  0  0  0  0  0  0  0  0  0
    2.3932   -4.2957   -3.6717 H   0  0  0  0  0  0  0  0  0  0  0  0
    1.0117   -3.0694   -1.2006 H   0  0  0  0  0  0  0  0  0  0  0  0
    0.7157   -4.5788   -1.9077 H   0  0  0  0  0  0  0  0  0  0  0  0
    2.6208   -2.8181    0.3662 H   0  0  0  0  0  0  0  0  0  0  0  0
    3.6756   -3.8874    2.1590 H   0  0  0  0  0  0  0  0  0  0  0  0
    2.5074   -5.1308    1.6498 H   0  0  0  0  0  0  0  0  0  0  0  0
    5.7457   -5.3364    2.7676 H   0  0  0  0  0  0  0  0  0  0  0  0
    6.9688   -6.7155    0.9641 H   0  0  0  0  0  0  0  0  0  0  0  0
    6.8605   -7.4628    2.5207 H   0  0  0  0  0  0  0  0  0  0  0  0
    5.0063   -8.1057    0.1637 H   0  0  0  0  0  0  0  0  0  0  0  0
    6.2872   -9.1199    0.7981 H   0  0  0  0  0  0  0  0  0  0  0  0
    3.0246   -7.7745    1.5422 H   0  0  0  0  0  0  0  0  0  0  0  0
    2.9460   -8.5746    3.0966 H   0  0  0  0  0  0  0  0  0  0  0  0
    4.7439   -7.1387    4.0076 H   0  0  0  0  0  0  0  0  0  0  0  0
    3.4297   -6.1624    3.4752 H   0  0  0  0  0  0  0  0  0  0  0  0
    6.1391   -4.0316    0.7870 H   0  0  0  0  0  0  0  0  0  0  0  0
    5.9836   -5.1714   -0.5441 H   0  0  0  0  0  0  0  0  0  0  0  0
    4.8446   -2.5490   -0.2054 H   0  0  0  0  0  0  0  0  0  0  0  0
    4.6009   -4.6125   -2.4239 H   0  0  0  0  0  0  0  0  0  0  0  0
    5.5474   -3.1823   -2.3763 H   0  0  0  0  0  0  0  0  0  0  0  0
    4.1799   -6.1304    0.4037 H   0  0  0  0  0  0  0  0  0  0  0  0
    3.8987   -2.7432   -3.7385 H   0  0  0  0  0  0  0  0  0  0  0  0
  1  2  1  0
  1 21  1  0
  1 22  1  0
  1 23  1  0
  2  3  1  0
  3  4  1  0
  3 24  1  0
  3 25  1  0
  4  5  1  0
  4 26  1  0
  4 27  1  0
  5 20  1  0
  5  6  1  0
  5 50  1  6
  6  7  1  0
  6 28  1  0
  6 29  1  0
  7  8  1  0
  7 30  1  0
  7 31  1  0
  8  9  1  0
  9 19  1  0
  9 10  1  0
  9 32  1  1
 10 11  1  0
 10 33  1  0
 10 34  1  0
 11 12  1  0
 11 18  1  0
 11 49  1  6
 12 17  1  0
 12 13  1  0
 12 35  1  0
 13 14  1  0
 13 36  1  0
 13 37  1  0
 14 15  1  0
 14 38  1  0
 14 39  1  0
 15 16  1  0
 16 17  1  0
 16 40  1  0
 16 41  1  0
 17 42  1  0
 17 43  1  0
 18 19  1  0
 18 44  1  0
 18 45  1  0
 19 20  1  0
 19 46  1  1
 20 47  1  0
 20 48  1  0
M  CHG  2   5   1  11   1
M  END
>  <i_m_ct_stereo_status>  (120) 
1

>  <s_m_source_file>  (120) 
/var/tmp/pbs.5076255.sched01/tmp1pob34vh/39rbzpz6sd.sdf

>  <i_m_source_file_index>  (120) 
23

>  <i_lp_mmshare_version>  (120) 
48012

>  <i_f3d_flags>  (120) 
0

>  <s_epik_input>  (120) 
W0NIM11PW0NIMl1bQ0gyXU4oW0NIMl1bQ0gyXU8xKVtDSDJdW0NAQEhdKFtDQEBIXTEyKVtDSDJdTihbQ0gyXTIpW0NIXTNbQ0gyXVtDSDJdT1tDSDJdW0NIMl0z

>  <s_epik_cmdline>  (120) 
J2VwaWtfcHl0aG9uJywgJy1waHQnLCAnMi4wJywgJy1waCcsICc3LjAnLCAnLXRuJywgJzgnLCAnLW1hJywgJzIwMCcsICctaW1hZScsICc8aW5maWxlLm1hZT4nLCAnLW9tYWUnLCAnPG91dGZpbGUubWFlPic=

>  <r_epik_Ionization_Penalty>  (120) 
0.8429

>  <r_epik_Ionization_Penalty_Charging>  (120) 
0.8429

>  <r_epik_Ionization_Penalty_Neutral>  (120) 
1.344e-12

>  <r_epik_State_Penalty>  (120) 
0.733848

>  <r_epik_Charging_Adjusted_Penalty>  (120) 
1.57675

>  <i_epik_Tot_Q>  (120) 
2

>  <i_epik_Tot_abs_Q>  (120) 
2

>  <s_lp_Force_Field>  (120) 
OPLS3e

>  <r_lp_Energy>  (120) 
36.0877

>  <b_lp_Chiralities_Consistent>  (120) 
1

>  <s_lp_Variant>  (120) 
41:0-2

>  <s_i_glide_gridfile>  (120) 
pfpi4k_grid

>  <i_i_glide_lignum>  (120) 
23

>  <i_i_glide_rotatable_bonds>  (120) 
4

>  <r_i_docking_score>  (120) 
-3.10558

>  <r_i_glide_ligand_efficiency>  (120) 
-0.155279

>  <r_i_glide_ligand_efficiency_sa>  (120) 
-0.421492

>  <r_i_glide_ligand_efficiency_ln>  (120) 
-0.777223

>  <r_i_glide_gscore>  (120) 
-3.10558

>  <r_i_glide_lipo>  (120) 
-0.738419

>  <r_i_glide_hbond>  (120) 
0

>  <r_i_glide_metal>  (120) 
-0

>  <r_i_glide_rewards>  (120) 
-1.45629

>  <r_i_glide_evdw>  (120) 
-14.5975

>  <r_i_glide_ecoul>  (120) 
-5.59072

>  <r_i_glide_erotb>  (120) 
0.664125

>  <r_i_glide_esite>  (120) 
-0.00650613

>  <r_i_glide_emodel>  (120) 
-21.692

>  <r_i_glide_energy>  (120) 
-20.1882

>  <r_i_glide_einternal>  (120) 
7.60438

>  <r_i_glide_intrahb_reward>  (120) 
-0

>  <i_i_glide_confnum>  (120) 
5

>  <i_i_glide_posenum>  (120) 
35

>  <r_i_glide_eff_state_penalty>  (120) 
0

>  <ligand_id>  (120) 
41

>  <original_smiles>  (120) 
COCCN1CCOC2CN(C3CCOCC3)CC2C1

>  <smiles>  (120) 
[H]C([H])([H])OC([H])([H])C([H])([H])[N+]1([H])C([H])([H])C([H])([H])OC2([H])C([H])(C1([H])[H])C([H])([H])[N+]([H])(C1([H])C([H])([H])C([H])([H])OC([H])([H])C1([H])[H])C2([H])[H]

$$$$
41:1:1
     RDKit          3D

 50 52  0  0  1  0  0  0  0  0999 V2000
    1.6670    5.6609    3.4119 C   0  0  0  0  0  0  0  0  0  0  0  0
    1.8137    5.1795    4.7457 O   0  0  0  0  0  0  0  0  0  0  0  0
    2.2474    3.8314    4.8925 C   0  0  0  0  0  0  0  0  0  0  0  0
    1.1061    2.8334    4.6098 C   0  0  0  0  0  0  0  0  0  0  0  0
    0.8316    2.6691    3.1408 N   0  0  2  0  0  0  0  0  0  0  0  0
   -0.4619    2.0316    2.8040 C   0  0  0  0  0  0  0  0  0  0  0  0
   -0.5264    0.5247    3.0394 C   0  0  0  0  0  0  0  0  0  0  0  0
    0.5165   -0.1700    2.3693 O   0  0  0  0  0  0  0  0  0  0  0  0
    1.7336   -0.2261    3.0971 C   0  0  1  0  0  0  0  0  0  0  0  0
    2.4612   -1.4548    2.5952 C   0  0  0  0  0  0  0  0  0  0  0  0
    3.1664   -0.9994    1.3740 N   0  0  2  0  0  0  0  0  0  0  0  0
    4.2168   -1.9236    0.8465 C   0  0  0  0  0  0  0  0  0  0  0  0
    4.8427   -1.3851   -0.4619 C   0  0  0  0  0  0  0  0  0  0  0  0
    3.8378   -1.4748   -1.6201 C   0  0  0  0  0  0  0  0  0  0  0  0
    3.4020   -2.8214   -1.7764 O   0  0  0  0  0  0  0  0  0  0  0  0
    2.7233   -3.3364   -0.6343 C   0  0  0  0  0  0  0  0  0  0  0  0
    3.6690   -3.3460    0.5734 C   0  0  0  0  0  0  0  0  0  0  0  0
    3.6368    0.3760    1.7050 C   0  0  0  0  0  0  0  0  0  0  0  0
    2.6773    0.9411    2.7525 C   0  0  1  0  0  0  0  0  0  0  0  0
    1.9685    2.2250    2.3010 C   0  0  0  0  0  0  0  0  0  0  0  0
    1.4359    6.7292    3.4294 H   0  0  0  0  0  0  0  0  0  0  0  0
    0.8492    5.1685    2.8886 H   0  0  0  0  0  0  0  0  0  0  0  0
    2.5892    5.5226    2.8459 H   0  0  0  0  0  0  0  0  0  0  0  0
    3.1633    3.6260    4.3350 H   0  0  0  0  0  0  0  0  0  0  0  0
    2.5161    3.6998    5.9380 H   0  0  0  0  0  0  0  0  0  0  0  0
    1.3096    1.8698    5.0764 H   0  0  0  0  0  0  0  0  0  0  0  0
    0.2039    3.2017    5.0950 H   0  0  0  0  0  0  0  0  0  0  0  0
   -1.2542    2.5172    3.3716 H   0  0  0  0  0  0  0  0  0  0  0  0
   -0.6673    2.2402    1.7528 H   0  0  0  0  0  0  0  0  0  0  0  0
   -0.5592    0.2856    4.1025 H   0  0  0  0  0  0  0  0  0  0  0  0
   -1.4643    0.1941    2.6082 H   0  0  0  0  0  0  0  0  0  0  0  0
    1.5661   -0.3194    4.1685 H   0  0  0  0  0  0  0  0  0  0  0  0
    3.1996   -1.7599    3.3380 H   0  0  0  0  0  0  0  0  0  0  0  0
    1.7612   -2.2777    2.4134 H   0  0  0  0  0  0  0  0  0  0  0  0
    5.0056   -2.0068    1.5936 H   0  0  0  0  0  0  0  0  0  0  0  0
    5.2113   -0.3616   -0.3652 H   0  0  0  0  0  0  0  0  0  0  0  0
    5.7092   -1.9850   -0.7124 H   0  0  0  0  0  0  0  0  0  0  0  0
    2.9875   -0.8152   -1.4528 H   0  0  0  0  0  0  0  0  0  0  0  0
    4.2998   -1.1462   -2.5538 H   0  0  0  0  0  0  0  0  0  0  0  0
    1.8353   -2.7441   -0.4197 H   0  0  0  0  0  0  0  0  0  0  0  0
    2.3680   -4.3456   -0.8529 H   0  0  0  0  0  0  0  0  0  0  0  0
    4.4968   -4.0121    0.3587 H   0  0  0  0  0  0  0  0  0  0  0  0
    3.1655   -3.7749    1.4400 H   0  0  0  0  0  0  0  0  0  0  0  0
    4.6369    0.3250    2.1370 H   0  0  0  0  0  0  0  0  0  0  0  0
    3.6944    0.9773    0.7936 H   0  0  0  0  0  0  0  0  0  0  0  0
    3.2690    1.1694    3.6361 H   0  0  0  0  0  0  0  0  0  0  0  0
    1.5774    2.1022    1.2836 H   0  0  0  0  0  0  0  0  0  0  0  0
    2.6981    3.0372    2.2294 H   0  0  0  0  0  0  0  0  0  0  0  0
    2.4324   -0.8953    0.6668 H   0  0  0  0  0  0  0  0  0  0  0  0
    0.6668    3.6174    2.7898 H   0  0  0  0  0  0  0  0  0  0  0  0
  1  2  1  0
  1 21  1  0
  1 22  1  0
  1 23  1  0
  2  3  1  0
  3  4  1  0
  3 24  1  0
  3 25  1  0
  4  5  1  0
  4 26  1  0
  4 27  1  0
  5 20  1  0
  5  6  1  0
  5 50  1  6
  6  7  1  0
  6 28  1  0
  6 29  1  0
  7  8  1  0
  7 30  1  0
  7 31  1  0
  8  9  1  0
  9 19  1  0
  9 10  1  0
  9 32  1  1
 10 11  1  0
 10 33  1  0
 10 34  1  0
 11 12  1  0
 11 18  1  0
 11 49  1  6
 12 17  1  0
 12 13  1  0
 12 35  1  0
 13 14  1  0
 13 36  1  0
 13 37  1  0
 14 15  1  0
 14 38  1  0
 14 39  1  0
 15 16  1  0
 16 17  1  0
 16 40  1  0
 16 41  1  0
 17 42  1  0
 17 43  1  0
 18 19  1  0
 18 44  1  0
 18 45  1  0
 19 20  1  0
 19 46  1  1
 20 47  1  0
 20 48  1  0
M  CHG  2   5   1  11   1
M  END
>  <i_m_ct_stereo_status>  (121) 
1

>  <s_m_source_file>  (121) 
/var/tmp/pbs.5076255.sched01/tmp1pob34vh/39rbzpz6sd.sdf

>  <i_m_source_file_index>  (121) 
23

>  <i_lp_mmshare_version>  (121) 
48012

>  <i_f3d_flags>  (121) 
0

>  <s_epik_input>  (121) 
W0NIM11PW0NIMl1bQ0gyXU4oW0NIMl1bQ0gyXU8xKVtDSDJdW0NAQEhdKFtDQEBIXTEyKVtDSDJdTihbQ0gyXTIpW0NIXTNbQ0gyXVtDSDJdT1tDSDJdW0NIMl0z

>  <s_epik_cmdline>  (121) 
J2VwaWtfcHl0aG9uJywgJy1waHQnLCAnMi4wJywgJy1waCcsICc3LjAnLCAnLXRuJywgJzgnLCAnLW1hJywgJzIwMCcsICctaW1hZScsICc8aW5maWxlLm1hZT4nLCAnLW9tYWUnLCAnPG91dGZpbGUubWFlPic=

>  <r_epik_Ionization_Penalty>  (121) 
0.8429

>  <r_epik_Ionization_Penalty_Charging>  (121) 
0.8429

>  <r_epik_Ionization_Penalty_Neutral>  (121) 
1.344e-12

>  <r_epik_State_Penalty>  (121) 
0.733848

>  <r_epik_Charging_Adjusted_Penalty>  (121) 
1.57675

>  <i_epik_Tot_Q>  (121) 
2

>  <i_epik_Tot_abs_Q>  (121) 
2

>  <s_lp_Force_Field>  (121) 
OPLS3e

>  <r_lp_Energy>  (121) 
36.0877

>  <b_lp_Chiralities_Consistent>  (121) 
1

>  <s_lp_Variant>  (121) 
41:0-2

>  <s_i_glide_gridfile>  (121) 
pfpi4k_grid

>  <i_i_glide_lignum>  (121) 
23

>  <i_i_glide_rotatable_bonds>  (121) 
4

>  <r_i_docking_score>  (121) 
-2.91215

>  <r_i_glide_ligand_efficiency>  (121) 
-0.145608

>  <r_i_glide_ligand_efficiency_sa>  (121) 
-0.39524

>  <r_i_glide_ligand_efficiency_ln>  (121) 
-0.728816

>  <r_i_glide_gscore>  (121) 
-2.91215

>  <r_i_glide_lipo>  (121) 
-0.0503258

>  <r_i_glide_hbond>  (121) 
-0.153109

>  <r_i_glide_metal>  (121) 
-0

>  <r_i_glide_rewards>  (121) 
-1.45629

>  <r_i_glide_evdw>  (121) 
-16.7708

>  <r_i_glide_ecoul>  (121) 
-6.45859

>  <r_i_glide_erotb>  (121) 
0.664125

>  <r_i_glide_esite>  (121) 
-0.109223

>  <r_i_glide_emodel>  (121) 
-27.2514

>  <r_i_glide_energy>  (121) 
-23.2293

>  <r_i_glide_einternal>  (121) 
2.56893

>  <r_i_glide_intrahb_reward>  (121) 
-0

>  <i_i_glide_confnum>  (121) 
6

>  <i_i_glide_posenum>  (121) 
9

>  <r_i_glide_eff_state_penalty>  (121) 
0

>  <ligand_id>  (121) 
41

>  <original_smiles>  (121) 
COCCN1CCOC2CN(C3CCOCC3)CC2C1

>  <smiles>  (121) 
[H]C([H])([H])OC([H])([H])C([H])([H])[N+]1([H])C([H])([H])C([H])([H])OC2([H])C([H])(C1([H])[H])C([H])([H])[N+]([H])(C1([H])C([H])([H])C([H])([H])OC([H])([H])C1([H])[H])C2([H])[H]

$$$$
41:1:2
     RDKit          3D

 50 52  0  0  1  0  0  0  0  0999 V2000
    2.8596    1.0674   -5.3575 C   0  0  0  0  0  0  0  0  0  0  0  0
    2.8236    0.0904   -4.3298 O   0  0  0  0  0  0  0  0  0  0  0  0
    4.0878   -0.1530   -3.7535 C   0  0  0  0  0  0  0  0  0  0  0  0
    3.9565   -0.9957   -2.4767 C   0  0  0  0  0  0  0  0  0  0  0  0
    4.2646   -2.4337   -2.7146 N   0  0  2  0  0  0  0  0  0  0  0  0
    3.0955   -3.2806   -3.0490 C   0  0  0  0  0  0  0  0  0  0  0  0
    2.1601   -3.5846   -1.8615 C   0  0  0  0  0  0  0  0  0  0  0  0
    2.8102   -4.1571   -0.7214 O   0  0  0  0  0  0  0  0  0  0  0  0
    3.4208   -3.2118    0.1388 C   0  0  1  0  0  0  0  0  0  0  0  0
    3.5303   -3.8991    1.4978 C   0  0  0  0  0  0  0  0  0  0  0  0
    4.7779   -4.6865    1.4132 N   0  0  2  0  0  0  0  0  0  0  0  0
    5.2868   -5.2356    2.7137 C   0  0  0  0  0  0  0  0  0  0  0  0
    6.6355   -5.9672    2.5444 C   0  0  0  0  0  0  0  0  0  0  0  0
    6.4441   -7.2893    1.7843 C   0  0  0  0  0  0  0  0  0  0  0  0
    5.5095   -8.1114    2.4728 O   0  0  0  0  0  0  0  0  0  0  0  0
    4.2114   -7.5361    2.5645 C   0  0  0  0  0  0  0  0  0  0  0  0
    4.2817   -6.2172    3.3542 C   0  0  0  0  0  0  0  0  0  0  0  0
    5.7279   -3.8408    0.6445 C   0  0  0  0  0  0  0  0  0  0  0  0
    4.8779   -2.9246   -0.2611 C   0  0  1  0  0  0  0  0  0  0  0  0
    5.2163   -3.0827   -1.7664 C   0  0  0  0  0  0  0  0  0  0  0  0
    1.8408    1.2549   -5.6942 H   0  0  0  0  0  0  0  0  0  0  0  0
    3.4538    0.7239   -6.2083 H   0  0  0  0  0  0  0  0  0  0  0  0
    3.2576    2.0270   -5.0131 H   0  0  0  0  0  0  0  0  0  0  0  0
    4.7333   -0.6326   -4.4929 H   0  0  0  0  0  0  0  0  0  0  0  0
    4.5423    0.8013   -3.4814 H   0  0  0  0  0  0  0  0  0  0  0  0
    4.6577   -0.5840   -1.7502 H   0  0  0  0  0  0  0  0  0  0  0  0
    2.9653   -0.8565   -2.0330 H   0  0  0  0  0  0  0  0  0  0  0  0
    2.5044   -2.7759   -3.8133 H   0  0  0  0  0  0  0  0  0  0  0  0
    3.4521   -4.2016   -3.5118 H   0  0  0  0  0  0  0  0  0  0  0  0
    1.6111   -2.6939   -1.5780 H   0  0  0  0  0  0  0  0  0  0  0  0
    1.4087   -4.3012   -2.1883 H   0  0  0  0  0  0  0  0  0  0  0  0
    2.8274   -2.2984    0.2304 H   0  0  0  0  0  0  0  0  0  0  0  0
    3.6283   -3.1425    2.2794 H   0  0  0  0  0  0  0  0  0  0  0  0
    2.6452   -4.5076    1.7067 H   0  0  0  0  0  0  0  0  0  0  0  0
    5.4376   -4.3970    3.3982 H   0  0  0  0  0  0  0  0  0  0  0  0
    7.3930   -5.3581    2.0500 H   0  0  0  0  0  0  0  0  0  0  0  0
    7.0493   -6.1911    3.5276 H   0  0  0  0  0  0  0  0  0  0  0  0
    6.0898   -7.1059    0.7685 H   0  0  0  0  0  0  0  0  0  0  0  0
    7.3900   -7.8241    1.7004 H   0  0  0  0  0  0  0  0  0  0  0  0
    3.8035   -7.3807    1.5628 H   0  0  0  0  0  0  0  0  0  0  0  0
    3.5491   -8.2447    3.0629 H   0  0  0  0  0  0  0  0  0  0  0  0
    4.6032   -6.4438    4.3700 H   0  0  0  0  0  0  0  0  0  0  0  0
    3.2851   -5.7914    3.4587 H   0  0  0  0  0  0  0  0  0  0  0  0
    6.2984   -3.2154    1.3386 H   0  0  0  0  0  0  0  0  0  0  0  0
    6.4323   -4.4543    0.0785 H   0  0  0  0  0  0  0  0  0  0  0  0
    5.1068   -1.9048    0.0405 H   0  0  0  0  0  0  0  0  0  0  0  0
    5.2913   -4.1425   -2.0213 H   0  0  0  0  0  0  0  0  0  0  0  0
    6.2082   -2.6636   -1.9447 H   0  0  0  0  0  0  0  0  0  0  0  0
    4.5602   -5.4773    0.8128 H   0  0  0  0  0  0  0  0  0  0  0  0
    4.7903   -2.4299   -3.5777 H   0  0  0  0  0  0  0  0  0  0  0  0
  1  2  1  0
  1 21  1  0
  1 22  1  0
  1 23  1  0
  2  3  1  0
  3  4  1  0
  3 24  1  0
  3 25  1  0
  4  5  1  0
  4 26  1  0
  4 27  1  0
  5 20  1  0
  5  6  1  0
  5 50  1  6
  6  7  1  0
  6 28  1  0
  6 29  1  0
  7  8  1  0
  7 30  1  0
  7 31  1  0
  8  9  1  0
  9 19  1  0
  9 10  1  0
  9 32  1  1
 10 11  1  0
 10 33  1  0
 10 34  1  0
 11 12  1  0
 11 18  1  0
 11 49  1  6
 12 17  1  0
 12 13  1  0
 12 35  1  0
 13 14  1  0
 13 36  1  0
 13 37  1  0
 14 15  1  0
 14 38  1  0
 14 39  1  0
 15 16  1  0
 16 17  1  0
 16 40  1  0
 16 41  1  0
 17 42  1  0
 17 43  1  0
 18 19  1  0
 18 44  1  0
 18 45  1  0
 19 20  1  0
 19 46  1  1
 20 47  1  0
 20 48  1  0
M  CHG  2   5   1  11   1
M  END
>  <i_m_ct_stereo_status>  (122) 
1

>  <s_m_source_file>  (122) 
/var/tmp/pbs.5076255.sched01/tmp1pob34vh/39rbzpz6sd.sdf

>  <i_m_source_file_index>  (122) 
23

>  <i_lp_mmshare_version>  (122) 
48012

>  <i_f3d_flags>  (122) 
0

>  <s_epik_input>  (122) 
W0NIM11PW0NIMl1bQ0gyXU4oW0NIMl1bQ0gyXU8xKVtDSDJdW0NAQEhdKFtDQEBIXTEyKVtDSDJdTihbQ0gyXTIpW0NIXTNbQ0gyXVtDSDJdT1tDSDJdW0NIMl0z

>  <s_epik_cmdline>  (122) 
J2VwaWtfcHl0aG9uJywgJy1waHQnLCAnMi4wJywgJy1waCcsICc3LjAnLCAnLXRuJywgJzgnLCAnLW1hJywgJzIwMCcsICctaW1hZScsICc8aW5maWxlLm1hZT4nLCAnLW9tYWUnLCAnPG91dGZpbGUubWFlPic=

>  <r_epik_Ionization_Penalty>  (122) 
0.8429

>  <r_epik_Ionization_Penalty_Charging>  (122) 
0.8429

>  <r_epik_Ionization_Penalty_Neutral>  (122) 
1.344e-12

>  <r_epik_State_Penalty>  (122) 
0.733848

>  <r_epik_Charging_Adjusted_Penalty>  (122) 
1.57675

>  <i_epik_Tot_Q>  (122) 
2

>  <i_epik_Tot_abs_Q>  (122) 
2

>  <s_lp_Force_Field>  (122) 
OPLS3e

>  <r_lp_Energy>  (122) 
36.0877

>  <b_lp_Chiralities_Consistent>  (122) 
1

>  <s_lp_Variant>  (122) 
41:0-2

>  <s_i_glide_gridfile>  (122) 
pfpi4k_grid

>  <i_i_glide_lignum>  (122) 
23

>  <i_i_glide_rotatable_bonds>  (122) 
4

>  <r_i_docking_score>  (122) 
-2.79387

>  <r_i_glide_ligand_efficiency>  (122) 
-0.139693

>  <r_i_glide_ligand_efficiency_sa>  (122) 
-0.379186

>  <r_i_glide_ligand_efficiency_ln>  (122) 
-0.699213

>  <r_i_glide_gscore>  (122) 
-2.79387

>  <r_i_glide_lipo>  (122) 
-0.625074

>  <r_i_glide_hbond>  (122) 
0

>  <r_i_glide_metal>  (122) 
-0

>  <r_i_glide_rewards>  (122) 
-1.45629

>  <r_i_glide_evdw>  (122) 
-18.2888

>  <r_i_glide_ecoul>  (122) 
-3.08125

>  <r_i_glide_erotb>  (122) 
0.664125

>  <r_i_glide_esite>  (122) 
0

>  <r_i_glide_emodel>  (122) 
-23.8385

>  <r_i_glide_energy>  (122) 
-21.37

>  <r_i_glide_einternal>  (122) 
5.31456

>  <r_i_glide_intrahb_reward>  (122) 
-0

>  <i_i_glide_confnum>  (122) 
6

>  <i_i_glide_posenum>  (122) 
19

>  <r_i_glide_eff_state_penalty>  (122) 
0

>  <ligand_id>  (122) 
41

>  <original_smiles>  (122) 
COCCN1CCOC2CN(C3CCOCC3)CC2C1

>  <smiles>  (122) 
[H]C([H])([H])OC([H])([H])C([H])([H])[N+]1([H])C([H])([H])C([H])([H])OC2([H])C([H])(C1([H])[H])C([H])([H])[N+]([H])(C1([H])C([H])([H])C([H])([H])OC([H])([H])C1([H])[H])C2([H])[H]

$$$$
41:2:0
     RDKit          3D

 49 51  0  0  1  0  0  0  0  0999 V2000
    3.4182    0.3724   -5.7339 C   0  0  0  0  0  0  0  0  0  0  0  0
    3.6372   -0.6614   -4.7833 O   0  0  0  0  0  0  0  0  0  0  0  0
    3.2444   -0.2865   -3.4712 C   0  0  0  0  0  0  0  0  0  0  0  0
    3.2848   -1.5133   -2.5432 C   0  0  0  0  0  0  0  0  0  0  0  0
    4.4305   -1.4692   -1.5964 N   0  0  2  0  0  0  0  0  0  0  0  0
    5.5991   -2.2483   -2.0465 C   0  0  0  0  0  0  0  0  0  0  0  0
    5.4204   -3.7675   -1.9863 C   0  0  0  0  0  0  0  0  0  0  0  0
    5.2319   -4.2326   -0.6638 O   0  0  0  0  0  0  0  0  0  0  0  0
    3.8665   -4.2592   -0.2804 C   0  0  1  0  0  0  0  0  0  0  0  0
    3.7335   -5.2004    0.9194 C   0  0  0  0  0  0  0  0  0  0  0  0
    2.8570   -4.5372    1.8670 N   0  0  0  0  0  0  0  0  0  0  0  0
    2.9350   -5.0768    3.2317 C   0  0  0  0  0  0  0  0  0  0  0  0
    2.4616   -6.5438    3.3103 C   0  0  0  0  0  0  0  0  0  0  0  0
    0.9437   -6.6363    3.0791 C   0  0  0  0  0  0  0  0  0  0  0  0
    0.2464   -5.8313    4.0285 O   0  0  0  0  0  0  0  0  0  0  0  0
    0.6190   -4.4534    3.9782 C   0  0  0  0  0  0  0  0  0  0  0  0
    2.1066   -4.2734    4.2570 C   0  0  0  0  0  0  0  0  0  0  0  0
    3.2152   -3.1389    1.7220 C   0  0  0  0  0  0  0  0  0  0  0  0
    3.3337   -2.9057    0.2165 C   0  0  1  0  0  0  0  0  0  0  0  0
    4.1370   -1.6405   -0.1472 C   0  0  0  0  0  0  0  0  0  0  0  0
    3.7820    0.0491   -6.7148 H   0  0  0  0  0  0  0  0  0  0  0  0
    3.9649    1.2751   -5.4477 H   0  0  0  0  0  0  0  0  0  0  0  0
    2.3588    0.6268   -5.8353 H   0  0  0  0  0  0  0  0  0  0  0  0
    3.8858    0.5238   -3.1180 H   0  0  0  0  0  0  0  0  0  0  0  0
    2.2246    0.1153   -3.4936 H   0  0  0  0  0  0  0  0  0  0  0  0
    2.3544   -1.5238   -1.9923 H   0  0  0  0  0  0  0  0  0  0  0  0
    3.2564   -2.4380   -3.1268 H   0  0  0  0  0  0  0  0  0  0  0  0
    5.7862   -2.0173   -3.0883 H   0  0  0  0  0  0  0  0  0  0  0  0
    6.4860   -1.9621   -1.4770 H   0  0  0  0  0  0  0  0  0  0  0  0
    4.6670   -4.1507   -2.6752 H   0  0  0  0  0  0  0  0  0  0  0  0
    6.3622   -4.1744   -2.3372 H   0  0  0  0  0  0  0  0  0  0  0  0
    3.2279   -4.6177   -1.0889 H   0  0  0  0  0  0  0  0  0  0  0  0
    3.3325   -6.1636    0.6067 H   0  0  0  0  0  0  0  0  0  0  0  0
    4.7229   -5.3701    1.3565 H   0  0  0  0  0  0  0  0  0  0  0  0
    3.9753   -5.0380    3.5571 H   0  0  0  0  0  0  0  0  0  0  0  0
    2.9923   -7.1847    2.6056 H   0  0  0  0  0  0  0  0  0  0  0  0
    2.6982   -6.9413    4.2972 H   0  0  0  0  0  0  0  0  0  0  0  0
    0.6969   -6.3131    2.0664 H   0  0  0  0  0  0  0  0  0  0  0  0
    0.6087   -7.6714    3.1694 H   0  0  0  0  0  0  0  0  0  0  0  0
    0.4041   -4.0434    2.9937 H   0  0  0  0  0  0  0  0  0  0  0  0
    0.0117   -3.8889    4.6921 H   0  0  0  0  0  0  0  0  0  0  0  0
    2.3313   -4.6250    5.2660 H   0  0  0  0  0  0  0  0  0  0  0  0
    2.3625   -3.2114    4.2530 H   0  0  0  0  0  0  0  0  0  0  0  0
    2.4514   -2.4838    2.1405 H   0  0  0  0  0  0  0  0  0  0  0  0
    4.1657   -2.9386    2.2246 H   0  0  0  0  0  0  0  0  0  0  0  0
    2.3153   -2.7997   -0.1560 H   0  0  0  0  0  0  0  0  0  0  0  0
    5.0788   -1.6461    0.4058 H   0  0  0  0  0  0  0  0  0  0  0  0
    3.5879   -0.7691    0.2036 H   0  0  0  0  0  0  0  0  0  0  0  0
    4.7326   -0.5056   -1.6319 H   0  0  0  0  0  0  0  0  0  0  0  0
  1  2  1  0
  1 21  1  0
  1 22  1  0
  1 23  1  0
  2  3  1  0
  3  4  1  0
  3 24  1  0
  3 25  1  0
  4  5  1  0
  4 26  1  0
  4 27  1  0
  5 20  1  0
  5  6  1  0
  5 49  1  1
  6  7  1  0
  6 28  1  0
  6 29  1  0
  7  8  1  0
  7 30  1  0
  7 31  1  0
  8  9  1  0
  9 19  1  0
  9 10  1  0
  9 32  1  6
 10 11  1  0
 10 33  1  0
 10 34  1  0
 11 12  1  0
 11 18  1  0
 12 17  1  0
 12 13  1  0
 12 35  1  0
 13 14  1  0
 13 36  1  0
 13 37  1  0
 14 15  1  0
 14 38  1  0
 14 39  1  0
 15 16  1  0
 16 17  1  0
 16 40  1  0
 16 41  1  0
 17 42  1  0
 17 43  1  0
 18 19  1  0
 18 44  1  0
 18 45  1  0
 19 20  1  0
 19 46  1  6
 20 47  1  0
 20 48  1  0
M  CHG  1   5   1
M  END
>  <i_m_ct_stereo_status>  (123) 
1

>  <s_m_source_file>  (123) 
/var/tmp/pbs.5076255.sched01/tmp1pob34vh/39rbzpz6sd.sdf

>  <i_m_source_file_index>  (123) 
24

>  <i_lp_mmshare_version>  (123) 
48012

>  <i_f3d_flags>  (123) 
0

>  <s_epik_input>  (123) 
W0NIM11PW0NIMl1bQ0gyXU4oW0NIMl1bQ0gyXU8xKVtDSDJdW0NAQEhdKFtDQEBIXTEyKVtDSDJdTihbQ0gyXTIpW0NIXTNbQ0gyXVtDSDJdT1tDSDJdW0NIMl0z

>  <s_epik_cmdline>  (123) 
J2VwaWtfcHl0aG9uJywgJy1waHQnLCAnMi4wJywgJy1waCcsICc3LjAnLCAnLXRuJywgJzgnLCAnLW1hJywgJzIwMCcsICctaW1hZScsICc8aW5maWxlLm1hZT4nLCAnLW9tYWUnLCAnPG91dGZpbGUubWFlPic=

>  <r_epik_Ionization_Penalty>  (123) 
1.03617

>  <r_epik_Ionization_Penalty_Charging>  (123) 
0.0743138

>  <r_epik_Ionization_Penalty_Neutral>  (123) 
0.961853

>  <r_epik_State_Penalty>  (123) 
1.5433

>  <r_epik_Charging_Adjusted_Penalty>  (123) 
1.61761

>  <i_epik_Tot_Q>  (123) 
1

>  <i_epik_Tot_abs_Q>  (123) 
1

>  <s_lp_Force_Field>  (123) 
OPLS3e

>  <r_lp_Energy>  (123) 
29.8586

>  <b_lp_Chiralities_Consistent>  (123) 
1

>  <s_lp_Variant>  (123) 
41:0-3

>  <s_i_glide_gridfile>  (123) 
pfpi4k_grid

>  <i_i_glide_lignum>  (123) 
24

>  <i_i_glide_rotatable_bonds>  (123) 
4

>  <r_i_docking_score>  (123) 
-2.98696

>  <r_i_glide_ligand_efficiency>  (123) 
-0.149348

>  <r_i_glide_ligand_efficiency_sa>  (123) 
-0.405392

>  <r_i_glide_ligand_efficiency_ln>  (123) 
-0.747536

>  <r_i_glide_gscore>  (123) 
-2.98696

>  <r_i_glide_lipo>  (123) 
-0.408818

>  <r_i_glide_hbond>  (123) 
-0.124675

>  <r_i_glide_metal>  (123) 
-0

>  <r_i_glide_rewards>  (123) 
-1.46317

>  <r_i_glide_evdw>  (123) 
-16.3323

>  <r_i_glide_ecoul>  (123) 
-5.31015

>  <r_i_glide_erotb>  (123) 
0.668214

>  <r_i_glide_esite>  (123) 
-0.0453708

>  <r_i_glide_emodel>  (123) 
-24.4852

>  <r_i_glide_energy>  (123) 
-21.6425

>  <r_i_glide_einternal>  (123) 
5.57827

>  <r_i_glide_intrahb_reward>  (123) 
-0

>  <i_i_glide_confnum>  (123) 
5

>  <i_i_glide_posenum>  (123) 
4

>  <r_i_glide_eff_state_penalty>  (123) 
0

>  <ligand_id>  (123) 
41

>  <original_smiles>  (123) 
COCCN1CCOC2CN(C3CCOCC3)CC2C1

>  <smiles>  (123) 
[H]C([H])([H])OC([H])([H])C([H])([H])[N+]1([H])C([H])([H])C([H])([H])OC2([H])C([H])([H])N(C3([H])C([H])([H])C([H])([H])OC([H])([H])C3([H])[H])C([H])([H])C2([H])C1([H])[H]

$$$$
41:2:1
     RDKit          3D

 49 51  0  0  1  0  0  0  0  0999 V2000
   -0.3446   -9.8666    2.6154 C   0  0  0  0  0  0  0  0  0  0  0  0
    0.8856   -9.9525    3.3171 O   0  0  0  0  0  0  0  0  0  0  0  0
    1.0046  -11.0948    4.1497 C   0  0  0  0  0  0  0  0  0  0  0  0
    2.3930  -11.1275    4.8198 C   0  0  0  0  0  0  0  0  0  0  0  0
    3.4914  -11.5836    3.9174 N   0  0  2  0  0  0  0  0  0  0  0  0
    4.7395  -11.9906    4.6124 C   0  0  0  0  0  0  0  0  0  0  0  0
    5.5537  -10.8405    5.2349 C   0  0  0  0  0  0  0  0  0  0  0  0
    5.9819   -9.8960    4.2689 O   0  0  0  0  0  0  0  0  0  0  0  0
    5.0418   -8.8626    4.0216 C   0  0  1  0  0  0  0  0  0  0  0  0
    5.7799   -7.6966    3.3591 C   0  0  0  0  0  0  0  0  0  0  0  0
    4.9321   -7.2269    2.2797 N   0  0  0  0  0  0  0  0  0  0  0  0
    5.6245   -6.3967    1.2865 C   0  0  0  0  0  0  0  0  0  0  0  0
    6.2184   -5.1115    1.9009 C   0  0  0  0  0  0  0  0  0  0  0  0
    5.0974   -4.1411    2.3071 C   0  0  0  0  0  0  0  0  0  0  0  0
    4.2900   -3.8265    1.1747 O   0  0  0  0  0  0  0  0  0  0  0  0
    3.6514   -4.9682    0.6069 C   0  0  0  0  0  0  0  0  0  0  0  0
    4.7086   -5.9722    0.1193 C   0  0  0  0  0  0  0  0  0  0  0  0
    4.3362   -8.4452    1.7709 C   0  0  0  0  0  0  0  0  0  0  0  0
    3.9492   -9.2406    3.0114 C   0  0  1  0  0  0  0  0  0  0  0  0
    3.7494  -10.7378    2.7195 C   0  0  0  0  0  0  0  0  0  0  0  0
   -0.3713   -8.9372    2.0418 H   0  0  0  0  0  0  0  0  0  0  0  0
   -1.2002   -9.8560    3.2929 H   0  0  0  0  0  0  0  0  0  0  0  0
   -0.4589  -10.6954    1.9134 H   0  0  0  0  0  0  0  0  0  0  0  0
    0.2388  -11.0349    4.9229 H   0  0  0  0  0  0  0  0  0  0  0  0
    0.8175  -12.0085    3.5862 H   0  0  0  0  0  0  0  0  0  0  0  0
    2.6207  -10.1666    5.2863 H   0  0  0  0  0  0  0  0  0  0  0  0
    2.3343  -11.8500    5.6354 H   0  0  0  0  0  0  0  0  0  0  0  0
    4.4944  -12.7070    5.4004 H   0  0  0  0  0  0  0  0  0  0  0  0
    5.3756  -12.5285    3.9038 H   0  0  0  0  0  0  0  0  0  0  0  0
    5.0368  -10.3679    6.0681 H   0  0  0  0  0  0  0  0  0  0  0  0
    6.4659  -11.2724    5.6490 H   0  0  0  0  0  0  0  0  0  0  0  0
    4.5836   -8.5105    4.9480 H   0  0  0  0  0  0  0  0  0  0  0  0
    5.9719   -6.9062    4.0852 H   0  0  0  0  0  0  0  0  0  0  0  0
    6.7416   -8.0484    2.9712 H   0  0  0  0  0  0  0  0  0  0  0  0
    6.4492   -6.9819    0.8755 H   0  0  0  0  0  0  0  0  0  0  0  0
    6.8656   -5.3257    2.7512 H   0  0  0  0  0  0  0  0  0  0  0  0
    6.8584   -4.6289    1.1632 H   0  0  0  0  0  0  0  0  0  0  0  0
    4.4830   -4.5797    3.0965 H   0  0  0  0  0  0  0  0  0  0  0  0
    5.5221   -3.2224    2.7123 H   0  0  0  0  0  0  0  0  0  0  0  0
    2.9966   -5.4346    1.3465 H   0  0  0  0  0  0  0  0  0  0  0  0
    3.0166   -4.6534   -0.2226 H   0  0  0  0  0  0  0  0  0  0  0  0
    5.3104   -5.5021   -0.6592 H   0  0  0  0  0  0  0  0  0  0  0  0
    4.2286   -6.8253   -0.3622 H   0  0  0  0  0  0  0  0  0  0  0  0
    3.4545   -8.2424    1.1632 H   0  0  0  0  0  0  0  0  0  0  0  0
    5.0565   -8.9988    1.1616 H   0  0  0  0  0  0  0  0  0  0  0  0
    3.0242   -8.8009    3.3755 H   0  0  0  0  0  0  0  0  0  0  0  0
    4.6252  -11.1162    2.1839 H   0  0  0  0  0  0  0  0  0  0  0  0
    2.9039  -10.8534    2.0439 H   0  0  0  0  0  0  0  0  0  0  0  0
    3.1466  -12.4508    3.5296 H   0  0  0  0  0  0  0  0  0  0  0  0
  1  2  1  0
  1 21  1  0
  1 22  1  0
  1 23  1  0
  2  3  1  0
  3  4  1  0
  3 24  1  0
  3 25  1  0
  4  5  1  0
  4 26  1  0
  4 27  1  0
  5 20  1  0
  5  6  1  0
  5 49  1  6
  6  7  1  0
  6 28  1  0
  6 29  1  0
  7  8  1  0
  7 30  1  0
  7 31  1  0
  8  9  1  0
  9 19  1  0
  9 10  1  0
  9 32  1  1
 10 11  1  0
 10 33  1  0
 10 34  1  0
 11 12  1  0
 11 18  1  0
 12 17  1  0
 12 13  1  0
 12 35  1  0
 13 14  1  0
 13 36  1  0
 13 37  1  0
 14 15  1  0
 14 38  1  0
 14 39  1  0
 15 16  1  0
 16 17  1  0
 16 40  1  0
 16 41  1  0
 17 42  1  0
 17 43  1  0
 18 19  1  0
 18 44  1  0
 18 45  1  0
 19 20  1  0
 19 46  1  1
 20 47  1  0
 20 48  1  0
M  CHG  1   5   1
M  END
>  <i_m_ct_stereo_status>  (124) 
1

>  <s_m_source_file>  (124) 
/var/tmp/pbs.5076255.sched01/tmp1pob34vh/39rbzpz6sd.sdf

>  <i_m_source_file_index>  (124) 
24

>  <i_lp_mmshare_version>  (124) 
48012

>  <i_f3d_flags>  (124) 
0

>  <s_epik_input>  (124) 
W0NIM11PW0NIMl1bQ0gyXU4oW0NIMl1bQ0gyXU8xKVtDSDJdW0NAQEhdKFtDQEBIXTEyKVtDSDJdTihbQ0gyXTIpW0NIXTNbQ0gyXVtDSDJdT1tDSDJdW0NIMl0z

>  <s_epik_cmdline>  (124) 
J2VwaWtfcHl0aG9uJywgJy1waHQnLCAnMi4wJywgJy1waCcsICc3LjAnLCAnLXRuJywgJzgnLCAnLW1hJywgJzIwMCcsICctaW1hZScsICc8aW5maWxlLm1hZT4nLCAnLW9tYWUnLCAnPG91dGZpbGUubWFlPic=

>  <r_epik_Ionization_Penalty>  (124) 
1.03617

>  <r_epik_Ionization_Penalty_Charging>  (124) 
0.0743138

>  <r_epik_Ionization_Penalty_Neutral>  (124) 
0.961853

>  <r_epik_State_Penalty>  (124) 
1.5433

>  <r_epik_Charging_Adjusted_Penalty>  (124) 
1.61761

>  <i_epik_Tot_Q>  (124) 
1

>  <i_epik_Tot_abs_Q>  (124) 
1

>  <s_lp_Force_Field>  (124) 
OPLS3e

>  <r_lp_Energy>  (124) 
29.8586

>  <b_lp_Chiralities_Consistent>  (124) 
1

>  <s_lp_Variant>  (124) 
41:0-3

>  <s_i_glide_gridfile>  (124) 
pfpi4k_grid

>  <i_i_glide_lignum>  (124) 
24

>  <i_i_glide_rotatable_bonds>  (124) 
4

>  <r_i_docking_score>  (124) 
-2.61709

>  <r_i_glide_ligand_efficiency>  (124) 
-0.130854

>  <r_i_glide_ligand_efficiency_sa>  (124) 
-0.355193

>  <r_i_glide_ligand_efficiency_ln>  (124) 
-0.654971

>  <r_i_glide_gscore>  (124) 
-2.61709

>  <r_i_glide_lipo>  (124) 
-0.362377

>  <r_i_glide_hbond>  (124) 
0

>  <r_i_glide_metal>  (124) 
-0

>  <r_i_glide_rewards>  (124) 
-1.46317

>  <r_i_glide_evdw>  (124) 
-15.5079

>  <r_i_glide_ecoul>  (124) 
-4.38842

>  <r_i_glide_erotb>  (124) 
0.668214

>  <r_i_glide_esite>  (124) 
-0.0261018

>  <r_i_glide_emodel>  (124) 
-24.2467

>  <r_i_glide_energy>  (124) 
-19.8963

>  <r_i_glide_einternal>  (124) 
1.56805

>  <r_i_glide_intrahb_reward>  (124) 
-0

>  <i_i_glide_confnum>  (124) 
3

>  <i_i_glide_posenum>  (124) 
26

>  <r_i_glide_eff_state_penalty>  (124) 
0

>  <ligand_id>  (124) 
41

>  <original_smiles>  (124) 
COCCN1CCOC2CN(C3CCOCC3)CC2C1

>  <smiles>  (124) 
[H]C([H])([H])OC([H])([H])C([H])([H])[N+]1([H])C([H])([H])C([H])([H])OC2([H])C([H])([H])N(C3([H])C([H])([H])C([H])([H])OC([H])([H])C3([H])[H])C([H])([H])C2([H])C1([H])[H]

$$$$
41:2:2
     RDKit          3D

 49 51  0  0  1  0  0  0  0  0999 V2000
   -0.5734   -9.9305    2.8680 C   0  0  0  0  0  0  0  0  0  0  0  0
    0.2966   -8.8222    2.6662 O   0  0  0  0  0  0  0  0  0  0  0  0
    1.6243   -9.2309    2.3748 C   0  0  0  0  0  0  0  0  0  0  0  0
    2.5064   -7.9915    2.1503 C   0  0  0  0  0  0  0  0  0  0  0  0
    3.9311   -8.3612    1.9216 N   0  0  2  0  0  0  0  0  0  0  0  0
    4.7492   -8.5115    3.1552 C   0  0  0  0  0  0  0  0  0  0  0  0
    5.0909   -7.1946    3.8800 C   0  0  0  0  0  0  0  0  0  0  0  0
    5.8448   -6.3140    3.0640 O   0  0  0  0  0  0  0  0  0  0  0  0
    5.0543   -5.4542    2.2638 C   0  0  1  0  0  0  0  0  0  0  0  0
    5.9365   -4.2781    1.8346 C   0  0  0  0  0  0  0  0  0  0  0  0
    5.6679   -4.0444    0.4295 N   0  0  0  0  0  0  0  0  0  0  0  0
    6.6834   -3.2357   -0.2574 C   0  0  0  0  0  0  0  0  0  0  0  0
    6.8433   -1.8321    0.3691 C   0  0  0  0  0  0  0  0  0  0  0  0
    5.6124   -0.9618    0.0668 C   0  0  0  0  0  0  0  0  0  0  0  0
    5.4149   -0.8662   -1.3416 O   0  0  0  0  0  0  0  0  0  0  0  0
    5.1690   -2.1269   -1.9547 C   0  0  0  0  0  0  0  0  0  0  0  0
    6.3875   -3.0413   -1.7614 C   0  0  0  0  0  0  0  0  0  0  0  0
    5.4594   -5.3776   -0.0896 C   0  0  0  0  0  0  0  0  0  0  0  0
    4.5844   -6.0871    0.9413 C   0  0  1  0  0  0  0  0  0  0  0  0
    4.6453   -7.6263    0.8431 C   0  0  0  0  0  0  0  0  0  0  0  0
   -1.5645   -9.5821    3.1738 H   0  0  0  0  0  0  0  0  0  0  0  0
   -0.1902  -10.5928    3.6505 H   0  0  0  0  0  0  0  0  0  0  0  0
   -0.6882  -10.5122    1.9482 H   0  0  0  0  0  0  0  0  0  0  0  0
    2.0040   -9.8349    3.1972 H   0  0  0  0  0  0  0  0  0  0  0  0
    1.6338   -9.8556    1.4831 H   0  0  0  0  0  0  0  0  0  0  0  0
    2.1039   -7.4586    1.2873 H   0  0  0  0  0  0  0  0  0  0  0  0
    2.4105   -7.3053    2.9989 H   0  0  0  0  0  0  0  0  0  0  0  0
    4.2236   -9.1641    3.8569 H   0  0  0  0  0  0  0  0  0  0  0  0
    5.6796   -9.0250    2.9024 H   0  0  0  0  0  0  0  0  0  0  0  0
    4.2177   -6.7040    4.3000 H   0  0  0  0  0  0  0  0  0  0  0  0
    5.7338   -7.4474    4.7281 H   0  0  0  0  0  0  0  0  0  0  0  0
    4.1935   -5.0665    2.8093 H   0  0  0  0  0  0  0  0  0  0  0  0
    5.7061   -3.3966    2.4338 H   0  0  0  0  0  0  0  0  0  0  0  0
    6.9904   -4.5344    1.9927 H   0  0  0  0  0  0  0  0  0  0  0  0
    7.6453   -3.7509   -0.1735 H   0  0  0  0  0  0  0  0  0  0  0  0
    7.0054   -1.8729    1.4467 H   0  0  0  0  0  0  0  0  0  0  0  0
    7.7392   -1.3620   -0.0348 H   0  0  0  0  0  0  0  0  0  0  0  0
    4.7282   -1.3884    0.5420 H   0  0  0  0  0  0  0  0  0  0  0  0
    5.7448    0.0368    0.4814 H   0  0  0  0  0  0  0  0  0  0  0  0
    4.2779   -2.5873   -1.5249 H   0  0  0  0  0  0  0  0  0  0  0  0
    4.9718   -1.9803   -3.0172 H   0  0  0  0  0  0  0  0  0  0  0  0
    7.2582   -2.5975   -2.2446 H   0  0  0  0  0  0  0  0  0  0  0  0
    6.2132   -3.9798   -2.2867 H   0  0  0  0  0  0  0  0  0  0  0  0
    4.9692   -5.3659   -1.0630 H   0  0  0  0  0  0  0  0  0  0  0  0
    6.4194   -5.8888   -0.1866 H   0  0  0  0  0  0  0  0  0  0  0  0
    3.5638   -5.7507    0.7599 H   0  0  0  0  0  0  0  0  0  0  0  0
    5.6889   -7.9524    0.8375 H   0  0  0  0  0  0  0  0  0  0  0  0
    4.2237   -7.9280   -0.1164 H   0  0  0  0  0  0  0  0  0  0  0  0
    3.8852   -9.3001    1.5534 H   0  0  0  0  0  0  0  0  0  0  0  0
  1  2  1  0
  1 21  1  0
  1 22  1  0
  1 23  1  0
  2  3  1  0
  3  4  1  0
  3 24  1  0
  3 25  1  0
  4  5  1  0
  4 26  1  0
  4 27  1  0
  5 20  1  0
  5  6  1  0
  5 49  1  6
  6  7  1  0
  6 28  1  0
  6 29  1  0
  7  8  1  0
  7 30  1  0
  7 31  1  0
  8  9  1  0
  9 19  1  0
  9 10  1  0
  9 32  1  1
 10 11  1  0
 10 33  1  0
 10 34  1  0
 11 12  1  0
 11 18  1  0
 12 17  1  0
 12 13  1  0
 12 35  1  0
 13 14  1  0
 13 36  1  0
 13 37  1  0
 14 15  1  0
 14 38  1  0
 14 39  1  0
 15 16  1  0
 16 17  1  0
 16 40  1  0
 16 41  1  0
 17 42  1  0
 17 43  1  0
 18 19  1  0
 18 44  1  0
 18 45  1  0
 19 20  1  0
 19 46  1  6
 20 47  1  0
 20 48  1  0
M  CHG  1   5   1
M  END
>  <i_m_ct_stereo_status>  (125) 
1

>  <s_m_source_file>  (125) 
/var/tmp/pbs.5076255.sched01/tmp1pob34vh/39rbzpz6sd.sdf

>  <i_m_source_file_index>  (125) 
24

>  <i_lp_mmshare_version>  (125) 
48012

>  <i_f3d_flags>  (125) 
0

>  <s_epik_input>  (125) 
W0NIM11PW0NIMl1bQ0gyXU4oW0NIMl1bQ0gyXU8xKVtDSDJdW0NAQEhdKFtDQEBIXTEyKVtDSDJdTihbQ0gyXTIpW0NIXTNbQ0gyXVtDSDJdT1tDSDJdW0NIMl0z

>  <s_epik_cmdline>  (125) 
J2VwaWtfcHl0aG9uJywgJy1waHQnLCAnMi4wJywgJy1waCcsICc3LjAnLCAnLXRuJywgJzgnLCAnLW1hJywgJzIwMCcsICctaW1hZScsICc8aW5maWxlLm1hZT4nLCAnLW9tYWUnLCAnPG91dGZpbGUubWFlPic=

>  <r_epik_Ionization_Penalty>  (125) 
1.03617

>  <r_epik_Ionization_Penalty_Charging>  (125) 
0.0743138

>  <r_epik_Ionization_Penalty_Neutral>  (125) 
0.961853

>  <r_epik_State_Penalty>  (125) 
1.5433

>  <r_epik_Charging_Adjusted_Penalty>  (125) 
1.61761

>  <i_epik_Tot_Q>  (125) 
1

>  <i_epik_Tot_abs_Q>  (125) 
1

>  <s_lp_Force_Field>  (125) 
OPLS3e

>  <r_lp_Energy>  (125) 
29.8586

>  <b_lp_Chiralities_Consistent>  (125) 
1

>  <s_lp_Variant>  (125) 
41:0-3

>  <s_i_glide_gridfile>  (125) 
pfpi4k_grid

>  <i_i_glide_lignum>  (125) 
24

>  <i_i_glide_rotatable_bonds>  (125) 
4

>  <r_i_docking_score>  (125) 
-2.60273

>  <r_i_glide_ligand_efficiency>  (125) 
-0.130137

>  <r_i_glide_ligand_efficiency_sa>  (125) 
-0.353245

>  <r_i_glide_ligand_efficiency_ln>  (125) 
-0.651378

>  <r_i_glide_gscore>  (125) 
-2.60273

>  <r_i_glide_lipo>  (125) 
-0.488836

>  <r_i_glide_hbond>  (125) 
-0.00818668

>  <r_i_glide_metal>  (125) 
-0

>  <r_i_glide_rewards>  (125) 
-1.46317

>  <r_i_glide_evdw>  (125) 
-19.0866

>  <r_i_glide_ecoul>  (125) 
-2.29886

>  <r_i_glide_erotb>  (125) 
0.668214

>  <r_i_glide_esite>  (125) 
-0.0115977

>  <r_i_glide_emodel>  (125) 
-25.496

>  <r_i_glide_energy>  (125) 
-21.3855

>  <r_i_glide_einternal>  (125) 
1.87338

>  <r_i_glide_intrahb_reward>  (125) 
-0

>  <i_i_glide_confnum>  (125) 
4

>  <i_i_glide_posenum>  (125) 
14

>  <r_i_glide_eff_state_penalty>  (125) 
0

>  <ligand_id>  (125) 
41

>  <original_smiles>  (125) 
COCCN1CCOC2CN(C3CCOCC3)CC2C1

>  <smiles>  (125) 
[H]C([H])([H])OC([H])([H])C([H])([H])[N+]1([H])C([H])([H])C([H])([H])OC2([H])C([H])([H])N(C3([H])C([H])([H])C([H])([H])OC([H])([H])C3([H])[H])C([H])([H])C2([H])C1([H])[H]

$$$$
42:0:0
     RDKit          3D

 81 87  0  0  1  0  0  0  0  0999 V2000
    3.9673   -2.5517    1.6905 C   0  0  0  0  0  0  0  0  0  0  0  0
    5.1851   -3.4755    1.7767 C   0  0  0  0  0  0  0  0  0  0  0  0
    6.2723   -3.2820    0.9850 C   0  0  0  0  0  0  0  0  0  0  0  0
    7.4509   -4.1222    0.9388 C   0  0  0  0  0  0  0  0  0  0  0  0
    8.4077   -3.4800    0.2965 C   0  0  0  0  0  0  0  0  0  0  0  0
    8.0119   -2.1061   -0.1558 C   0  0  0  0  0  0  0  0  0  0  0  0
    6.4571   -2.1251    0.0027 C   0  0  1  0  0  0  0  0  0  0  0  0
    5.7470   -2.3566   -1.3695 C   0  0  2  0  0  0  0  0  0  0  0  0
    4.9753   -1.1235   -1.8857 C   0  0  0  0  0  0  0  0  0  0  0  0
    3.9241   -1.6474   -2.8817 C   0  0  0  0  0  0  0  0  0  0  0  0
    3.8755   -3.1720   -2.6963 C   0  0  1  0  0  0  0  0  0  0  0  0
    4.4045   -3.8575   -3.8224 O   0  0  0  0  0  0  0  0  0  0  0  0
    4.7126   -3.4942   -1.4721 C   0  0  0  0  0  0  0  0  0  0  0  0
    7.5658   -5.5511    1.4450 C   0  0  0  0  0  0  0  0  0  0  0  0
    6.3125   -6.3825    1.1541 C   0  0  0  0  0  0  0  0  0  0  0  0
    5.0047   -6.0092    1.9125 C   0  0  1  0  0  0  0  0  0  0  0  0
    4.4687   -7.2647    2.6621 C   0  0  0  0  0  0  0  0  0  0  0  0
    3.3863   -6.9845    3.7178 C   0  0  0  0  0  0  0  0  0  0  0  0
    3.8502   -5.8820    4.6811 C   0  0  1  0  0  0  0  0  0  0  0  0
    5.2083   -6.2929    5.3320 C   0  0  0  0  0  0  0  0  0  0  0  0
    3.9799   -4.5937    3.8323 C   0  0  1  0  0  0  0  0  0  0  0  0
    4.0019   -3.4717    4.8916 C   0  0  0  0  0  0  0  0  0  0  0  0
    2.8388   -3.9123    5.7801 C   0  0  2  0  0  0  0  0  0  0  0  0
    2.7092   -3.3205    7.1958 C   0  0  0  0  0  0  0  0  0  0  0  0
    1.8351   -4.2194    8.1038 C   0  0  0  0  0  0  0  0  0  0  0  0
    0.8285   -5.1108    7.2992 C   0  0  1  0  0  0  0  0  0  0  0  0
   -0.0945   -5.8694    8.2792 C   0  0  0  0  0  0  0  0  0  0  0  0
   -1.2661   -4.9286    8.5054 C   0  0  0  0  0  0  0  0  0  0  0  0
   -1.2567   -4.1151    7.2459 C   0  0  0  0  0  0  0  0  0  0  0  0
   -2.2355   -3.4616    6.8649 O   0  0  0  0  0  0  0  0  0  0  0  0
   -0.0754   -4.2184    6.6553 O   0  0  0  0  0  0  0  0  0  0  0  0
    1.5150   -6.0382    6.2341 C   0  0  1  0  0  0  0  0  0  0  0  0
    0.5594   -6.3715    5.0431 C   0  0  0  0  0  0  0  0  0  0  0  0
    2.9117   -5.4436    5.8475 C   0  0  1  0  0  0  0  0  0  0  0  0
    5.1031   -4.6735    2.7493 C   0  0  2  0  0  0  0  0  0  0  0  0
    3.8188   -1.9423    2.5602 H   0  0  0  0  0  0  0  0  0  0  0  0
    3.0679   -3.1408    1.4964 H   0  0  0  0  0  0  0  0  0  0  0  0
    4.0502   -1.8458    0.8591 H   0  0  0  0  0  0  0  0  0  0  0  0
    9.4071   -3.8648    0.0964 H   0  0  0  0  0  0  0  0  0  0  0  0
    8.4705   -1.3728    0.5108 H   0  0  0  0  0  0  0  0  0  0  0  0
    8.3616   -1.9129   -1.1607 H   0  0  0  0  0  0  0  0  0  0  0  0
    6.1465   -1.1959    0.4757 H   0  0  0  0  0  0  0  0  0  0  0  0
    6.5053   -2.5944   -2.1166 H   0  0  0  0  0  0  0  0  0  0  0  0
    4.4777   -0.5998   -1.0670 H   0  0  0  0  0  0  0  0  0  0  0  0
    5.6457   -0.3960   -2.3414 H   0  0  0  0  0  0  0  0  0  0  0  0
    2.9535   -1.2047   -2.6478 H   0  0  0  0  0  0  0  0  0  0  0  0
    4.1724   -1.3827   -3.9064 H   0  0  0  0  0  0  0  0  0  0  0  0
    2.8507   -3.5175   -2.5533 H   0  0  0  0  0  0  0  0  0  0  0  0
    4.3420   -4.7589   -3.6046 H   0  0  0  0  0  0  0  0  0  0  0  0
    5.1940   -4.4855   -1.5093 H   0  0  0  0  0  0  0  0  0  0  0  0
    3.9992   -3.4902   -0.6405 H   0  0  0  0  0  0  0  0  0  0  0  0
    8.4045   -6.0185    0.9196 H   0  0  0  0  0  0  0  0  0  0  0  0
    7.8515   -5.5719    2.4976 H   0  0  0  0  0  0  0  0  0  0  0  0
    6.1088   -6.3303    0.0861 H   0  0  0  0  0  0  0  0  0  0  0  0
    6.5621   -7.4246    1.3476 H   0  0  0  0  0  0  0  0  0  0  0  0
    4.2568   -5.8148    1.1441 H   0  0  0  0  0  0  0  0  0  0  0  0
    4.0490   -7.9589    1.9287 H   0  0  0  0  0  0  0  0  0  0  0  0
    5.2809   -7.8211    3.1236 H   0  0  0  0  0  0  0  0  0  0  0  0
    2.4876   -6.6765    3.1866 H   0  0  0  0  0  0  0  0  0  0  0  0
    3.1363   -7.8938    4.2617 H   0  0  0  0  0  0  0  0  0  0  0  0
    5.5718   -5.5386    6.0310 H   0  0  0  0  0  0  0  0  0  0  0  0
    6.0182   -6.4438    4.6187 H   0  0  0  0  0  0  0  0  0  0  0  0
    5.0952   -7.2249    5.8880 H   0  0  0  0  0  0  0  0  0  0  0  0
    3.0421   -4.4806    3.2876 H   0  0  0  0  0  0  0  0  0  0  0  0
    4.9420   -3.4436    5.4317 H   0  0  0  0  0  0  0  0  0  0  0  0
    3.8083   -2.4736    4.5187 H   0  0  0  0  0  0  0  0  0  0  0  0
    1.9383   -3.6472    5.2333 H   0  0  0  0  0  0  0  0  0  0  0  0
    3.6850   -3.1677    7.6609 H   0  0  0  0  0  0  0  0  0  0  0  0
    2.2523   -2.3250    7.1241 H   0  0  0  0  0  0  0  0  0  0  0  0
    2.4872   -4.8846    8.6731 H   0  0  0  0  0  0  0  0  0  0  0  0
    1.3178   -3.6129    8.8296 H   0  0  0  0  0  0  0  0  0  0  0  0
   -0.4611   -6.8055    7.8437 H   0  0  0  0  0  0  0  0  0  0  0  0
    0.4099   -6.1196    9.2072 H   0  0  0  0  0  0  0  0  0  0  0  0
   -2.2284   -5.4169    8.5665 H   0  0  0  0  0  0  0  0  0  0  0  0
   -1.1172   -4.2824    9.3738 H   0  0  0  0  0  0  0  0  0  0  0  0
    1.7247   -6.9985    6.7184 H   0  0  0  0  0  0  0  0  0  0  0  0
    0.5137   -5.5582    4.3317 H   0  0  0  0  0  0  0  0  0  0  0  0
   -0.4464   -6.5584    5.4042 H   0  0  0  0  0  0  0  0  0  0  0  0
    0.8629   -7.2765    4.5328 H   0  0  0  0  0  0  0  0  0  0  0  0
    3.4857   -5.6656    6.7482 H   0  0  0  0  0  0  0  0  0  0  0  0
    6.0358   -4.6677    3.3080 H   0  0  0  0  0  0  0  0  0  0  0  0
  1  2  1  0
  1 36  1  0
  1 37  1  0
  1 38  1  0
  2 35  1  0
  2  3  2  0
  3  7  1  0
  3  4  1  0
  4  5  2  0
  4 14  1  0
  5  6  1  0
  5 39  1  0
  6  7  1  0
  6 40  1  0
  6 41  1  0
  7  8  1  0
  7 42  1  1
  8 13  1  0
  8  9  1  0
  8 43  1  6
  9 10  1  0
  9 44  1  0
  9 45  1  0
 10 11  1  0
 10 46  1  0
 10 47  1  0
 11 12  1  0
 11 13  1  0
 11 48  1  1
 12 49  1  0
 13 50  1  0
 13 51  1  0
 14 15  1  0
 14 52  1  0
 14 53  1  0
 15 16  1  0
 15 54  1  0
 15 55  1  0
 16 35  1  0
 16 17  1  0
 16 56  1  6
 17 18  1  0
 17 57  1  0
 17 58  1  0
 18 19  1  0
 18 59  1  0
 18 60  1  0
 19 34  1  0
 19 20  1  1
 19 21  1  0
 20 61  1  0
 20 62  1  0
 20 63  1  0
 21 22  1  0
 21 35  1  0
 21 64  1  6
 22 23  1  0
 22 65  1  0
 22 66  1  0
 23 34  1  0
 23 24  1  0
 23 67  1  6
 24 25  1  0
 24 68  1  0
 24 69  1  0
 25 26  1  0
 25 70  1  0
 25 71  1  0
 26 31  1  6
 26 27  1  0
 26 32  1  0
 27 28  1  0
 27 72  1  0
 27 73  1  0
 28 29  1  0
 28 74  1  0
 28 75  1  0
 29 30  2  0
 29 31  1  0
 32 33  1  0
 32 34  1  0
 32 76  1  1
 33 77  1  0
 33 78  1  0
 33 79  1  0
 34 80  1  1
 35 81  1  1
M  END
>  <i_m_ct_stereo_status>  (126) 
1

>  <s_m_source_file>  (126) 
/var/tmp/pbs.5076255.sched01/tmp1pob34vh/39rbzpz6sd.sdf

>  <i_m_source_file_index>  (126) 
25

>  <i_lp_mmshare_version>  (126) 
48012

>  <i_f3d_flags>  (126) 
0

>  <s_epik_input>  (126) 
W09IXVtDQEBIXShbQ0gyXTEpW0NIMl1bQ0gyXVtDQEhdMVtDQEhdKFtDSDJdW0NIXTIpQyg9QzNbQ0gzXSlDPTJbQ0gyXVtDSDJdW0NAQEhdKFtDSDJdW0NIMl00KVtDQEBIXTNbQ0BIXShbQ0gyXTUpW0NAQF00KFtDSDNdKVtDQEhdKFtDQEBIXTZbQ0gzXSlbQ0BIXTVbQ0gyXVtDSDJdW0NAXTY3W0NIMl1bQ0gyXUMoPU8pTzc=

>  <s_epik_cmdline>  (126) 
J2VwaWtfcHl0aG9uJywgJy1waHQnLCAnMi4wJywgJy1waCcsICc3LjAnLCAnLXRuJywgJzgnLCAnLW1hJywgJzIwMCcsICctaW1hZScsICc8aW5maWxlLm1hZT4nLCAnLW9tYWUnLCAnPG91dGZpbGUubWFlPic=

>  <r_lp_tautomer_probability>  (126) 
1

>  <r_epik_Ionization_Penalty>  (126) 
1.81371e-06

>  <r_epik_Ionization_Penalty_Charging>  (126) 
0

>  <r_epik_Ionization_Penalty_Neutral>  (126) 
1.81371e-06

>  <r_epik_State_Penalty>  (126) 
-0

>  <r_epik_Charging_Adjusted_Penalty>  (126) 
0

>  <i_epik_Tot_Q>  (126) 
0

>  <i_epik_Tot_abs_Q>  (126) 
0

>  <s_epik_Chemistry_Notes>  (126) 
This compound has an ester and may undergo hydrolysis at high or low pH.

>  <s_lp_Force_Field>  (126) 
OPLS3e

>  <r_lp_Energy>  (126) 
74.0339

>  <b_lp_Chiralities_Consistent>  (126) 
1

>  <s_lp_Variant>  (126) 
42:0-1

>  <s_i_glide_gridfile>  (126) 
pfpi4k_grid

>  <i_i_glide_lignum>  (126) 
25

>  <i_i_glide_rotatable_bonds>  (126) 
2

>  <r_i_docking_score>  (126) 
-3.26838

>  <r_i_glide_ligand_efficiency>  (126) 
-0.0933822

>  <r_i_glide_ligand_efficiency_sa>  (126) 
-0.305459

>  <r_i_glide_ligand_efficiency_ln>  (126) 
-0.717481

>  <r_i_glide_gscore>  (126) 
-3.26838

>  <r_i_glide_lipo>  (126) 
-0.668221

>  <r_i_glide_hbond>  (126) 
-0.220638

>  <r_i_glide_metal>  (126) 
-0

>  <r_i_glide_rewards>  (126) 
-0.145187

>  <r_i_glide_evdw>  (126) 
-32.6527

>  <r_i_glide_ecoul>  (126) 
-4.51514

>  <r_i_glide_erotb>  (126) 
0.0884381

>  <r_i_glide_esite>  (126) 
-0.0128613

>  <r_i_glide_emodel>  (126) 
-42.8121

>  <r_i_glide_energy>  (126) 
-37.1679

>  <r_i_glide_einternal>  (126) 
4.64744

>  <r_i_glide_intrahb_reward>  (126) 
-0

>  <i_i_glide_confnum>  (126) 
6

>  <i_i_glide_posenum>  (126) 
5

>  <r_i_glide_eff_state_penalty>  (126) 
0

>  <ligand_id>  (126) 
42

>  <original_smiles>  (126) 
CC1=C2C(=CCC2C2CCC(O)C2)CCC2CCC3(C)C(CC4CCC5(CCC(=O)O5)C(C)C43)C12

>  <smiles>  (126) 
[H]OC1([H])C([H])([H])C([H])([H])C([H])(C2([H])C3=C(C([H])([H])[H])C4([H])C([H])(C([H])([H])C([H])([H])C3=C([H])C2([H])[H])C([H])([H])C([H])([H])C2(C([H])([H])[H])C4([H])C([H])([H])C3([H])C([H])([H])C([H])([H])C4(OC(=O)C([H])([H])C4([H])[H])C([H])(C([H])([H])[H])C32[H])C1([H])[H]

$$$$
42:0:1
     RDKit          3D

 81 87  0  0  1  0  0  0  0  0999 V2000
    2.9661    0.1121    1.7233 C   0  0  0  0  0  0  0  0  0  0  0  0
    3.5412   -1.2184    2.2028 C   0  0  0  0  0  0  0  0  0  0  0  0
    4.4480   -1.8977    1.4458 C   0  0  0  0  0  0  0  0  0  0  0  0
    5.0070   -3.1884    1.7776 C   0  0  0  0  0  0  0  0  0  0  0  0
    6.0627   -3.4148    0.9908 C   0  0  0  0  0  0  0  0  0  0  0  0
    6.3529   -2.2718    0.0467 C   0  0  0  0  0  0  0  0  0  0  0  0
    5.0611   -1.4167    0.1394 C   0  0  1  0  0  0  0  0  0  0  0  0
    4.1117   -1.6002   -1.0853 C   0  0  2  0  0  0  0  0  0  0  0  0
    3.6863   -3.0385   -1.4396 C   0  0  0  0  0  0  0  0  0  0  0  0
    3.3013   -2.9704   -2.9202 C   0  0  0  0  0  0  0  0  0  0  0  0
    4.3118   -1.9903   -3.5110 C   0  0  1  0  0  0  0  0  0  0  0  0
    3.8122   -1.3292   -4.6556 O   0  0  0  0  0  0  0  0  0  0  0  0
    4.6741   -1.0120   -2.3831 C   0  0  0  0  0  0  0  0  0  0  0  0
    4.4420   -4.2058    2.7546 C   0  0  0  0  0  0  0  0  0  0  0  0
    2.9024   -4.2761    2.7235 C   0  0  0  0  0  0  0  0  0  0  0  0
    2.1201   -3.0339    3.2484 C   0  0  1  0  0  0  0  0  0  0  0  0
    1.1474   -3.4784    4.3816 C   0  0  0  0  0  0  0  0  0  0  0  0
    0.5553   -2.3345    5.2198 C   0  0  0  0  0  0  0  0  0  0  0  0
    1.6648   -1.4150    5.7409 C   0  0  1  0  0  0  0  0  0  0  0  0
    2.6991   -2.2606    6.5533 C   0  0  0  0  0  0  0  0  0  0  0  0
    2.3053   -0.7584    4.4903 C   0  0  1  0  0  0  0  0  0  0  0  0
    3.0706    0.4448    5.0848 C   0  0  0  0  0  0  0  0  0  0  0  0
    2.0090    1.0130    6.0317 C   0  0  2  0  0  0  0  0  0  0  0  0
    2.4392    1.9976    7.1378 C   0  0  0  0  0  0  0  0  0  0  0  0
    1.3737    2.0609    8.2628 C   0  0  0  0  0  0  0  0  0  0  0  0
   -0.0633    1.6751    7.7931 C   0  0  1  0  0  0  0  0  0  0  0  0
   -1.0744    1.8877    8.9402 C   0  0  0  0  0  0  0  0  0  0  0  0
   -2.3130    2.4692    8.2805 C   0  0  0  0  0  0  0  0  0  0  0  0
   -1.7427    3.0720    7.0097 C   0  0  0  0  0  0  0  0  0  0  0  0
   -2.3926    3.7489    6.2246 O   0  0  0  0  0  0  0  0  0  0  0  0
   -0.4758    2.6723    6.8615 O   0  0  0  0  0  0  0  0  0  0  0  0
   -0.1336    0.2228    7.1396 C   0  0  1  0  0  0  0  0  0  0  0  0
   -1.2752    0.0503    6.0930 C   0  0  0  0  0  0  0  0  0  0  0  0
    1.2921   -0.1867    6.6457 C   0  0  1  0  0  0  0  0  0  0  0  0
    3.0230   -1.7814    3.5439 C   0  0  2  0  0  0  0  0  0  0  0  0
    3.3073    0.9412    2.3320 H   0  0  0  0  0  0  0  0  0  0  0  0
    1.8758    0.0865    1.7108 H   0  0  0  0  0  0  0  0  0  0  0  0
    3.2809    0.3625    0.7162 H   0  0  0  0  0  0  0  0  0  0  0  0
    6.6707   -4.3098    1.0013 H   0  0  0  0  0  0  0  0  0  0  0  0
    7.2189   -1.7293    0.4286 H   0  0  0  0  0  0  0  0  0  0  0  0
    6.5847   -2.6303   -0.9548 H   0  0  0  0  0  0  0  0  0  0  0  0
    5.3416   -0.3681    0.2400 H   0  0  0  0  0  0  0  0  0  0  0  0
    3.1822   -1.0614   -0.8990 H   0  0  0  0  0  0  0  0  0  0  0  0
    4.5076   -3.7462   -1.3196 H   0  0  0  0  0  0  0  0  0  0  0  0
    2.8578   -3.3755   -0.8151 H   0  0  0  0  0  0  0  0  0  0  0  0
    3.3433   -3.9381   -3.4195 H   0  0  0  0  0  0  0  0  0  0  0  0
    2.2832   -2.5868   -3.0139 H   0  0  0  0  0  0  0  0  0  0  0  0
    5.2035   -2.5566   -3.7893 H   0  0  0  0  0  0  0  0  0  0  0  0
    3.0022   -0.8985   -4.4252 H   0  0  0  0  0  0  0  0  0  0  0  0
    4.2732   -0.0089   -2.5493 H   0  0  0  0  0  0  0  0  0  0  0  0
    5.7574   -0.9120   -2.3175 H   0  0  0  0  0  0  0  0  0  0  0  0
    4.8234   -5.1858    2.4639 H   0  0  0  0  0  0  0  0  0  0  0  0
    4.8293   -4.0356    3.7589 H   0  0  0  0  0  0  0  0  0  0  0  0
    2.5804   -4.5004    1.7073 H   0  0  0  0  0  0  0  0  0  0  0  0
    2.6149   -5.1553    3.3010 H   0  0  0  0  0  0  0  0  0  0  0  0
    1.4610   -2.7226    2.4372 H   0  0  0  0  0  0  0  0  0  0  0  0
    0.3150   -4.0185    3.9312 H   0  0  0  0  0  0  0  0  0  0  0  0
    1.6172   -4.2015    5.0466 H   0  0  0  0  0  0  0  0  0  0  0  0
   -0.1208   -1.7845    4.5682 H   0  0  0  0  0  0  0  0  0  0  0  0
   -0.0413   -2.7307    6.0416 H   0  0  0  0  0  0  0  0  0  0  0  0
    3.5072   -1.6469    6.9543 H   0  0  0  0  0  0  0  0  0  0  0  0
    3.1890   -3.0443    5.9733 H   0  0  0  0  0  0  0  0  0  0  0  0
    2.2113   -2.7478    7.4008 H   0  0  0  0  0  0  0  0  0  0  0  0
    1.4866   -0.3313    3.9087 H   0  0  0  0  0  0  0  0  0  0  0  0
    3.9664    0.1317    5.6204 H   0  0  0  0  0  0  0  0  0  0  0  0
    3.3681    1.2047    4.3669 H   0  0  0  0  0  0  0  0  0  0  0  0
    1.2996    1.5358    5.3932 H   0  0  0  0  0  0  0  0  0  0  0  0
    3.4110    1.7392    7.5589 H   0  0  0  0  0  0  0  0  0  0  0  0
    2.5515    2.9910    6.7036 H   0  0  0  0  0  0  0  0  0  0  0  0
    1.6685    1.3802    9.0666 H   0  0  0  0  0  0  0  0  0  0  0  0
    1.3795    3.0572    8.7094 H   0  0  0  0  0  0  0  0  0  0  0  0
   -1.2632    0.9816    9.5151 H   0  0  0  0  0  0  0  0  0  0  0  0
   -0.7052    2.6323    9.6465 H   0  0  0  0  0  0  0  0  0  0  0  0
   -2.9890    1.6708    8.0049 H   0  0  0  0  0  0  0  0  0  0  0  0
   -2.8392    3.1951    8.9029 H   0  0  0  0  0  0  0  0  0  0  0  0
   -0.3562   -0.4762    7.9447 H   0  0  0  0  0  0  0  0  0  0  0  0
   -1.0147    0.4978    5.1327 H   0  0  0  0  0  0  0  0  0  0  0  0
   -2.2109    0.4994    6.4133 H   0  0  0  0  0  0  0  0  0  0  0  0
   -1.5408   -0.9939    5.9383 H   0  0  0  0  0  0  0  0  0  0  0  0
    1.8053   -0.3898    7.5839 H   0  0  0  0  0  0  0  0  0  0  0  0
    3.9107   -2.0858    4.0930 H   0  0  0  0  0  0  0  0  0  0  0  0
  1  2  1  0
  1 36  1  0
  1 37  1  0
  1 38  1  0
  2 35  1  0
  2  3  2  0
  3  7  1  0
  3  4  1  0
  4  5  2  0
  4 14  1  0
  5  6  1  0
  5 39  1  0
  6  7  1  0
  6 40  1  0
  6 41  1  0
  7  8  1  0
  7 42  1  1
  8 13  1  0
  8  9  1  0
  8 43  1  1
  9 10  1  0
  9 44  1  0
  9 45  1  0
 10 11  1  0
 10 46  1  0
 10 47  1  0
 11 12  1  0
 11 13  1  0
 11 48  1  6
 12 49  1  0
 13 50  1  0
 13 51  1  0
 14 15  1  0
 14 52  1  0
 14 53  1  0
 15 16  1  0
 15 54  1  0
 15 55  1  0
 16 35  1  0
 16 17  1  0
 16 56  1  6
 17 18  1  0
 17 57  1  0
 17 58  1  0
 18 19  1  0
 18 59  1  0
 18 60  1  0
 19 34  1  0
 19 20  1  1
 19 21  1  0
 20 61  1  0
 20 62  1  0
 20 63  1  0
 21 22  1  0
 21 35  1  0
 21 64  1  6
 22 23  1  0
 22 65  1  0
 22 66  1  0
 23 34  1  0
 23 24  1  0
 23 67  1  6
 24 25  1  0
 24 68  1  0
 24 69  1  0
 25 26  1  0
 25 70  1  0
 25 71  1  0
 26 31  1  6
 26 27  1  0
 26 32  1  0
 27 28  1  0
 27 72  1  0
 27 73  1  0
 28 29  1  0
 28 74  1  0
 28 75  1  0
 29 30  2  0
 29 31  1  0
 32 33  1  0
 32 34  1  0
 32 76  1  1
 33 77  1  0
 33 78  1  0
 33 79  1  0
 34 80  1  1
 35 81  1  1
M  END
>  <i_m_ct_stereo_status>  (127) 
1

>  <s_m_source_file>  (127) 
/var/tmp/pbs.5076255.sched01/tmp1pob34vh/39rbzpz6sd.sdf

>  <i_m_source_file_index>  (127) 
25

>  <i_lp_mmshare_version>  (127) 
48012

>  <i_f3d_flags>  (127) 
0

>  <s_epik_input>  (127) 
W09IXVtDQEBIXShbQ0gyXTEpW0NIMl1bQ0gyXVtDQEhdMVtDQEhdKFtDSDJdW0NIXTIpQyg9QzNbQ0gzXSlDPTJbQ0gyXVtDSDJdW0NAQEhdKFtDSDJdW0NIMl00KVtDQEBIXTNbQ0BIXShbQ0gyXTUpW0NAQF00KFtDSDNdKVtDQEhdKFtDQEBIXTZbQ0gzXSlbQ0BIXTVbQ0gyXVtDSDJdW0NAXTY3W0NIMl1bQ0gyXUMoPU8pTzc=

>  <s_epik_cmdline>  (127) 
J2VwaWtfcHl0aG9uJywgJy1waHQnLCAnMi4wJywgJy1waCcsICc3LjAnLCAnLXRuJywgJzgnLCAnLW1hJywgJzIwMCcsICctaW1hZScsICc8aW5maWxlLm1hZT4nLCAnLW9tYWUnLCAnPG91dGZpbGUubWFlPic=

>  <r_lp_tautomer_probability>  (127) 
1

>  <r_epik_Ionization_Penalty>  (127) 
1.81371e-06

>  <r_epik_Ionization_Penalty_Charging>  (127) 
0

>  <r_epik_Ionization_Penalty_Neutral>  (127) 
1.81371e-06

>  <r_epik_State_Penalty>  (127) 
-0

>  <r_epik_Charging_Adjusted_Penalty>  (127) 
0

>  <i_epik_Tot_Q>  (127) 
0

>  <i_epik_Tot_abs_Q>  (127) 
0

>  <s_epik_Chemistry_Notes>  (127) 
This compound has an ester and may undergo hydrolysis at high or low pH.

>  <s_lp_Force_Field>  (127) 
OPLS3e

>  <r_lp_Energy>  (127) 
74.0339

>  <b_lp_Chiralities_Consistent>  (127) 
1

>  <s_lp_Variant>  (127) 
42:0-1

>  <s_i_glide_gridfile>  (127) 
pfpi4k_grid

>  <i_i_glide_lignum>  (127) 
25

>  <i_i_glide_rotatable_bonds>  (127) 
2

>  <r_i_docking_score>  (127) 
-3.18547

>  <r_i_glide_ligand_efficiency>  (127) 
-0.0910133

>  <r_i_glide_ligand_efficiency_sa>  (127) 
-0.297711

>  <r_i_glide_ligand_efficiency_ln>  (127) 
-0.699281

>  <r_i_glide_gscore>  (127) 
-3.18547

>  <r_i_glide_lipo>  (127) 
-0.345305

>  <r_i_glide_hbond>  (127) 
-0.32

>  <r_i_glide_metal>  (127) 
-0

>  <r_i_glide_rewards>  (127) 
-0.207854

>  <r_i_glide_evdw>  (127) 
-34.2646

>  <r_i_glide_ecoul>  (127) 
-4.58345

>  <r_i_glide_erotb>  (127) 
0.0884381

>  <r_i_glide_esite>  (127) 
0

>  <r_i_glide_emodel>  (127) 
-46.4177

>  <r_i_glide_energy>  (127) 
-38.848

>  <r_i_glide_einternal>  (127) 
0.0263957

>  <r_i_glide_intrahb_reward>  (127) 
-0

>  <i_i_glide_confnum>  (127) 
1

>  <i_i_glide_posenum>  (127) 
3

>  <r_i_glide_eff_state_penalty>  (127) 
0

>  <ligand_id>  (127) 
42

>  <original_smiles>  (127) 
CC1=C2C(=CCC2C2CCC(O)C2)CCC2CCC3(C)C(CC4CCC5(CCC(=O)O5)C(C)C43)C12

>  <smiles>  (127) 
[H]OC1([H])C([H])([H])C([H])([H])C([H])(C2([H])C3=C(C([H])([H])[H])C4([H])C([H])(C([H])([H])C([H])([H])C3=C([H])C2([H])[H])C([H])([H])C([H])([H])C2(C([H])([H])[H])C4([H])C([H])([H])C3([H])C([H])([H])C([H])([H])C4(OC(=O)C([H])([H])C4([H])[H])C([H])(C([H])([H])[H])C32[H])C1([H])[H]

$$$$
42:0:2
     RDKit          3D

 81 87  0  0  1  0  0  0  0  0999 V2000
    1.0534   -1.0779    4.7401 C   0  0  0  0  0  0  0  0  0  0  0  0
    2.5718   -0.9270    4.8648 C   0  0  0  0  0  0  0  0  0  0  0  0
    3.1231    0.2193    5.3291 C   0  0  0  0  0  0  0  0  0  0  0  0
    4.5417    0.4817    5.4281 C   0  0  0  0  0  0  0  0  0  0  0  0
    4.7290    1.5621    6.1957 C   0  0  0  0  0  0  0  0  0  0  0  0
    3.4402    2.1403    6.7275 C   0  0  0  0  0  0  0  0  0  0  0  0
    2.3602    1.4301    5.8705 C   0  0  1  0  0  0  0  0  0  0  0  0
    1.7779    2.3304    4.7441 C   0  0  2  0  0  0  0  0  0  0  0  0
    2.7822    2.9656    3.7708 C   0  0  0  0  0  0  0  0  0  0  0  0
    2.0711    4.1854    3.1695 C   0  0  0  0  0  0  0  0  0  0  0  0
    0.7943    4.4210    4.0043 C   0  0  1  0  0  0  0  0  0  0  0  0
   -0.3570    4.0290    3.2915 O   0  0  0  0  0  0  0  0  0  0  0  0
    0.9220    3.5047    5.2244 C   0  0  0  0  0  0  0  0  0  0  0  0
    5.6558   -0.2401    4.6990 C   0  0  0  0  0  0  0  0  0  0  0  0
    5.2816   -0.6346    3.2558 C   0  0  0  0  0  0  0  0  0  0  0  0
    4.1766   -1.7164    3.0701 C   0  0  1  0  0  0  0  0  0  0  0  0
    4.7350   -2.8797    2.1970 C   0  0  0  0  0  0  0  0  0  0  0  0
    3.8905   -4.1672    2.1975 C   0  0  0  0  0  0  0  0  0  0  0  0
    3.5955   -4.6147    3.6348 C   0  0  1  0  0  0  0  0  0  0  0  0
    4.9439   -4.7940    4.4092 C   0  0  0  0  0  0  0  0  0  0  0  0
    2.7128   -3.5026    4.2601 C   0  0  1  0  0  0  0  0  0  0  0  0
    2.0992   -4.2077    5.4938 C   0  0  0  0  0  0  0  0  0  0  0  0
    1.6725   -5.5434    4.8765 C   0  0  2  0  0  0  0  0  0  0  0  0
    1.3587   -6.7309    5.8045 C   0  0  0  0  0  0  0  0  0  0  0  0
    1.4442   -8.0724    5.0267 C   0  0  0  0  0  0  0  0  0  0  0  0
    1.2206   -7.9243    3.4847 C   0  0  1  0  0  0  0  0  0  0  0  0
    1.1854   -9.3149    2.8141 C   0  0  0  0  0  0  0  0  0  0  0  0
   -0.2736   -9.7435    2.8745 C   0  0  0  0  0  0  0  0  0  0  0  0
   -0.9888   -8.4187    2.9970 C   0  0  0  0  0  0  0  0  0  0  0  0
   -2.1851   -8.2588    2.7953 O   0  0  0  0  0  0  0  0  0  0  0  0
   -0.1220   -7.4704    3.3308 O   0  0  0  0  0  0  0  0  0  0  0  0
    2.2245   -6.9177    2.8031 C   0  0  1  0  0  0  0  0  0  0  0  0
    1.6072   -6.2823    1.5305 C   0  0  0  0  0  0  0  0  0  0  0  0
    2.7689   -5.9244    3.8782 C   0  0  1  0  0  0  0  0  0  0  0  0
    3.4423   -2.1215    4.4000 C   0  0  2  0  0  0  0  0  0  0  0  0
    0.6570   -1.7933    5.4510 H   0  0  0  0  0  0  0  0  0  0  0  0
    0.7681   -1.3703    3.7297 H   0  0  0  0  0  0  0  0  0  0  0  0
    0.5193   -0.1556    4.9537 H   0  0  0  0  0  0  0  0  0  0  0  0
    5.6871    2.0011    6.4265 H   0  0  0  0  0  0  0  0  0  0  0  0
    3.3531    1.8635    7.7796 H   0  0  0  0  0  0  0  0  0  0  0  0
    3.4322    3.2265    6.6542 H   0  0  0  0  0  0  0  0  0  0  0  0
    1.5595    1.0866    6.5256 H   0  0  0  0  0  0  0  0  0  0  0  0
    1.1189    1.7237    4.1209 H   0  0  0  0  0  0  0  0  0  0  0  0
    3.6918    3.3028    4.2703 H   0  0  0  0  0  0  0  0  0  0  0  0
    3.0833    2.2587    2.9944 H   0  0  0  0  0  0  0  0  0  0  0  0
    2.7330    5.0541    3.2038 H   0  0  0  0  0  0  0  0  0  0  0  0
    1.8447    4.0106    2.1157 H   0  0  0  0  0  0  0  0  0  0  0  0
    0.7054    5.4696    4.2925 H   0  0  0  0  0  0  0  0  0  0  0  0
   -0.1911    4.1442    2.3322 H   0  0  0  0  0  0  0  0  0  0  0  0
   -0.0420    3.1732    5.6138 H   0  0  0  0  0  0  0  0  0  0  0  0
    1.4284    4.0445    6.0247 H   0  0  0  0  0  0  0  0  0  0  0  0
    6.5114    0.4362    4.6481 H   0  0  0  0  0  0  0  0  0  0  0  0
    5.9954   -1.0900    5.2893 H   0  0  0  0  0  0  0  0  0  0  0  0
    4.9889    0.2643    2.7143 H   0  0  0  0  0  0  0  0  0  0  0  0
    6.2015   -0.9583    2.7662 H   0  0  0  0  0  0  0  0  0  0  0  0
    3.4078   -1.2557    2.4469 H   0  0  0  0  0  0  0  0  0  0  0  0
    4.8036   -2.5310    1.1682 H   0  0  0  0  0  0  0  0  0  0  0  0
    5.7625   -3.1251    2.4684 H   0  0  0  0  0  0  0  0  0  0  0  0
    2.9637   -3.9487    1.6714 H   0  0  0  0  0  0  0  0  0  0  0  0
    4.3953   -4.9566    1.6389 H   0  0  0  0  0  0  0  0  0  0  0  0
    4.7888   -5.1238    5.4377 H   0  0  0  0  0  0  0  0  0  0  0  0
    5.5439   -3.8858    4.4839 H   0  0  0  0  0  0  0  0  0  0  0  0
    5.5691   -5.5461    3.9224 H   0  0  0  0  0  0  0  0  0  0  0  0
    1.8839   -3.3438    3.5709 H   0  0  0  0  0  0  0  0  0  0  0  0
    2.8309   -4.3381    6.2916 H   0  0  0  0  0  0  0  0  0  0  0  0
    1.2344   -3.7101    5.9258 H   0  0  0  0  0  0  0  0  0  0  0  0
    0.7691   -5.3210    4.3111 H   0  0  0  0  0  0  0  0  0  0  0  0
    2.0202   -6.7678    6.6737 H   0  0  0  0  0  0  0  0  0  0  0  0
    0.3493   -6.6219    6.1980 H   0  0  0  0  0  0  0  0  0  0  0  0
    2.4391   -8.4982    5.1832 H   0  0  0  0  0  0  0  0  0  0  0  0
    0.7543   -8.8018    5.4599 H   0  0  0  0  0  0  0  0  0  0  0  0
    1.5115   -9.2751    1.7727 H   0  0  0  0  0  0  0  0  0  0  0  0
    1.8319  -10.0277    3.3227 H   0  0  0  0  0  0  0  0  0  0  0  0
   -0.5838  -10.2966    1.9876 H   0  0  0  0  0  0  0  0  0  0  0  0
   -0.4867  -10.3434    3.7571 H   0  0  0  0  0  0  0  0  0  0  0  0
    3.0786   -7.4995    2.4556 H   0  0  0  0  0  0  0  0  0  0  0  0
    0.9304   -5.4683    1.7838 H   0  0  0  0  0  0  0  0  0  0  0  0
    1.0455   -7.0170    0.9454 H   0  0  0  0  0  0  0  0  0  0  0  0
    2.3703   -5.9011    0.8547 H   0  0  0  0  0  0  0  0  0  0  0  0
    3.4565   -6.5667    4.4239 H   0  0  0  0  0  0  0  0  0  0  0  0
    4.1681   -2.2776    5.1938 H   0  0  0  0  0  0  0  0  0  0  0  0
  1  2  1  0
  1 36  1  0
  1 37  1  0
  1 38  1  0
  2 35  1  0
  2  3  2  0
  3  7  1  0
  3  4  1  0
  4  5  2  0
  4 14  1  0
  5  6  1  0
  5 39  1  0
  6  7  1  0
  6 40  1  0
  6 41  1  0
  7  8  1  0
  7 42  1  1
  8 13  1  0
  8  9  1  0
  8 43  1  6
  9 10  1  0
  9 44  1  0
  9 45  1  0
 10 11  1  0
 10 46  1  0
 10 47  1  0
 11 12  1  0
 11 13  1  0
 11 48  1  1
 12 49  1  0
 13 50  1  0
 13 51  1  0
 14 15  1  0
 14 52  1  0
 14 53  1  0
 15 16  1  0
 15 54  1  0
 15 55  1  0
 16 35  1  0
 16 17  1  0
 16 56  1  6
 17 18  1  0
 17 57  1  0
 17 58  1  0
 18 19  1  0
 18 59  1  0
 18 60  1  0
 19 34  1  0
 19 20  1  1
 19 21  1  0
 20 61  1  0
 20 62  1  0
 20 63  1  0
 21 22  1  0
 21 35  1  0
 21 64  1  6
 22 23  1  0
 22 65  1  0
 22 66  1  0
 23 34  1  0
 23 24  1  0
 23 67  1  6
 24 25  1  0
 24 68  1  0
 24 69  1  0
 25 26  1  0
 25 70  1  0
 25 71  1  0
 26 31  1  1
 26 27  1  0
 26 32  1  0
 27 28  1  0
 27 72  1  0
 27 73  1  0
 28 29  1  0
 28 74  1  0
 28 75  1  0
 29 30  2  0
 29 31  1  0
 32 33  1  0
 32 34  1  0
 32 76  1  6
 33 77  1  0
 33 78  1  0
 33 79  1  0
 34 80  1  1
 35 81  1  1
M  END
>  <i_m_ct_stereo_status>  (128) 
1

>  <s_m_source_file>  (128) 
/var/tmp/pbs.5076255.sched01/tmp1pob34vh/39rbzpz6sd.sdf

>  <i_m_source_file_index>  (128) 
25

>  <i_lp_mmshare_version>  (128) 
48012

>  <i_f3d_flags>  (128) 
0

>  <s_epik_input>  (128) 
W09IXVtDQEBIXShbQ0gyXTEpW0NIMl1bQ0gyXVtDQEhdMVtDQEhdKFtDSDJdW0NIXTIpQyg9QzNbQ0gzXSlDPTJbQ0gyXVtDSDJdW0NAQEhdKFtDSDJdW0NIMl00KVtDQEBIXTNbQ0BIXShbQ0gyXTUpW0NAQF00KFtDSDNdKVtDQEhdKFtDQEBIXTZbQ0gzXSlbQ0BIXTVbQ0gyXVtDSDJdW0NAXTY3W0NIMl1bQ0gyXUMoPU8pTzc=

>  <s_epik_cmdline>  (128) 
J2VwaWtfcHl0aG9uJywgJy1waHQnLCAnMi4wJywgJy1waCcsICc3LjAnLCAnLXRuJywgJzgnLCAnLW1hJywgJzIwMCcsICctaW1hZScsICc8aW5maWxlLm1hZT4nLCAnLW9tYWUnLCAnPG91dGZpbGUubWFlPic=

>  <r_lp_tautomer_probability>  (128) 
1

>  <r_epik_Ionization_Penalty>  (128) 
1.81371e-06

>  <r_epik_Ionization_Penalty_Charging>  (128) 
0

>  <r_epik_Ionization_Penalty_Neutral>  (128) 
1.81371e-06

>  <r_epik_State_Penalty>  (128) 
-0

>  <r_epik_Charging_Adjusted_Penalty>  (128) 
0

>  <i_epik_Tot_Q>  (128) 
0

>  <i_epik_Tot_abs_Q>  (128) 
0

>  <s_epik_Chemistry_Notes>  (128) 
This compound has an ester and may undergo hydrolysis at high or low pH.

>  <s_lp_Force_Field>  (128) 
OPLS3e

>  <r_lp_Energy>  (128) 
74.0339

>  <b_lp_Chiralities_Consistent>  (128) 
1

>  <s_lp_Variant>  (128) 
42:0-1

>  <s_i_glide_gridfile>  (128) 
pfpi4k_grid

>  <i_i_glide_lignum>  (128) 
25

>  <i_i_glide_rotatable_bonds>  (128) 
2

>  <r_i_docking_score>  (128) 
-3.16336

>  <r_i_glide_ligand_efficiency>  (128) 
-0.0903816

>  <r_i_glide_ligand_efficiency_sa>  (128) 
-0.295644

>  <r_i_glide_ligand_efficiency_ln>  (128) 
-0.694427

>  <r_i_glide_gscore>  (128) 
-3.16336

>  <r_i_glide_lipo>  (128) 
-0.273736

>  <r_i_glide_hbond>  (128) 
-0.16

>  <r_i_glide_metal>  (128) 
-0

>  <r_i_glide_rewards>  (128) 
-0.145187

>  <r_i_glide_evdw>  (128) 
-29.4717

>  <r_i_glide_ecoul>  (128) 
-7.66601

>  <r_i_glide_erotb>  (128) 
0.0884381

>  <r_i_glide_esite>  (128) 
-0.0493839

>  <r_i_glide_emodel>  (128) 
-44.4272

>  <r_i_glide_energy>  (128) 
-37.1377

>  <r_i_glide_einternal>  (128) 
0.9804

>  <r_i_glide_intrahb_reward>  (128) 
-0

>  <i_i_glide_confnum>  (128) 
4

>  <i_i_glide_posenum>  (128) 
11

>  <r_i_glide_eff_state_penalty>  (128) 
0

>  <ligand_id>  (128) 
42

>  <original_smiles>  (128) 
CC1=C2C(=CCC2C2CCC(O)C2)CCC2CCC3(C)C(CC4CCC5(CCC(=O)O5)C(C)C43)C12

>  <smiles>  (128) 
[H]OC1([H])C([H])([H])C([H])([H])C([H])(C2([H])C3=C(C([H])([H])[H])C4([H])C([H])(C([H])([H])C([H])([H])C3=C([H])C2([H])[H])C([H])([H])C([H])([H])C2(C([H])([H])[H])C4([H])C([H])([H])C3([H])C([H])([H])C([H])([H])C4(OC(=O)C([H])([H])C4([H])[H])C([H])(C([H])([H])[H])C32[H])C1([H])[H]

$$$$
43:0:0
     RDKit          3D

 98106  0  0  1  0  0  0  0  0999 V2000
    1.0579   -9.5881    9.4215 C   0  0  0  0  0  0  0  0  0  0  0  0
    2.2466   -8.9825    9.2367 C   0  0  0  0  0  0  0  0  0  0  0  0
    3.5421   -9.6757    8.8457 C   0  0  1  0  0  0  0  0  0  0  0  0
    3.4344  -10.6404    7.8213 O   0  0  0  0  0  0  0  0  0  0  0  0
    4.5832   -8.5457    8.5637 C   0  0  2  0  0  0  0  0  0  0  0  0
    4.0554   -7.5190    9.6045 C   0  0  0  0  0  0  0  0  0  0  0  0
    2.5138   -7.5472    9.5966 C   0  0  1  0  0  0  0  0  0  0  0  0
    1.7135   -6.4002    8.8735 C   0  0  1  0  0  0  0  0  0  0  0  0
    2.1452   -4.9944    9.3615 C   0  0  0  0  0  0  0  0  0  0  0  0
    3.1539   -4.1957    8.5179 C   0  0  0  0  0  0  0  0  0  0  0  0
    4.3537   -4.9963    8.0600 C   0  0  0  0  0  0  0  0  0  0  0  0
    4.3381   -5.9365    7.0807 C   0  0  0  0  0  0  0  0  0  0  0  0
    5.4568   -6.8019    6.5225 C   0  0  2  0  0  0  0  0  0  0  0  0
    6.7034   -6.4650    7.1140 O   0  0  0  0  0  0  0  0  0  0  0  0
    5.6342   -6.5998    4.8190 C   0  0  0  0  0  0  0  0  0  0  0  0
    4.5618   -6.8174    3.4689 C   0  0  2  0  0  0  0  0  0  0  0  0
    5.3435   -7.9528    2.6783 C   0  0  0  0  0  0  0  0  0  0  0  0
    4.6223   -5.6958    2.3096 C   0  0  1  0  0  0  0  0  0  0  0  0
    3.2409   -5.5228    1.6592 C   0  0  2  0  0  0  0  0  0  0  0  0
    3.1602   -4.1387    1.3264 O   0  0  0  0  0  0  0  0  0  0  0  0
    4.4525   -3.6841    1.0783 C   0  0  2  0  0  0  0  0  0  0  0  0
    4.4208   -2.1158    0.9856 C   0  0  0  0  0  0  0  0  0  0  0  0
    3.6774   -1.6739   -0.2674 C   0  0  0  0  0  0  0  0  0  0  0  0
    4.2792   -2.3184   -1.5144 C   0  0  1  0  0  0  0  0  0  0  0  0
    5.6823   -1.7967   -1.8332 C   0  0  0  0  0  0  0  0  0  0  0  0
    4.2859   -3.8345   -1.3111 C   0  0  0  0  0  0  0  0  0  0  0  0
    4.9872   -4.1801   -0.1132 O   0  0  0  0  0  0  0  0  0  0  0  0
    5.2885   -4.2857    2.2339 C   0  0  1  0  0  0  0  0  0  0  0  0
    5.3007   -3.2754    3.4144 C   0  0  0  0  0  0  0  0  0  0  0  0
    2.1677   -5.9686    2.6627 C   0  0  1  0  0  0  0  0  0  0  0  0
    0.9537   -6.3185    1.9910 O   0  0  0  0  0  0  0  0  0  0  0  0
    2.8307   -7.1342    3.5132 C   0  0  1  0  0  0  0  0  0  0  0  0
    2.5456   -8.4061    2.6303 C   0  0  0  0  0  0  0  0  0  0  0  0
    1.8743   -7.4023    4.8893 C   0  0  2  0  0  0  0  0  0  0  0  0
    1.8541   -6.3183    6.0776 C   0  0  1  0  0  0  0  0  0  0  0  0
    1.0714   -6.4928    7.4330 C   0  0  0  0  0  0  0  0  0  0  0  0
    3.3375   -6.3205    6.0969 C   0  0  1  0  0  0  0  0  0  0  0  0
    3.5592   -4.9121    5.3582 C   0  0  0  0  0  0  0  0  0  0  0  0
    3.6603   -7.9705    6.0875 C   0  0  2  0  0  0  0  0  0  0  0  0
    4.2328   -8.8460    5.1383 O   0  0  0  0  0  0  0  0  0  0  0  0
    2.3522   -8.6762    5.6014 C   0  0  1  0  0  0  0  0  0  0  0  0
    1.3828   -9.1667    6.4893 O   0  0  0  0  0  0  0  0  0  0  0  0
    4.9229   -8.2257    7.0116 C   0  0  2  0  0  0  0  0  0  0  0  0
    6.0680   -9.2702    6.7098 C   0  0  0  0  0  0  0  0  0  0  0  0
    0.1958   -9.0355    9.7681 H   0  0  0  0  0  0  0  0  0  0  0  0
    0.9458  -10.6433    9.2279 H   0  0  0  0  0  0  0  0  0  0  0  0
    3.8585  -10.2005    9.7535 H   0  0  0  0  0  0  0  0  0  0  0  0
    2.7343  -11.2735    8.0336 H   0  0  0  0  0  0  0  0  0  0  0  0
    5.5143   -8.8733    9.0127 H   0  0  0  0  0  0  0  0  0  0  0  0
    4.3050   -7.9794   10.5645 H   0  0  0  0  0  0  0  0  0  0  0  0
    4.5732   -6.5882    9.7403 H   0  0  0  0  0  0  0  0  0  0  0  0
    2.2277   -7.4739   10.6463 H   0  0  0  0  0  0  0  0  0  0  0  0
    0.7841   -6.5055    9.4397 H   0  0  0  0  0  0  0  0  0  0  0  0
    1.2577   -4.3709    9.4453 H   0  0  0  0  0  0  0  0  0  0  0  0
    2.5270   -5.0800   10.3769 H   0  0  0  0  0  0  0  0  0  0  0  0
    2.6464   -3.7460    7.6717 H   0  0  0  0  0  0  0  0  0  0  0  0
    3.5328   -3.3586    9.1080 H   0  0  0  0  0  0  0  0  0  0  0  0
    5.2772   -4.8259    8.6058 H   0  0  0  0  0  0  0  0  0  0  0  0
    6.6591   -6.6160    8.0311 H   0  0  0  0  0  0  0  0  0  0  0  0
    6.0595   -5.6135    4.6941 H   0  0  0  0  0  0  0  0  0  0  0  0
    6.5199   -7.1972    4.5953 H   0  0  0  0  0  0  0  0  0  0  0  0
    4.9225   -8.2011    1.7033 H   0  0  0  0  0  0  0  0  0  0  0  0
    5.4745   -8.9072    3.1852 H   0  0  0  0  0  0  0  0  0  0  0  0
    6.3617   -7.6320    2.4583 H   0  0  0  0  0  0  0  0  0  0  0  0
    5.1796   -6.1066    1.4644 H   0  0  0  0  0  0  0  0  0  0  0  0
    3.2024   -6.1221    0.7517 H   0  0  0  0  0  0  0  0  0  0  0  0
    3.9046   -1.6913    1.8469 H   0  0  0  0  0  0  0  0  0  0  0  0
    5.4467   -1.7431    0.9783 H   0  0  0  0  0  0  0  0  0  0  0  0
    2.6276   -1.9446   -0.1771 H   0  0  0  0  0  0  0  0  0  0  0  0
    3.7124   -0.5839   -0.3462 H   0  0  0  0  0  0  0  0  0  0  0  0
    3.6232   -2.0852   -2.3570 H   0  0  0  0  0  0  0  0  0  0  0  0
    6.3940   -2.0397   -1.0480 H   0  0  0  0  0  0  0  0  0  0  0  0
    5.6705   -0.7154   -1.9507 H   0  0  0  0  0  0  0  0  0  0  0  0
    6.0604   -2.2599   -2.7348 H   0  0  0  0  0  0  0  0  0  0  0  0
    3.2620   -4.2053   -1.2629 H   0  0  0  0  0  0  0  0  0  0  0  0
    4.7642   -4.3219   -2.1620 H   0  0  0  0  0  0  0  0  0  0  0  0
    6.3192   -4.3841    1.9021 H   0  0  0  0  0  0  0  0  0  0  0  0
    4.3058   -2.9699    3.7304 H   0  0  0  0  0  0  0  0  0  0  0  0
    5.8180   -2.3619    3.1243 H   0  0  0  0  0  0  0  0  0  0  0  0
    5.8737   -3.6188    4.2675 H   0  0  0  0  0  0  0  0  0  0  0  0
    1.8554   -5.1205    3.2630 H   0  0  0  0  0  0  0  0  0  0  0  0
    1.1013   -7.1269    1.5447 H   0  0  0  0  0  0  0  0  0  0  0  0
    1.5001   -8.7168    2.6875 H   0  0  0  0  0  0  0  0  0  0  0  0
    3.1187   -9.2832    2.9298 H   0  0  0  0  0  0  0  0  0  0  0  0
    2.7633   -8.2582    1.5755 H   0  0  0  0  0  0  0  0  0  0  0  0
    0.8447   -7.5540    4.5712 H   0  0  0  0  0  0  0  0  0  0  0  0
    1.3557   -5.4724    5.6097 H   0  0  0  0  0  0  0  0  0  0  0  0
    0.3413   -7.2986    7.3971 H   0  0  0  0  0  0  0  0  0  0  0  0
    0.3858   -5.6408    7.4291 H   0  0  0  0  0  0  0  0  0  0  0  0
    3.4972   -4.8579    4.3122 H   0  0  0  0  0  0  0  0  0  0  0  0
    4.4856   -4.3786    5.5571 H   0  0  0  0  0  0  0  0  0  0  0  0
    2.8568   -4.1390    5.6543 H   0  0  0  0  0  0  0  0  0  0  0  0
    4.1785   -9.7083    5.4876 H   0  0  0  0  0  0  0  0  0  0  0  0
    2.3152   -9.5342    4.9179 H   0  0  0  0  0  0  0  0  0  0  0  0
    1.6850   -9.9978    6.8188 H   0  0  0  0  0  0  0  0  0  0  0  0
    6.5468   -9.1514    5.7398 H   0  0  0  0  0  0  0  0  0  0  0  0
    5.7223  -10.3006    6.7806 H   0  0  0  0  0  0  0  0  0  0  0  0
    6.8923   -9.1730    7.4245 H   0  0  0  0  0  0  0  0  0  0  0  0
  1  2  2  0
  1 45  1  0
  1 46  1  0
  2  7  1  0
  2  3  1  0
  3  4  1  0
  3  5  1  0
  3 47  1  1
  4 48  1  0
  5 43  1  0
  5  6  1  0
  5 49  1  1
  6  7  1  0
  6 50  1  0
  6 51  1  0
  7  8  1  0
  7 52  1  1
  8 36  1  0
  8  9  1  0
  8 53  1  1
  9 10  1  0
  9 54  1  0
  9 55  1  0
 10 11  1  0
 10 56  1  0
 10 57  1  0
 11 12  2  3
 11 58  1  0
 12 37  1  0
 12 13  1  0
 13 43  1  0
 13 14  1  1
 13 15  1  0
 14 59  1  0
 15 16  1  0
 15 60  1  0
 15 61  1  0
 16 32  1  0
 16 17  1  6
 16 18  1  0
 17 62  1  0
 17 63  1  0
 17 64  1  0
 18 28  1  0
 18 19  1  0
 18 65  1  6
 19 20  1  0
 19 30  1  0
 19 66  1  6
 21 20  1  1
 21 27  1  0
 21 22  1  0
 21 28  1  0
 22 23  1  0
 22 67  1  0
 22 68  1  0
 23 24  1  0
 23 69  1  0
 23 70  1  0
 24 25  1  0
 24 26  1  0
 24 71  1  6
 25 72  1  0
 25 73  1  0
 25 74  1  0
 26 27  1  0
 26 75  1  0
 26 76  1  0
 28 29  1  0
 28 77  1  6
 29 78  1  0
 29 79  1  0
 29 80  1  0
 30 31  1  0
 30 32  1  0
 30 81  1  1
 31 82  1  0
 32 33  1  6
 32 34  1  0
 33 83  1  0
 33 84  1  0
 33 85  1  0
 34 41  1  0
 34 35  1  0
 34 86  1  6
 35 36  1  0
 35 37  1  0
 35 87  1  6
 36 88  1  0
 36 89  1  0
 37 38  1  6
 37 39  1  0
 38 90  1  0
 38 91  1  0
 38 92  1  0
 39 40  1  6
 39 41  1  0
 39 43  1  0
 40 93  1  0
 41 42  1  0
 41 94  1  6
 42 95  1  0
 43 44  1  6
 44 96  1  0
 44 97  1  0
 44 98  1  0
M  END
>  <i_m_ct_stereo_status>  (129) 
1

>  <s_m_source_file>  (129) 
/var/tmp/pbs.5076255.sched01/tmp1pob34vh/39rbzpz6sd.sdf

>  <i_m_source_file_index>  (129) 
26

>  <i_lp_mmshare_version>  (129) 
48012

>  <i_f3d_flags>  (129) 
0

>  <s_epik_input>  (129) 
W0NIXT0xXFtDSDJdW0NIMl1bQ0BASF0oW0NIMl0yKVtDQEhdKFtDSDJdMylDKD1bQ0gyXSlbQ0BASF0oW09IXSlbQ0BASF0zW0NAQF0oW0NIM10pKEM0KFtPSF0pW0NASF01W09IXSlbQ0BAXShbT0hdKShbQ0gyXTYpXEMxW0NAXTQoW0NIM10pW0NASF0yW0NASF01W0NAQF0oW0NIM10pKFtDQEBIXTdbT0hdKVtDQEBdNihbQ0gzXSlbQ0BIXShbQ0BASF04W0NIM10pW0NAQEhdN09bQ0BAXTg5W0NIMl1bQ0gyXVtDQEBIXShbQ0gzXSlbQ0gyXU85

>  <s_epik_cmdline>  (129) 
J2VwaWtfcHl0aG9uJywgJy1waHQnLCAnMi4wJywgJy1waCcsICc3LjAnLCAnLXRuJywgJzgnLCAnLW1hJywgJzIwMCcsICctaW1hZScsICc8aW5maWxlLm1hZT4nLCAnLW9tYWUnLCAnPG91dGZpbGUubWFlPic=

>  <r_lp_tautomer_probability>  (129) 
1

>  <r_epik_Ionization_Penalty>  (129) 
1.00283e-06

>  <r_epik_Ionization_Penalty_Charging>  (129) 
0

>  <r_epik_Ionization_Penalty_Neutral>  (129) 
1.00283e-06

>  <r_epik_State_Penalty>  (129) 
-0

>  <r_epik_Charging_Adjusted_Penalty>  (129) 
0

>  <i_epik_Tot_Q>  (129) 
0

>  <i_epik_Tot_abs_Q>  (129) 
0

>  <s_lp_Force_Field>  (129) 
OPLS3e

>  <r_lp_Energy>  (129) 
429.995

>  <b_lp_Chiralities_Consistent>  (129) 
1

>  <s_lp_Variant>  (129) 
43:0-1

>  <s_i_glide_gridfile>  (129) 
pfpi4k_grid

>  <i_i_glide_lignum>  (129) 
26

>  <i_i_glide_rotatable_bonds>  (129) 
5

>  <r_i_docking_score>  (129) 
-2.2849

>  <r_i_glide_ligand_efficiency>  (129) 
-0.0519296

>  <r_i_glide_ligand_efficiency_sa>  (129) 
-0.18333

>  <r_i_glide_ligand_efficiency_ln>  (129) 
-0.477594

>  <r_i_glide_gscore>  (129) 
-2.2849

>  <r_i_glide_lipo>  (129) 
-0.0878682

>  <r_i_glide_hbond>  (129) 
0

>  <r_i_glide_metal>  (129) 
-0

>  <r_i_glide_rewards>  (129) 
-0.0303421

>  <r_i_glide_evdw>  (129) 
-24.0657

>  <r_i_glide_ecoul>  (129) 
-6.4227

>  <r_i_glide_erotb>  (129) 
0

>  <r_i_glide_esite>  (129) 
0

>  <r_i_glide_emodel>  (129) 
-34.4763

>  <r_i_glide_energy>  (129) 
-30.4884

>  <r_i_glide_einternal>  (129) 
1.34319

>  <r_i_glide_intrahb_reward>  (129) 
-0

>  <i_i_glide_confnum>  (129) 
1

>  <i_i_glide_posenum>  (129) 
19

>  <r_i_glide_eff_state_penalty>  (129) 
0

>  <ligand_id>  (129) 
43

>  <original_smiles>  (129) 
C=C1C(O)C2CC1C1CCC=C3C4(O)CC5(C)C6C(OC7(CCC(C)CO7)C6C)C(O)C5(C)C5C(C1)C3(C)C(O)(C5O)C24C

>  <smiles>  (129) 
[H]OC1([H])C(=C([H])[H])C2([H])C([H])([H])C1([H])C1(C([H])([H])[H])C3(O[H])C4=C([H])C([H])([H])C([H])([H])C2([H])C([H])([H])C2([H])C([H])(C([H])(O[H])C1(O[H])C42C([H])([H])[H])C1(C([H])([H])[H])C([H])(O[H])C2([H])OC4(OC([H])([H])C([H])(C([H])([H])[H])C([H])([H])C4([H])[H])C([H])(C([H])([H])[H])C2([H])C1(C([H])([H])[H])C3([H])[H]

$$$$
43:0:1
     RDKit          3D

 98106  0  0  1  0  0  0  0  0999 V2000
    1.0658   -9.6083    9.4316 C   0  0  0  0  0  0  0  0  0  0  0  0
    2.2541   -9.0113    9.2430 C   0  0  0  0  0  0  0  0  0  0  0  0
    3.5447   -9.7015    8.8474 C   0  0  1  0  0  0  0  0  0  0  0  0
    3.4084  -10.6433    7.8058 O   0  0  0  0  0  0  0  0  0  0  0  0
    4.5821   -8.5779    8.5674 C   0  0  2  0  0  0  0  0  0  0  0  0
    4.0623   -7.5564    9.6104 C   0  0  0  0  0  0  0  0  0  0  0  0
    2.5272   -7.5814    9.6056 C   0  0  1  0  0  0  0  0  0  0  0  0
    1.7159   -6.4340    8.8851 C   0  0  1  0  0  0  0  0  0  0  0  0
    2.1501   -5.0254    9.3748 C   0  0  0  0  0  0  0  0  0  0  0  0
    3.1578   -4.2289    8.5287 C   0  0  0  0  0  0  0  0  0  0  0  0
    4.3505   -5.0285    8.0777 C   0  0  0  0  0  0  0  0  0  0  0  0
    4.3347   -5.9775    7.0958 C   0  0  0  0  0  0  0  0  0  0  0  0
    5.4487   -6.8339    6.5335 C   0  0  2  0  0  0  0  0  0  0  0  0
    6.6726   -6.5086    7.1629 O   0  0  0  0  0  0  0  0  0  0  0  0
    5.6406   -6.6288    4.8274 C   0  0  0  0  0  0  0  0  0  0  0  0
    4.5638   -6.8383    3.4742 C   0  0  2  0  0  0  0  0  0  0  0  0
    5.3436   -7.9780    2.6836 C   0  0  0  0  0  0  0  0  0  0  0  0
    4.6252   -5.7125    2.3177 C   0  0  1  0  0  0  0  0  0  0  0  0
    3.2398   -5.5392    1.6757 C   0  0  2  0  0  0  0  0  0  0  0  0
    3.1645   -4.1606    1.3512 O   0  0  0  0  0  0  0  0  0  0  0  0
    4.4525   -3.6959    1.0944 C   0  0  2  0  0  0  0  0  0  0  0  0
    4.4266   -2.1301    1.0086 C   0  0  0  0  0  0  0  0  0  0  0  0
    3.6869   -1.6798   -0.2454 C   0  0  0  0  0  0  0  0  0  0  0  0
    4.2816   -2.3253   -1.4931 C   0  0  1  0  0  0  0  0  0  0  0  0
    5.6897   -1.8068   -1.8218 C   0  0  0  0  0  0  0  0  0  0  0  0
    4.2820   -3.8419   -1.2883 C   0  0  0  0  0  0  0  0  0  0  0  0
    4.9824   -4.1983   -0.1004 O   0  0  0  0  0  0  0  0  0  0  0  0
    5.2897   -4.3030    2.2496 C   0  0  1  0  0  0  0  0  0  0  0  0
    5.3017   -3.3010    3.4332 C   0  0  0  0  0  0  0  0  0  0  0  0
    2.1667   -5.9905    2.6795 C   0  0  1  0  0  0  0  0  0  0  0  0
    0.9546   -6.3364    2.0072 O   0  0  0  0  0  0  0  0  0  0  0  0
    2.8348   -7.1552    3.5154 C   0  0  1  0  0  0  0  0  0  0  0  0
    2.5452   -8.4230    2.6349 C   0  0  0  0  0  0  0  0  0  0  0  0
    1.8821   -7.4336    4.8908 C   0  0  2  0  0  0  0  0  0  0  0  0
    1.8507   -6.3543    6.0790 C   0  0  1  0  0  0  0  0  0  0  0  0
    1.0734   -6.5230    7.4459 C   0  0  0  0  0  0  0  0  0  0  0  0
    3.3309   -6.3456    6.1135 C   0  0  1  0  0  0  0  0  0  0  0  0
    3.5679   -4.9418    5.3650 C   0  0  0  0  0  0  0  0  0  0  0  0
    3.6630   -7.9989    6.0846 C   0  0  2  0  0  0  0  0  0  0  0  0
    4.2356   -8.8709    5.1390 O   0  0  0  0  0  0  0  0  0  0  0  0
    2.3476   -8.7023    5.6010 C   0  0  1  0  0  0  0  0  0  0  0  0
    1.3826   -9.1903    6.4914 O   0  0  0  0  0  0  0  0  0  0  0  0
    4.9176   -8.2537    7.0162 C   0  0  2  0  0  0  0  0  0  0  0  0
    6.0678   -9.3031    6.7082 C   0  0  0  0  0  0  0  0  0  0  0  0
    0.2057   -9.0560    9.7827 H   0  0  0  0  0  0  0  0  0  0  0  0
    0.9579  -10.6704    9.2457 H   0  0  0  0  0  0  0  0  0  0  0  0
    3.8583  -10.2404    9.7502 H   0  0  0  0  0  0  0  0  0  0  0  0
    2.7419  -11.2956    8.0455 H   0  0  0  0  0  0  0  0  0  0  0  0
    5.5183   -8.9081    9.0133 H   0  0  0  0  0  0  0  0  0  0  0  0
    4.3090   -8.0174   10.5668 H   0  0  0  0  0  0  0  0  0  0  0  0
    4.5832   -6.6231    9.7459 H   0  0  0  0  0  0  0  0  0  0  0  0
    2.2327   -7.5156   10.6530 H   0  0  0  0  0  0  0  0  0  0  0  0
    0.7898   -6.5413    9.4527 H   0  0  0  0  0  0  0  0  0  0  0  0
    1.2626   -4.4048    9.4631 H   0  0  0  0  0  0  0  0  0  0  0  0
    2.5373   -5.1193   10.3892 H   0  0  0  0  0  0  0  0  0  0  0  0
    2.6466   -3.7750    7.6865 H   0  0  0  0  0  0  0  0  0  0  0  0
    3.5399   -3.3965    9.1184 H   0  0  0  0  0  0  0  0  0  0  0  0
    5.2719   -4.8781    8.6102 H   0  0  0  0  0  0  0  0  0  0  0  0
    7.0369   -5.7580    6.7265 H   0  0  0  0  0  0  0  0  0  0  0  0
    6.0624   -5.6419    4.6999 H   0  0  0  0  0  0  0  0  0  0  0  0
    6.5234   -7.2328    4.6044 H   0  0  0  0  0  0  0  0  0  0  0  0
    4.9196   -8.2188    1.7084 H   0  0  0  0  0  0  0  0  0  0  0  0
    5.4718   -8.9326    3.1912 H   0  0  0  0  0  0  0  0  0  0  0  0
    6.3597   -7.6533    2.4664 H   0  0  0  0  0  0  0  0  0  0  0  0
    5.1794   -6.1293    1.4744 H   0  0  0  0  0  0  0  0  0  0  0  0
    3.2023   -6.1286    0.7614 H   0  0  0  0  0  0  0  0  0  0  0  0
    3.9043   -1.7062    1.8673 H   0  0  0  0  0  0  0  0  0  0  0  0
    5.4530   -1.7601    1.0045 H   0  0  0  0  0  0  0  0  0  0  0  0
    2.6418   -1.9650   -0.1572 H   0  0  0  0  0  0  0  0  0  0  0  0
    3.7135   -0.5978   -0.3214 H   0  0  0  0  0  0  0  0  0  0  0  0
    3.6257   -2.0889   -2.3373 H   0  0  0  0  0  0  0  0  0  0  0  0
    6.4031   -2.0507   -1.0427 H   0  0  0  0  0  0  0  0  0  0  0  0
    5.6809   -0.7223   -1.9363 H   0  0  0  0  0  0  0  0  0  0  0  0
    6.0639   -2.2560   -2.7342 H   0  0  0  0  0  0  0  0  0  0  0  0
    3.2601   -4.2201   -1.2473 H   0  0  0  0  0  0  0  0  0  0  0  0
    4.7647   -4.3250   -2.1419 H   0  0  0  0  0  0  0  0  0  0  0  0
    6.3192   -4.4115    1.9125 H   0  0  0  0  0  0  0  0  0  0  0  0
    4.3060   -3.0002    3.7423 H   0  0  0  0  0  0  0  0  0  0  0  0
    5.8186   -2.3913    3.1399 H   0  0  0  0  0  0  0  0  0  0  0  0
    5.8786   -3.6499    4.2848 H   0  0  0  0  0  0  0  0  0  0  0  0
    1.8549   -5.1383    3.2747 H   0  0  0  0  0  0  0  0  0  0  0  0
    1.0972   -7.1655    1.5838 H   0  0  0  0  0  0  0  0  0  0  0  0
    1.4973   -8.7374    2.6936 H   0  0  0  0  0  0  0  0  0  0  0  0
    3.1188   -9.3038    2.9328 H   0  0  0  0  0  0  0  0  0  0  0  0
    2.7632   -8.2706    1.5863 H   0  0  0  0  0  0  0  0  0  0  0  0
    0.8461   -7.5759    4.5851 H   0  0  0  0  0  0  0  0  0  0  0  0
    1.3571   -5.4958    5.6262 H   0  0  0  0  0  0  0  0  0  0  0  0
    0.3515   -7.3291    7.4087 H   0  0  0  0  0  0  0  0  0  0  0  0
    0.3921   -5.6747    7.4446 H   0  0  0  0  0  0  0  0  0  0  0  0
    3.5015   -4.8771    4.3213 H   0  0  0  0  0  0  0  0  0  0  0  0
    4.4899   -4.4031    5.5651 H   0  0  0  0  0  0  0  0  0  0  0  0
    2.8616   -4.1667    5.6682 H   0  0  0  0  0  0  0  0  0  0  0  0
    4.1556   -9.7417    5.4825 H   0  0  0  0  0  0  0  0  0  0  0  0
    2.3188   -9.5582    4.9164 H   0  0  0  0  0  0  0  0  0  0  0  0
    1.6951  -10.0188    6.8318 H   0  0  0  0  0  0  0  0  0  0  0  0
    6.5440   -9.1853    5.7365 H   0  0  0  0  0  0  0  0  0  0  0  0
    5.7213  -10.3298    6.7782 H   0  0  0  0  0  0  0  0  0  0  0  0
    6.8934   -9.2024    7.4207 H   0  0  0  0  0  0  0  0  0  0  0  0
  1  2  2  0
  1 45  1  0
  1 46  1  0
  2  7  1  0
  2  3  1  0
  3  4  1  0
  3  5  1  0
  3 47  1  1
  4 48  1  0
  5 43  1  0
  5  6  1  0
  5 49  1  1
  6  7  1  0
  6 50  1  0
  6 51  1  0
  7  8  1  0
  7 52  1  1
  8 36  1  0
  8  9  1  0
  8 53  1  1
  9 10  1  0
  9 54  1  0
  9 55  1  0
 10 11  1  0
 10 56  1  0
 10 57  1  0
 11 12  2  3
 11 58  1  0
 12 37  1  0
 12 13  1  0
 13 43  1  0
 13 14  1  1
 13 15  1  0
 14 59  1  0
 15 16  1  0
 15 60  1  0
 15 61  1  0
 16 32  1  0
 16 17  1  6
 16 18  1  0
 17 62  1  0
 17 63  1  0
 17 64  1  0
 18 28  1  0
 18 19  1  0
 18 65  1  6
 19 20  1  0
 19 30  1  0
 19 66  1  6
 21 20  1  1
 21 27  1  0
 21 22  1  0
 21 28  1  0
 22 23  1  0
 22 67  1  0
 22 68  1  0
 23 24  1  0
 23 69  1  0
 23 70  1  0
 24 25  1  0
 24 26  1  0
 24 71  1  6
 25 72  1  0
 25 73  1  0
 25 74  1  0
 26 27  1  0
 26 75  1  0
 26 76  1  0
 28 29  1  0
 28 77  1  6
 29 78  1  0
 29 79  1  0
 29 80  1  0
 30 31  1  0
 30 32  1  0
 30 81  1  1
 31 82  1  0
 32 33  1  6
 32 34  1  0
 33 83  1  0
 33 84  1  0
 33 85  1  0
 34 41  1  0
 34 35  1  0
 34 86  1  6
 35 36  1  0
 35 37  1  0
 35 87  1  6
 36 88  1  0
 36 89  1  0
 37 38  1  6
 37 39  1  0
 38 90  1  0
 38 91  1  0
 38 92  1  0
 39 40  1  6
 39 41  1  0
 39 43  1  0
 40 93  1  0
 41 42  1  0
 41 94  1  6
 42 95  1  0
 43 44  1  6
 44 96  1  0
 44 97  1  0
 44 98  1  0
M  END
>  <i_m_ct_stereo_status>  (130) 
1

>  <s_m_source_file>  (130) 
/var/tmp/pbs.5076255.sched01/tmp1pob34vh/39rbzpz6sd.sdf

>  <i_m_source_file_index>  (130) 
26

>  <i_lp_mmshare_version>  (130) 
48012

>  <i_f3d_flags>  (130) 
0

>  <s_epik_input>  (130) 
W0NIXT0xXFtDSDJdW0NIMl1bQ0BASF0oW0NIMl0yKVtDQEhdKFtDSDJdMylDKD1bQ0gyXSlbQ0BASF0oW09IXSlbQ0BASF0zW0NAQF0oW0NIM10pKEM0KFtPSF0pW0NASF01W09IXSlbQ0BAXShbT0hdKShbQ0gyXTYpXEMxW0NAXTQoW0NIM10pW0NASF0yW0NASF01W0NAQF0oW0NIM10pKFtDQEBIXTdbT0hdKVtDQEBdNihbQ0gzXSlbQ0BIXShbQ0BASF04W0NIM10pW0NAQEhdN09bQ0BAXTg5W0NIMl1bQ0gyXVtDQEBIXShbQ0gzXSlbQ0gyXU85

>  <s_epik_cmdline>  (130) 
J2VwaWtfcHl0aG9uJywgJy1waHQnLCAnMi4wJywgJy1waCcsICc3LjAnLCAnLXRuJywgJzgnLCAnLW1hJywgJzIwMCcsICctaW1hZScsICc8aW5maWxlLm1hZT4nLCAnLW9tYWUnLCAnPG91dGZpbGUubWFlPic=

>  <r_lp_tautomer_probability>  (130) 
1

>  <r_epik_Ionization_Penalty>  (130) 
1.00283e-06

>  <r_epik_Ionization_Penalty_Charging>  (130) 
0

>  <r_epik_Ionization_Penalty_Neutral>  (130) 
1.00283e-06

>  <r_epik_State_Penalty>  (130) 
-0

>  <r_epik_Charging_Adjusted_Penalty>  (130) 
0

>  <i_epik_Tot_Q>  (130) 
0

>  <i_epik_Tot_abs_Q>  (130) 
0

>  <s_lp_Force_Field>  (130) 
OPLS3e

>  <r_lp_Energy>  (130) 
429.995

>  <b_lp_Chiralities_Consistent>  (130) 
1

>  <s_lp_Variant>  (130) 
43:0-1

>  <s_i_glide_gridfile>  (130) 
pfpi4k_grid

>  <i_i_glide_lignum>  (130) 
26

>  <i_i_glide_rotatable_bonds>  (130) 
5

>  <r_i_docking_score>  (130) 
-2.28194

>  <r_i_glide_ligand_efficiency>  (130) 
-0.0518622

>  <r_i_glide_ligand_efficiency_sa>  (130) 
-0.183092

>  <r_i_glide_ligand_efficiency_ln>  (130) 
-0.476974

>  <r_i_glide_gscore>  (130) 
-2.28194

>  <r_i_glide_lipo>  (130) 
-0.0876948

>  <r_i_glide_hbond>  (130) 
0

>  <r_i_glide_metal>  (130) 
-0

>  <r_i_glide_rewards>  (130) 
-0.0302408

>  <r_i_glide_evdw>  (130) 
-23.9922

>  <r_i_glide_ecoul>  (130) 
-6.42925

>  <r_i_glide_erotb>  (130) 
0

>  <r_i_glide_esite>  (130) 
0

>  <r_i_glide_emodel>  (130) 
-34.367

>  <r_i_glide_energy>  (130) 
-30.4215

>  <r_i_glide_einternal>  (130) 
1.35987

>  <r_i_glide_intrahb_reward>  (130) 
-0

>  <i_i_glide_confnum>  (130) 
2

>  <i_i_glide_posenum>  (130) 
10

>  <r_i_glide_eff_state_penalty>  (130) 
0

>  <ligand_id>  (130) 
43

>  <original_smiles>  (130) 
C=C1C(O)C2CC1C1CCC=C3C4(O)CC5(C)C6C(OC7(CCC(C)CO7)C6C)C(O)C5(C)C5C(C1)C3(C)C(O)(C5O)C24C

>  <smiles>  (130) 
[H]OC1([H])C(=C([H])[H])C2([H])C([H])([H])C1([H])C1(C([H])([H])[H])C3(O[H])C4=C([H])C([H])([H])C([H])([H])C2([H])C([H])([H])C2([H])C([H])(C([H])(O[H])C1(O[H])C42C([H])([H])[H])C1(C([H])([H])[H])C([H])(O[H])C2([H])OC4(OC([H])([H])C([H])(C([H])([H])[H])C([H])([H])C4([H])[H])C([H])(C([H])([H])[H])C2([H])C1(C([H])([H])[H])C3([H])[H]

$$$$
43:0:2
     RDKit          3D

 98106  0  0  1  0  0  0  0  0999 V2000
    0.6686   -8.9725    9.5309 C   0  0  0  0  0  0  0  0  0  0  0  0
    1.7963   -8.2539    9.4234 C   0  0  0  0  0  0  0  0  0  0  0  0
    3.2029   -8.8201    9.2474 C   0  0  1  0  0  0  0  0  0  0  0  0
    3.2784   -9.9093    8.3595 O   0  0  0  0  0  0  0  0  0  0  0  0
    4.1533   -7.6264    8.9611 C   0  0  2  0  0  0  0  0  0  0  0  0
    3.4147   -6.5773    9.8202 C   0  0  0  0  0  0  0  0  0  0  0  0
    1.8996   -6.7631    9.6502 C   0  0  1  0  0  0  0  0  0  0  0  0
    1.0802   -5.7810    8.7274 C   0  0  1  0  0  0  0  0  0  0  0  0
    1.3203   -4.2947    9.1018 C   0  0  0  0  0  0  0  0  0  0  0  0
    2.3442   -3.4830    8.2919 C   0  0  0  0  0  0  0  0  0  0  0  0
    3.6620   -4.1951    8.0572 C   0  0  0  0  0  0  0  0  0  0  0  0
    3.8582   -5.2162    7.2009 C   0  0  0  0  0  0  0  0  0  0  0  0
    5.1033   -6.0153    6.8436 C   0  0  2  0  0  0  0  0  0  0  0  0
    6.2394   -5.5027    7.5264 O   0  0  0  0  0  0  0  0  0  0  0  0
    5.4656   -5.9558    5.1632 C   0  0  0  0  0  0  0  0  0  0  0  0
    4.5814   -6.4164    3.7408 C   0  0  2  0  0  0  0  0  0  0  0  0
    5.5532   -7.5399    3.1686 C   0  0  0  0  0  0  0  0  0  0  0  0
    4.6724   -5.4105    2.4765 C   0  0  1  0  0  0  0  0  0  0  0  0
    3.3678   -5.4525    1.6715 C   0  0  2  0  0  0  0  0  0  0  0  0
    3.2062   -4.1331    1.1768 O   0  0  0  0  0  0  0  0  0  0  0  0
    4.4668   -3.5487    1.0241 C   0  0  2  0  0  0  0  0  0  0  0  0
    4.2948   -2.0249    0.7611 C   0  0  0  0  0  0  0  0  0  0  0  0
    3.6607   -1.7867   -0.6099 C   0  0  0  0  0  0  0  0  0  0  0  0
    4.4606   -2.4870   -1.7051 C   0  0  1  0  0  0  0  0  0  0  0  0
    5.8277   -1.8468   -1.9177 C   0  0  0  0  0  0  0  0  0  0  0  0
    4.6058   -3.9597   -1.3317 C   0  0  0  0  0  0  0  0  0  0  0  0
    5.1972   -4.1098   -0.0420 O   0  0  0  0  0  0  0  0  0  0  0  0
    5.2096   -3.9467    2.3268 C   0  0  1  0  0  0  0  0  0  0  0  0
    5.0182   -2.8346    3.3866 C   0  0  0  0  0  0  0  0  0  0  0  0
    2.2312   -5.9118    2.5923 C   0  0  1  0  0  0  0  0  0  0  0  0
    1.1357   -6.4355    1.8495 O   0  0  0  0  0  0  0  0  0  0  0  0
    2.8961   -6.9086    3.6283 C   0  0  1  0  0  0  0  0  0  0  0  0
    2.8346   -8.2869    2.8665 C   0  0  0  0  0  0  0  0  0  0  0  0
    1.8124   -7.1431    4.9109 C   0  0  2  0  0  0  0  0  0  0  0  0
    1.5469   -5.9671    5.9562 C   0  0  1  0  0  0  0  0  0  0  0  0
    0.6290   -6.0797    7.2401 C   0  0  0  0  0  0  0  0  0  0  0  0
    2.9970   -5.7901    6.1701 C   0  0  1  0  0  0  0  0  0  0  0  0
    3.1894   -4.4507    5.2885 C   0  0  0  0  0  0  0  0  0  0  0  0
    3.4888   -7.4016    6.3497 C   0  0  2  0  0  0  0  0  0  0  0  0
    4.2503   -8.2956    5.5662 O   0  0  0  0  0  0  0  0  0  0  0  0
    2.3065   -8.2836    5.8139 C   0  0  1  0  0  0  0  0  0  0  0  0
    1.2986   -8.7909    6.6392 O   0  0  0  0  0  0  0  0  0  0  0  0
    4.6412   -7.4262    7.4329 C   0  0  2  0  0  0  0  0  0  0  0  0
    5.9183   -8.3743    7.3751 C   0  0  0  0  0  0  0  0  0  0  0  0
   -0.2786   -8.4976    9.7302 H   0  0  0  0  0  0  0  0  0  0  0  0
    0.6884  -10.0475    9.4287 H   0  0  0  0  0  0  0  0  0  0  0  0
    3.4492   -9.2174   10.2358 H   0  0  0  0  0  0  0  0  0  0  0  0
    3.9202  -10.5225    8.6942 H   0  0  0  0  0  0  0  0  0  0  0  0
    5.0540   -7.8125    9.5426 H   0  0  0  0  0  0  0  0  0  0  0  0
    3.5926   -6.9051   10.8480 H   0  0  0  0  0  0  0  0  0  0  0  0
    3.8204   -5.5848    9.9097 H   0  0  0  0  0  0  0  0  0  0  0  0
    1.4810   -6.6177   10.6485 H   0  0  0  0  0  0  0  0  0  0  0  0
    0.1045   -5.9260    9.1952 H   0  0  0  0  0  0  0  0  0  0  0  0
    0.3755   -3.7641    9.0215 H   0  0  0  0  0  0  0  0  0  0  0  0
    1.5871   -4.2403   10.1554 H   0  0  0  0  0  0  0  0  0  0  0  0
    1.8998   -3.1704    7.3505 H   0  0  0  0  0  0  0  0  0  0  0  0
    2.5689   -2.5549    8.8213 H   0  0  0  0  0  0  0  0  0  0  0  0
    4.4936   -3.8722    8.6768 H   0  0  0  0  0  0  0  0  0  0  0  0
    6.1180   -5.6161    8.4583 H   0  0  0  0  0  0  0  0  0  0  0  0
    5.8020   -4.9477    4.9811 H   0  0  0  0  0  0  0  0  0  0  0  0
    6.4193   -6.4785    5.1073 H   0  0  0  0  0  0  0  0  0  0  0  0
    5.2744   -7.9218    2.1854 H   0  0  0  0  0  0  0  0  0  0  0  0
    5.7114   -8.4189    3.7863 H   0  0  0  0  0  0  0  0  0  0  0  0
    6.5548   -7.1338    3.0247 H   0  0  0  0  0  0  0  0  0  0  0  0
    5.3615   -5.8429    1.7468 H   0  0  0  0  0  0  0  0  0  0  0  0
    3.4895   -6.1362    0.8315 H   0  0  0  0  0  0  0  0  0  0  0  0
    3.6450   -1.5730    1.5124 H   0  0  0  0  0  0  0  0  0  0  0  0
    5.2709   -1.5446    0.8174 H   0  0  0  0  0  0  0  0  0  0  0  0
    2.6373   -2.1644   -0.6115 H   0  0  0  0  0  0  0  0  0  0  0  0
    3.5986   -0.7153   -0.8089 H   0  0  0  0  0  0  0  0  0  0  0  0
    3.8996   -2.4101   -2.6390 H   0  0  0  0  0  0  0  0  0  0  0  0
    6.4680   -1.9427   -1.0409 H   0  0  0  0  0  0  0  0  0  0  0  0
    5.7329   -0.7845   -2.1479 H   0  0  0  0  0  0  0  0  0  0  0  0
    6.3652   -2.3352   -2.7235 H   0  0  0  0  0  0  0  0  0  0  0  0
    3.6259   -4.4268   -1.3264 H   0  0  0  0  0  0  0  0  0  0  0  0
    5.2170   -4.4774   -2.0729 H   0  0  0  0  0  0  0  0  0  0  0  0
    6.2786   -3.9815    2.1096 H   0  0  0  0  0  0  0  0  0  0  0  0
    3.9687   -2.6114    3.5694 H   0  0  0  0  0  0  0  0  0  0  0  0
    5.4631   -1.9042    3.0409 H   0  0  0  0  0  0  0  0  0  0  0  0
    5.5448   -3.0267    4.3162 H   0  0  0  0  0  0  0  0  0  0  0  0
    1.7739   -5.0433    3.0610 H   0  0  0  0  0  0  0  0  0  0  0  0
    1.4075   -7.2683    1.4842 H   0  0  0  0  0  0  0  0  0  0  0  0
    1.8225   -8.6954    2.8416 H   0  0  0  0  0  0  0  0  0  0  0  0
    3.4479   -9.0634    3.3183 H   0  0  0  0  0  0  0  0  0  0  0  0
    3.1600   -8.2158    1.8303 H   0  0  0  0  0  0  0  0  0  0  0  0
    0.8427   -7.4304    4.5063 H   0  0  0  0  0  0  0  0  0  0  0  0
    1.0299   -5.2177    5.3604 H   0  0  0  0  0  0  0  0  0  0  0  0
   -0.0109   -6.9586    7.2160 H   0  0  0  0  0  0  0  0  0  0  0  0
   -0.1287   -5.3090    7.0722 H   0  0  0  0  0  0  0  0  0  0  0  0
    3.2454   -4.5055    4.2419 H   0  0  0  0  0  0  0  0  0  0  0  0
    4.0339   -3.8044    5.5187 H   0  0  0  0  0  0  0  0  0  0  0  0
    2.3868   -3.7316    5.4208 H   0  0  0  0  0  0  0  0  0  0  0  0
    4.1934   -9.1417    5.9788 H   0  0  0  0  0  0  0  0  0  0  0  0
    2.4344   -9.2051    5.2199 H   0  0  0  0  0  0  0  0  0  0  0  0
    1.6338   -9.5741    7.0672 H   0  0  0  0  0  0  0  0  0  0  0  0
    6.4917   -8.2983    6.4516 H   0  0  0  0  0  0  0  0  0  0  0  0
    5.6603   -9.4229    7.5119 H   0  0  0  0  0  0  0  0  0  0  0  0
    6.6361   -8.1198    8.1567 H   0  0  0  0  0  0  0  0  0  0  0  0
  1  2  2  0
  1 45  1  0
  1 46  1  0
  2  7  1  0
  2  3  1  0
  3  4  1  0
  3  5  1  0
  3 47  1  1
  4 48  1  0
  5 43  1  0
  5  6  1  0
  5 49  1  1
  6  7  1  0
  6 50  1  0
  6 51  1  0
  7  8  1  0
  7 52  1  1
  8 36  1  0
  8  9  1  0
  8 53  1  1
  9 10  1  0
  9 54  1  0
  9 55  1  0
 10 11  1  0
 10 56  1  0
 10 57  1  0
 11 12  2  3
 11 58  1  0
 12 37  1  0
 12 13  1  0
 13 43  1  0
 13 14  1  1
 13 15  1  0
 14 59  1  0
 15 16  1  0
 15 60  1  0
 15 61  1  0
 16 32  1  0
 16 17  1  6
 16 18  1  0
 17 62  1  0
 17 63  1  0
 17 64  1  0
 18 28  1  0
 18 19  1  0
 18 65  1  6
 19 20  1  0
 19 30  1  0
 19 66  1  6
 21 20  1  1
 21 27  1  0
 21 22  1  0
 21 28  1  0
 22 23  1  0
 22 67  1  0
 22 68  1  0
 23 24  1  0
 23 69  1  0
 23 70  1  0
 24 25  1  0
 24 26  1  0
 24 71  1  6
 25 72  1  0
 25 73  1  0
 25 74  1  0
 26 27  1  0
 26 75  1  0
 26 76  1  0
 28 29  1  0
 28 77  1  6
 29 78  1  0
 29 79  1  0
 29 80  1  0
 30 31  1  0
 30 32  1  0
 30 81  1  1
 31 82  1  0
 32 33  1  6
 32 34  1  0
 33 83  1  0
 33 84  1  0
 33 85  1  0
 34 41  1  0
 34 35  1  0
 34 86  1  6
 35 36  1  0
 35 37  1  0
 35 87  1  6
 36 88  1  0
 36 89  1  0
 37 38  1  6
 37 39  1  0
 38 90  1  0
 38 91  1  0
 38 92  1  0
 39 40  1  6
 39 41  1  0
 39 43  1  0
 40 93  1  0
 41 42  1  0
 41 94  1  6
 42 95  1  0
 43 44  1  6
 44 96  1  0
 44 97  1  0
 44 98  1  0
M  END
>  <i_m_ct_stereo_status>  (131) 
1

>  <s_m_source_file>  (131) 
/var/tmp/pbs.5076255.sched01/tmp1pob34vh/39rbzpz6sd.sdf

>  <i_m_source_file_index>  (131) 
26

>  <i_lp_mmshare_version>  (131) 
48012

>  <i_f3d_flags>  (131) 
0

>  <s_epik_input>  (131) 
W0NIXT0xXFtDSDJdW0NIMl1bQ0BASF0oW0NIMl0yKVtDQEhdKFtDSDJdMylDKD1bQ0gyXSlbQ0BASF0oW09IXSlbQ0BASF0zW0NAQF0oW0NIM10pKEM0KFtPSF0pW0NASF01W09IXSlbQ0BAXShbT0hdKShbQ0gyXTYpXEMxW0NAXTQoW0NIM10pW0NASF0yW0NASF01W0NAQF0oW0NIM10pKFtDQEBIXTdbT0hdKVtDQEBdNihbQ0gzXSlbQ0BIXShbQ0BASF04W0NIM10pW0NAQEhdN09bQ0BAXTg5W0NIMl1bQ0gyXVtDQEBIXShbQ0gzXSlbQ0gyXU85

>  <s_epik_cmdline>  (131) 
J2VwaWtfcHl0aG9uJywgJy1waHQnLCAnMi4wJywgJy1waCcsICc3LjAnLCAnLXRuJywgJzgnLCAnLW1hJywgJzIwMCcsICctaW1hZScsICc8aW5maWxlLm1hZT4nLCAnLW9tYWUnLCAnPG91dGZpbGUubWFlPic=

>  <r_lp_tautomer_probability>  (131) 
1

>  <r_epik_Ionization_Penalty>  (131) 
1.00283e-06

>  <r_epik_Ionization_Penalty_Charging>  (131) 
0

>  <r_epik_Ionization_Penalty_Neutral>  (131) 
1.00283e-06

>  <r_epik_State_Penalty>  (131) 
-0

>  <r_epik_Charging_Adjusted_Penalty>  (131) 
0

>  <i_epik_Tot_Q>  (131) 
0

>  <i_epik_Tot_abs_Q>  (131) 
0

>  <s_lp_Force_Field>  (131) 
OPLS3e

>  <r_lp_Energy>  (131) 
429.995

>  <b_lp_Chiralities_Consistent>  (131) 
1

>  <s_lp_Variant>  (131) 
43:0-1

>  <s_i_glide_gridfile>  (131) 
pfpi4k_grid

>  <i_i_glide_lignum>  (131) 
26

>  <i_i_glide_rotatable_bonds>  (131) 
5

>  <r_i_docking_score>  (131) 
-2.13533

>  <r_i_glide_ligand_efficiency>  (131) 
-0.0485302

>  <r_i_glide_ligand_efficiency_sa>  (131) 
-0.171329

>  <r_i_glide_ligand_efficiency_ln>  (131) 
-0.44633

>  <r_i_glide_gscore>  (131) 
-2.13533

>  <r_i_glide_lipo>  (131) 
-0.0971816

>  <r_i_glide_hbond>  (131) 
0

>  <r_i_glide_metal>  (131) 
-0

>  <r_i_glide_rewards>  (131) 
-0.530162

>  <r_i_glide_evdw>  (131) 
-25.2967

>  <r_i_glide_ecoul>  (131) 
-1.62099

>  <r_i_glide_erotb>  (131) 
0

>  <r_i_glide_esite>  (131) 
0

>  <r_i_glide_emodel>  (131) 
-35.5136

>  <r_i_glide_energy>  (131) 
-26.9177

>  <r_i_glide_einternal>  (131) 
1.50531

>  <r_i_glide_intrahb_reward>  (131) 
-0.5

>  <i_i_glide_confnum>  (131) 
1

>  <i_i_glide_posenum>  (131) 
1

>  <r_i_glide_eff_state_penalty>  (131) 
0

>  <ligand_id>  (131) 
43

>  <original_smiles>  (131) 
C=C1C(O)C2CC1C1CCC=C3C4(O)CC5(C)C6C(OC7(CCC(C)CO7)C6C)C(O)C5(C)C5C(C1)C3(C)C(O)(C5O)C24C

>  <smiles>  (131) 
[H]OC1([H])C(=C([H])[H])C2([H])C([H])([H])C1([H])C1(C([H])([H])[H])C3(O[H])C4=C([H])C([H])([H])C([H])([H])C2([H])C([H])([H])C2([H])C([H])(C([H])(O[H])C1(O[H])C42C([H])([H])[H])C1(C([H])([H])[H])C([H])(O[H])C2([H])OC4(OC([H])([H])C([H])(C([H])([H])[H])C([H])([H])C4([H])[H])C([H])(C([H])([H])[H])C2([H])C1(C([H])([H])[H])C3([H])[H]

$$$$
43:1:0
     RDKit          3D

 98106  0  0  1  0  0  0  0  0999 V2000
    3.3668   -4.1654   -0.2694 C   0  0  0  0  0  0  0  0  0  0  0  0
    4.2316   -4.0732    0.7409 C   0  0  0  0  0  0  0  0  0  0  0  0
    4.3357   -2.8884    1.7021 C   0  0  1  0  0  0  0  0  0  0  0  0
    3.0897   -2.2781    1.9718 O   0  0  0  0  0  0  0  0  0  0  0  0
    5.2345   -3.3302    2.8913 C   0  0  2  0  0  0  0  0  0  0  0  0
    6.1831   -4.2344    2.0082 C   0  0  0  0  0  0  0  0  0  0  0  0
    5.3197   -5.0945    1.0320 C   0  0  1  0  0  0  0  0  0  0  0  0
    4.8625   -6.4518    1.6829 C   0  0  2  0  0  0  0  0  0  0  0  0
    5.9188   -7.5358    2.0251 C   0  0  0  0  0  0  0  0  0  0  0  0
    6.9169   -7.2831    3.1817 C   0  0  0  0  0  0  0  0  0  0  0  0
    6.5714   -6.2386    4.2414 C   0  0  0  0  0  0  0  0  0  0  0  0
    5.3780   -5.7684    4.6783 C   0  0  0  0  0  0  0  0  0  0  0  0
    5.1170   -4.5640    5.5297 C   0  0  2  0  0  0  0  0  0  0  0  0
    6.3296   -4.0241    6.0277 O   0  0  0  0  0  0  0  0  0  0  0  0
    4.1549   -4.9683    6.8980 C   0  0  0  0  0  0  0  0  0  0  0  0
    2.5548   -5.6207    7.0711 C   0  0  2  0  0  0  0  0  0  0  0  0
    1.8712   -4.4197    7.8672 C   0  0  0  0  0  0  0  0  0  0  0  0
    2.3499   -6.7589    8.1980 C   0  0  1  0  0  0  0  0  0  0  0  0
    1.2462   -7.7361    7.7810 C   0  0  2  0  0  0  0  0  0  0  0  0
    1.6438   -8.9811    8.3364 O   0  0  0  0  0  0  0  0  0  0  0  0
    2.3743   -8.7259    9.5000 C   0  0  2  0  0  0  0  0  0  0  0  0
    3.0073  -10.0471   10.0192 C   0  0  0  0  0  0  0  0  0  0  0  0
    1.9100  -11.0008   10.5240 C   0  0  0  0  0  0  0  0  0  0  0  0
    1.0217  -10.3061   11.5642 C   0  0  1  0  0  0  0  0  0  0  0  0
    1.7677  -10.0449   12.8827 C   0  0  0  0  0  0  0  0  0  0  0  0
    0.4855   -9.0039   10.9550 C   0  0  0  0  0  0  0  0  0  0  0  0
    1.5687   -8.1855   10.5244 O   0  0  0  0  0  0  0  0  0  0  0  0
    3.3451   -7.5924    9.0695 C   0  0  1  0  0  0  0  0  0  0  0  0
    4.6553   -8.2059    8.5297 C   0  0  0  0  0  0  0  0  0  0  0  0
    1.1203   -7.7062    6.2542 C   0  0  1  0  0  0  0  0  0  0  0  0
   -0.1575   -8.1529    5.8344 O   0  0  0  0  0  0  0  0  0  0  0  0
    1.4868   -6.2296    5.8193 C   0  0  1  0  0  0  0  0  0  0  0  0
    0.1084   -5.4727    5.9347 C   0  0  0  0  0  0  0  0  0  0  0  0
    1.7587   -6.2395    4.1515 C   0  0  2  0  0  0  0  0  0  0  0  0
    3.0542   -6.9531    3.5669 C   0  0  1  0  0  0  0  0  0  0  0  0
    3.4230   -6.9472    2.0050 C   0  0  0  0  0  0  0  0  0  0  0  0
    3.9436   -6.1820    4.5352 C   0  0  1  0  0  0  0  0  0  0  0  0
    4.2591   -7.3780    5.5495 C   0  0  0  0  0  0  0  0  0  0  0  0
    3.2916   -4.6234    4.3578 C   0  0  2  0  0  0  0  0  0  0  0  0
    2.5510   -3.7529    5.1961 O   0  0  0  0  0  0  0  0  0  0  0  0
    1.9183   -4.7980    3.6502 C   0  0  1  0  0  0  0  0  0  0  0  0
    1.8132   -4.6353    2.2754 O   0  0  0  0  0  0  0  0  0  0  0  0
    4.5095   -3.6263    4.3548 C   0  0  2  0  0  0  0  0  0  0  0  0
    4.4293   -2.1607    4.9646 C   0  0  0  0  0  0  0  0  0  0  0  0
    3.3961   -5.0413   -0.8901 H   0  0  0  0  0  0  0  0  0  0  0  0
    2.6328   -3.3984   -0.4820 H   0  0  0  0  0  0  0  0  0  0  0  0
    4.9007   -2.1389    1.1417 H   0  0  0  0  0  0  0  0  0  0  0  0
    2.8267   -1.8008    1.1929 H   0  0  0  0  0  0  0  0  0  0  0  0
    5.8889   -2.4848    3.0876 H   0  0  0  0  0  0  0  0  0  0  0  0
    6.7364   -3.5497    1.3579 H   0  0  0  0  0  0  0  0  0  0  0  0
    7.0132   -4.7340    2.4822 H   0  0  0  0  0  0  0  0  0  0  0  0
    5.8677   -5.3051    0.1146 H   0  0  0  0  0  0  0  0  0  0  0  0
    4.7942   -5.8381    2.4953 H   0  0  0  0  0  0  0  0  0  0  0  0
    5.4051   -8.4582    2.2899 H   0  0  0  0  0  0  0  0  0  0  0  0
    6.4760   -7.7851    1.1264 H   0  0  0  0  0  0  0  0  0  0  0  0
    7.2096   -8.2143    3.6701 H   0  0  0  0  0  0  0  0  0  0  0  0
    7.8345   -6.9119    2.7190 H   0  0  0  0  0  0  0  0  0  0  0  0
    7.4525   -5.7182    4.5978 H   0  0  0  0  0  0  0  0  0  0  0  0
    6.6241   -4.5783    6.7376 H   0  0  0  0  0  0  0  0  0  0  0  0
    4.7783   -5.5850    7.5311 H   0  0  0  0  0  0  0  0  0  0  0  0
    4.1674   -4.0398    7.4686 H   0  0  0  0  0  0  0  0  0  0  0  0
    0.8598   -4.6243    8.2190 H   0  0  0  0  0  0  0  0  0  0  0  0
    1.8107   -3.4617    7.3610 H   0  0  0  0  0  0  0  0  0  0  0  0
    2.4275   -4.2034    8.7798 H   0  0  0  0  0  0  0  0  0  0  0  0
    1.8659   -6.2849    9.0536 H   0  0  0  0  0  0  0  0  0  0  0  0
    0.3066   -7.4297    8.2437 H   0  0  0  0  0  0  0  0  0  0  0  0
    3.5681  -10.5380    9.2212 H   0  0  0  0  0  0  0  0  0  0  0  0
    3.7108   -9.8127   10.8160 H   0  0  0  0  0  0  0  0  0  0  0  0
    1.2998  -11.3334    9.6830 H   0  0  0  0  0  0  0  0  0  0  0  0
    2.3600  -11.9003   10.9495 H   0  0  0  0  0  0  0  0  0  0  0  0
    0.1770  -10.9620   11.7796 H   0  0  0  0  0  0  0  0  0  0  0  0
    2.6084   -9.3662   12.7428 H   0  0  0  0  0  0  0  0  0  0  0  0
    2.1596  -10.9682   13.3073 H   0  0  0  0  0  0  0  0  0  0  0  0
    1.1168   -9.5837   13.6236 H   0  0  0  0  0  0  0  0  0  0  0  0
   -0.1864   -9.2012   10.1178 H   0  0  0  0  0  0  0  0  0  0  0  0
   -0.0993   -8.4570   11.6958 H   0  0  0  0  0  0  0  0  0  0  0  0
    3.6230   -7.0232    9.9580 H   0  0  0  0  0  0  0  0  0  0  0  0
    4.4928   -8.8988    7.7069 H   0  0  0  0  0  0  0  0  0  0  0  0
    5.1550   -8.7810    9.3064 H   0  0  0  0  0  0  0  0  0  0  0  0
    5.3940   -7.4559    8.2646 H   0  0  0  0  0  0  0  0  0  0  0  0
    1.7530   -8.4702    5.8085 H   0  0  0  0  0  0  0  0  0  0  0  0
   -0.1916   -9.0943    5.9538 H   0  0  0  0  0  0  0  0  0  0  0  0
   -0.5773   -5.7489    5.1322 H   0  0  0  0  0  0  0  0  0  0  0  0
    0.1939   -4.3896    5.8870 H   0  0  0  0  0  0  0  0  0  0  0  0
   -0.4229   -5.6980    6.8584 H   0  0  0  0  0  0  0  0  0  0  0  0
    0.8969   -6.6860    3.6534 H   0  0  0  0  0  0  0  0  0  0  0  0
    2.9164   -8.0112    3.7881 H   0  0  0  0  0  0  0  0  0  0  0  0
    2.6891   -6.5168    1.3332 H   0  0  0  0  0  0  0  0  0  0  0  0
    3.3662   -7.9860    1.6749 H   0  0  0  0  0  0  0  0  0  0  0  0
    3.5049   -7.7345    6.1908 H   0  0  0  0  0  0  0  0  0  0  0  0
    5.1043   -7.2795    6.2266 H   0  0  0  0  0  0  0  0  0  0  0  0
    4.5799   -8.2593    4.9897 H   0  0  0  0  0  0  0  0  0  0  0  0
    2.4012   -2.9582    4.7091 H   0  0  0  0  0  0  0  0  0  0  0  0
    1.0158   -4.2160    3.8974 H   0  0  0  0  0  0  0  0  0  0  0  0
    2.1382   -3.7565    2.0773 H   0  0  0  0  0  0  0  0  0  0  0  0
    4.1173   -2.1300    6.0098 H   0  0  0  0  0  0  0  0  0  0  0  0
    3.7639   -1.5150    4.3937 H   0  0  0  0  0  0  0  0  0  0  0  0
    5.4077   -1.6791    4.9747 H   0  0  0  0  0  0  0  0  0  0  0  0
  1  2  2  0
  1 45  1  0
  1 46  1  0
  2  7  1  0
  2  3  1  0
  3  4  1  0
  3  5  1  0
  3 47  1  6
  4 48  1  0
  5 43  1  0
  5  6  1  0
  5 49  1  1
  6  7  1  0
  6 50  1  0
  6 51  1  0
  7  8  1  0
  7 52  1  6
  8 36  1  0
  8  9  1  0
  8 53  1  1
  9 10  1  0
  9 54  1  0
  9 55  1  0
 10 11  1  0
 10 56  1  0
 10 57  1  0
 11 12  2  3
 11 58  1  0
 12 37  1  0
 12 13  1  0
 13 43  1  0
 13 14  1  1
 13 15  1  0
 14 59  1  0
 15 16  1  0
 15 60  1  0
 15 61  1  0
 16 32  1  0
 16 17  1  1
 16 18  1  0
 17 62  1  0
 17 63  1  0
 17 64  1  0
 18 28  1  0
 18 19  1  0
 18 65  1  1
 19 20  1  0
 19 30  1  0
 19 66  1  1
 21 20  1  6
 21 27  1  0
 21 22  1  0
 21 28  1  0
 22 23  1  0
 22 67  1  0
 22 68  1  0
 23 24  1  0
 23 69  1  0
 23 70  1  0
 24 25  1  0
 24 26  1  0
 24 71  1  1
 25 72  1  0
 25 73  1  0
 25 74  1  0
 26 27  1  0
 26 75  1  0
 26 76  1  0
 28 29  1  0
 28 77  1  1
 29 78  1  0
 29 79  1  0
 29 80  1  0
 30 31  1  0
 30 32  1  0
 30 81  1  6
 31 82  1  0
 32 33  1  6
 32 34  1  0
 33 83  1  0
 33 84  1  0
 33 85  1  0
 34 41  1  0
 34 35  1  0
 34 86  1  6
 35 36  1  0
 35 37  1  0
 35 87  1  1
 36 88  1  0
 36 89  1  0
 37 38  1  1
 37 39  1  0
 38 90  1  0
 38 91  1  0
 38 92  1  0
 39 40  1  1
 39 41  1  0
 39 43  1  0
 40 93  1  0
 41 42  1  0
 41 94  1  1
 42 95  1  0
 43 44  1  1
 44 96  1  0
 44 97  1  0
 44 98  1  0
M  END
>  <i_m_ct_stereo_status>  (132) 
1

>  <s_m_source_file>  (132) 
/var/tmp/pbs.5076255.sched01/tmp1pob34vh/39rbzpz6sd.sdf

>  <i_m_source_file_index>  (132) 
27

>  <i_lp_mmshare_version>  (132) 
48012

>  <i_f3d_flags>  (132) 
2

>  <s_epik_input>  (132) 
W0NIXT0xXFtDSDJdW0NIMl1bQ0BASF0oW0NIMl0yKVtDQEhdKFtDSDJdMylDKD1bQ0gyXSlbQ0BASF0oW09IXSlbQ0BASF0zW0NAQF0oW0NIM10pKEM0KFtPSF0pW0NASF01W09IXSlbQ0BAXShbT0hdKShbQ0gyXTYpXEMxW0NAXTQoW0NIM10pW0NASF0yW0NASF01W0NAQF0oW0NIM10pKFtDQEBIXTdbT0hdKVtDQEBdNihbQ0gzXSlbQ0BIXShbQ0BASF04W0NIM10pW0NAQEhdN09bQ0BAXTg5W0NIMl1bQ0gyXVtDQEBIXShbQ0gzXSlbQ0gyXU85

>  <s_epik_cmdline>  (132) 
J2VwaWtfcHl0aG9uJywgJy1waHQnLCAnMi4wJywgJy1waCcsICc3LjAnLCAnLXRuJywgJzgnLCAnLW1hJywgJzIwMCcsICctaW1hZScsICc8aW5maWxlLm1hZT4nLCAnLW9tYWUnLCAnPG91dGZpbGUubWFlPic=

>  <r_lp_tautomer_probability>  (132) 
1

>  <r_epik_Ionization_Penalty>  (132) 
1.00283e-06

>  <r_epik_Ionization_Penalty_Charging>  (132) 
0

>  <r_epik_Ionization_Penalty_Neutral>  (132) 
1.00283e-06

>  <r_epik_State_Penalty>  (132) 
-0

>  <r_epik_Charging_Adjusted_Penalty>  (132) 
0

>  <i_epik_Tot_Q>  (132) 
0

>  <i_epik_Tot_abs_Q>  (132) 
0

>  <s_lp_Force_Field>  (132) 
OPLS3e

>  <r_lp_Energy>  (132) 
466.594

>  <b_lp_Chiralities_Consistent>  (132) 
0

>  <s_lp_Variant>  (132) 
43:0-2

>  <s_i_glide_gridfile>  (132) 
pfpi4k_grid

>  <i_i_glide_lignum>  (132) 
27

>  <i_i_glide_rotatable_bonds>  (132) 
5

>  <r_i_docking_score>  (132) 
-2.44596

>  <r_i_glide_ligand_efficiency>  (132) 
-0.0555901

>  <r_i_glide_ligand_efficiency_sa>  (132) 
-0.196252

>  <r_i_glide_ligand_efficiency_ln>  (132) 
-0.51126

>  <r_i_glide_gscore>  (132) 
-2.44596

>  <r_i_glide_lipo>  (132) 
-0.35078

>  <r_i_glide_hbond>  (132) 
0

>  <r_i_glide_metal>  (132) 
-0

>  <r_i_glide_rewards>  (132) 
-0.5

>  <r_i_glide_evdw>  (132) 
-23.1864

>  <r_i_glide_ecoul>  (132) 
-2.81728

>  <r_i_glide_erotb>  (132) 
0

>  <r_i_glide_esite>  (132) 
-0.0132708

>  <r_i_glide_emodel>  (132) 
-35.2506

>  <r_i_glide_energy>  (132) 
-26.0037

>  <r_i_glide_einternal>  (132) 
1.26219

>  <r_i_glide_intrahb_reward>  (132) 
-0.5

>  <i_i_glide_confnum>  (132) 
2

>  <i_i_glide_posenum>  (132) 
15

>  <r_i_glide_eff_state_penalty>  (132) 
0

>  <ligand_id>  (132) 
43

>  <original_smiles>  (132) 
C=C1C(O)C2CC1C1CCC=C3C4(O)CC5(C)C6C(OC7(CCC(C)CO7)C6C)C(O)C5(C)C5C(C1)C3(C)C(O)(C5O)C24C

>  <smiles>  (132) 
[H]OC1([H])C(=C([H])[H])C2([H])C([H])([H])C1([H])C1(C([H])([H])[H])C3(O[H])C4=C([H])C([H])([H])C([H])([H])C2([H])C([H])([H])C2([H])C([H])(C([H])(O[H])C1(O[H])C42C([H])([H])[H])C1(C([H])([H])[H])C([H])(O[H])C2([H])OC4(OC([H])([H])C([H])(C([H])([H])[H])C([H])([H])C4([H])[H])C([H])(C([H])([H])[H])C2([H])C1(C([H])([H])[H])C3([H])[H]

$$$$
43:1:1
     RDKit          3D

 98106  0  0  1  0  0  0  0  0999 V2000
    0.9483   -9.5450    9.3014 C   0  0  0  0  0  0  0  0  0  0  0  0
    2.1246   -8.9121    9.2093 C   0  0  0  0  0  0  0  0  0  0  0  0
    3.4673   -9.5691    8.8559 C   0  0  1  0  0  0  0  0  0  0  0  0
    3.4112  -10.6162    7.8979 O   0  0  0  0  0  0  0  0  0  0  0  0
    4.4798   -8.4204    8.5940 C   0  0  2  0  0  0  0  0  0  0  0  0
    3.8867   -7.4561    9.6929 C   0  0  0  0  0  0  0  0  0  0  0  0
    2.3250   -7.4601    9.5980 C   0  0  1  0  0  0  0  0  0  0  0  0
    1.7761   -6.3910    8.5842 C   0  0  2  0  0  0  0  0  0  0  0  0
    1.9515   -4.8830    8.8889 C   0  0  0  0  0  0  0  0  0  0  0  0
    3.3712   -4.2654    8.8336 C   0  0  0  0  0  0  0  0  0  0  0  0
    4.4654   -4.9901    8.0519 C   0  0  0  0  0  0  0  0  0  0  0  0
    4.3983   -5.8477    7.0074 C   0  0  0  0  0  0  0  0  0  0  0  0
    5.4812   -6.7262    6.4585 C   0  0  2  0  0  0  0  0  0  0  0  0
    6.7221   -6.4506    7.0826 O   0  0  0  0  0  0  0  0  0  0  0  0
    5.6815   -6.4734    4.7676 C   0  0  0  0  0  0  0  0  0  0  0  0
    4.6223   -6.6834    3.4068 C   0  0  2  0  0  0  0  0  0  0  0  0
    5.4556   -7.7784    2.6015 C   0  0  0  0  0  0  0  0  0  0  0  0
    4.6520   -5.5301    2.2773 C   0  0  1  0  0  0  0  0  0  0  0  0
    3.2802   -5.3985    1.6072 C   0  0  2  0  0  0  0  0  0  0  0  0
    3.1773   -4.0188    1.2882 O   0  0  0  0  0  0  0  0  0  0  0  0
    4.4665   -3.5363    1.0424 C   0  0  2  0  0  0  0  0  0  0  0  0
    4.4243   -1.9905    0.8917 C   0  0  0  0  0  0  0  0  0  0  0  0
    3.6803   -1.6191   -0.3950 C   0  0  0  0  0  0  0  0  0  0  0  0
    4.2856   -2.3285   -1.6051 C   0  0  1  0  0  0  0  0  0  0  0  0
    5.6863   -1.8035   -1.9213 C   0  0  0  0  0  0  0  0  0  0  0  0
    4.3124   -3.8307   -1.3306 C   0  0  0  0  0  0  0  0  0  0  0  0
    5.0299   -4.0864   -0.1266 O   0  0  0  0  0  0  0  0  0  0  0  0
    5.2873   -4.1046    2.2248 C   0  0  1  0  0  0  0  0  0  0  0  0
    5.2385   -3.1014    3.3970 C   0  0  0  0  0  0  0  0  0  0  0  0
    2.2059   -5.9243    2.5648 C   0  0  1  0  0  0  0  0  0  0  0  0
    1.0323   -6.3070    1.8552 O   0  0  0  0  0  0  0  0  0  0  0  0
    2.9092   -7.0716    3.4037 C   0  0  1  0  0  0  0  0  0  0  0  0
    2.6927   -8.3426    2.4985 C   0  0  0  0  0  0  0  0  0  0  0  0
    1.9359   -7.4069    4.7448 C   0  0  2  0  0  0  0  0  0  0  0  0
    1.8244   -6.3463    5.9252 C   0  0  1  0  0  0  0  0  0  0  0  0
    0.9829   -6.6130    7.2624 C   0  0  0  0  0  0  0  0  0  0  0  0
    3.3407   -6.2610    6.0266 C   0  0  1  0  0  0  0  0  0  0  0  0
    3.5288   -4.8360    5.3241 C   0  0  0  0  0  0  0  0  0  0  0  0
    3.7285   -7.9145    5.9817 C   0  0  2  0  0  0  0  0  0  0  0  0
    4.3849   -8.7493    5.0423 O   0  0  0  0  0  0  0  0  0  0  0  0
    2.4587   -8.6602    5.4665 C   0  0  1  0  0  0  0  0  0  0  0  0
    1.5407   -9.2482    6.3370 O   0  0  0  0  0  0  0  0  0  0  0  0
    4.8989   -8.1297    7.0152 C   0  0  2  0  0  0  0  0  0  0  0  0
    6.0624   -9.1922    6.8035 C   0  0  0  0  0  0  0  0  0  0  0  0
    0.0581   -9.0141    9.6065 H   0  0  0  0  0  0  0  0  0  0  0  0
    0.8741  -10.5949    9.0737 H   0  0  0  0  0  0  0  0  0  0  0  0
    3.7589  -10.0555    9.7893 H   0  0  0  0  0  0  0  0  0  0  0  0
    2.6940  -11.2109    8.0847 H   0  0  0  0  0  0  0  0  0  0  0  0
    5.4059   -8.7204    9.0760 H   0  0  0  0  0  0  0  0  0  0  0  0
    4.0943   -7.9304   10.6568 H   0  0  0  0  0  0  0  0  0  0  0  0
    4.3725   -6.5063    9.8500 H   0  0  0  0  0  0  0  0  0  0  0  0
    1.8732   -7.2856   10.5751 H   0  0  0  0  0  0  0  0  0  0  0  0
    2.6113   -6.7013    8.0905 H   0  0  0  0  0  0  0  0  0  0  0  0
    1.3638   -4.3071    8.1769 H   0  0  0  0  0  0  0  0  0  0  0  0
    1.5038   -4.6645    9.8548 H   0  0  0  0  0  0  0  0  0  0  0  0
    3.3404   -3.2163    8.5315 H   0  0  0  0  0  0  0  0  0  0  0  0
    3.7353   -4.2486    9.8636 H   0  0  0  0  0  0  0  0  0  0  0  0
    5.4394   -4.8818    8.5121 H   0  0  0  0  0  0  0  0  0  0  0  0
    7.3562   -7.0682    6.7405 H   0  0  0  0  0  0  0  0  0  0  0  0
    6.0907   -5.4772    4.6647 H   0  0  0  0  0  0  0  0  0  0  0  0
    6.5719   -7.0651    4.5515 H   0  0  0  0  0  0  0  0  0  0  0  0
    5.0630   -8.0137    1.6120 H   0  0  0  0  0  0  0  0  0  0  0  0
    5.6073   -8.7393    3.0855 H   0  0  0  0  0  0  0  0  0  0  0  0
    6.4648   -7.4164    2.4043 H   0  0  0  0  0  0  0  0  0  0  0  0
    5.2326   -5.9149    1.4382 H   0  0  0  0  0  0  0  0  0  0  0  0
    3.2819   -5.9747    0.6812 H   0  0  0  0  0  0  0  0  0  0  0  0
    3.9089   -1.5333    1.7378 H   0  0  0  0  0  0  0  0  0  0  0  0
    5.4413   -1.6037    0.8761 H   0  0  0  0  0  0  0  0  0  0  0  0
    2.6278   -1.8931   -0.3008 H   0  0  0  0  0  0  0  0  0  0  0  0
    3.7136   -0.5412   -0.5418 H   0  0  0  0  0  0  0  0  0  0  0  0
    3.6432   -2.1410   -2.4692 H   0  0  0  0  0  0  0  0  0  0  0  0
    6.3992   -1.9767   -1.1142 H   0  0  0  0  0  0  0  0  0  0  0  0
    5.6583   -0.7347   -2.1277 H   0  0  0  0  0  0  0  0  0  0  0  0
    6.0856   -2.3056   -2.7953 H   0  0  0  0  0  0  0  0  0  0  0  0
    3.2998   -4.2305   -1.2619 H   0  0  0  0  0  0  0  0  0  0  0  0
    4.8030   -4.3513   -2.1528 H   0  0  0  0  0  0  0  0  0  0  0  0
    6.3314   -4.1782    1.9137 H   0  0  0  0  0  0  0  0  0  0  0  0
    4.2287   -2.8418    3.7026 H   0  0  0  0  0  0  0  0  0  0  0  0
    5.7231   -2.1700    3.1119 H   0  0  0  0  0  0  0  0  0  0  0  0
    5.8146   -3.4327    4.2513 H   0  0  0  0  0  0  0  0  0  0  0  0
    1.8215   -5.1075    3.1722 H   0  0  0  0  0  0  0  0  0  0  0  0
    1.2198   -7.1243    1.4084 H   0  0  0  0  0  0  0  0  0  0  0  0
    1.6611   -8.6977    2.5252 H   0  0  0  0  0  0  0  0  0  0  0  0
    3.2976   -9.1970    2.7927 H   0  0  0  0  0  0  0  0  0  0  0  0
    2.9226   -8.1609    1.4506 H   0  0  0  0  0  0  0  0  0  0  0  0
    0.9200   -7.6107    4.4091 H   0  0  0  0  0  0  0  0  0  0  0  0
    1.3295   -5.4800    5.4880 H   0  0  0  0  0  0  0  0  0  0  0  0
    0.3976   -7.5236    7.2932 H   0  0  0  0  0  0  0  0  0  0  0  0
    0.1676   -5.8868    7.2614 H   0  0  0  0  0  0  0  0  0  0  0  0
    3.3723   -4.7326    4.2862 H   0  0  0  0  0  0  0  0  0  0  0  0
    4.4636   -4.3028    5.4725 H   0  0  0  0  0  0  0  0  0  0  0  0
    2.8478   -4.1135    5.7757 H   0  0  0  0  0  0  0  0  0  0  0  0
    4.3051   -9.6369    5.3580 H   0  0  0  0  0  0  0  0  0  0  0  0
    2.4874   -9.5044    4.7596 H   0  0  0  0  0  0  0  0  0  0  0  0
    1.9103  -10.0682    6.6489 H   0  0  0  0  0  0  0  0  0  0  0  0
    6.6102   -9.0792    5.8674 H   0  0  0  0  0  0  0  0  0  0  0  0
    5.6932  -10.2138    6.8499 H   0  0  0  0  0  0  0  0  0  0  0  0
    6.8310   -9.1032    7.5729 H   0  0  0  0  0  0  0  0  0  0  0  0
  1  2  2  0
  1 45  1  0
  1 46  1  0
  2  7  1  0
  2  3  1  0
  3  4  1  0
  3  5  1  0
  3 47  1  1
  4 48  1  0
  5 43  1  0
  5  6  1  0
  5 49  1  1
  6  7  1  0
  6 50  1  0
  6 51  1  0
  7  8  1  0
  7 52  1  1
  8 36  1  0
  8  9  1  0
  8 53  1  6
  9 10  1  0
  9 54  1  0
  9 55  1  0
 10 11  1  0
 10 56  1  0
 10 57  1  0
 11 12  2  3
 11 58  1  0
 12 37  1  0
 12 13  1  0
 13 43  1  0
 13 14  1  1
 13 15  1  0
 14 59  1  0
 15 16  1  0
 15 60  1  0
 15 61  1  0
 16 32  1  0
 16 17  1  6
 16 18  1  0
 17 62  1  0
 17 63  1  0
 17 64  1  0
 18 28  1  0
 18 19  1  0
 18 65  1  6
 19 20  1  0
 19 30  1  0
 19 66  1  6
 21 20  1  1
 21 27  1  0
 21 22  1  0
 21 28  1  0
 22 23  1  0
 22 67  1  0
 22 68  1  0
 23 24  1  0
 23 69  1  0
 23 70  1  0
 24 25  1  0
 24 26  1  0
 24 71  1  6
 25 72  1  0
 25 73  1  0
 25 74  1  0
 26 27  1  0
 26 75  1  0
 26 76  1  0
 28 29  1  0
 28 77  1  6
 29 78  1  0
 29 79  1  0
 29 80  1  0
 30 31  1  0
 30 32  1  0
 30 81  1  1
 31 82  1  0
 32 33  1  6
 32 34  1  0
 33 83  1  0
 33 84  1  0
 33 85  1  0
 34 41  1  0
 34 35  1  0
 34 86  1  6
 35 36  1  0
 35 37  1  0
 35 87  1  6
 36 88  1  0
 36 89  1  0
 37 38  1  6
 37 39  1  0
 38 90  1  0
 38 91  1  0
 38 92  1  0
 39 40  1  6
 39 41  1  0
 39 43  1  0
 40 93  1  0
 41 42  1  0
 41 94  1  6
 42 95  1  0
 43 44  1  6
 44 96  1  0
 44 97  1  0
 44 98  1  0
M  END
>  <i_m_ct_stereo_status>  (133) 
1

>  <s_m_source_file>  (133) 
/var/tmp/pbs.5076255.sched01/tmp1pob34vh/39rbzpz6sd.sdf

>  <i_m_source_file_index>  (133) 
27

>  <i_lp_mmshare_version>  (133) 
48012

>  <i_f3d_flags>  (133) 
2

>  <s_epik_input>  (133) 
W0NIXT0xXFtDSDJdW0NIMl1bQ0BASF0oW0NIMl0yKVtDQEhdKFtDSDJdMylDKD1bQ0gyXSlbQ0BASF0oW09IXSlbQ0BASF0zW0NAQF0oW0NIM10pKEM0KFtPSF0pW0NASF01W09IXSlbQ0BAXShbT0hdKShbQ0gyXTYpXEMxW0NAXTQoW0NIM10pW0NASF0yW0NASF01W0NAQF0oW0NIM10pKFtDQEBIXTdbT0hdKVtDQEBdNihbQ0gzXSlbQ0BIXShbQ0BASF04W0NIM10pW0NAQEhdN09bQ0BAXTg5W0NIMl1bQ0gyXVtDQEBIXShbQ0gzXSlbQ0gyXU85

>  <s_epik_cmdline>  (133) 
J2VwaWtfcHl0aG9uJywgJy1waHQnLCAnMi4wJywgJy1waCcsICc3LjAnLCAnLXRuJywgJzgnLCAnLW1hJywgJzIwMCcsICctaW1hZScsICc8aW5maWxlLm1hZT4nLCAnLW9tYWUnLCAnPG91dGZpbGUubWFlPic=

>  <r_lp_tautomer_probability>  (133) 
1

>  <r_epik_Ionization_Penalty>  (133) 
1.00283e-06

>  <r_epik_Ionization_Penalty_Charging>  (133) 
0

>  <r_epik_Ionization_Penalty_Neutral>  (133) 
1.00283e-06

>  <r_epik_State_Penalty>  (133) 
-0

>  <r_epik_Charging_Adjusted_Penalty>  (133) 
0

>  <i_epik_Tot_Q>  (133) 
0

>  <i_epik_Tot_abs_Q>  (133) 
0

>  <s_lp_Force_Field>  (133) 
OPLS3e

>  <r_lp_Energy>  (133) 
466.594

>  <b_lp_Chiralities_Consistent>  (133) 
0

>  <s_lp_Variant>  (133) 
43:0-2

>  <s_i_glide_gridfile>  (133) 
pfpi4k_grid

>  <i_i_glide_lignum>  (133) 
27

>  <i_i_glide_rotatable_bonds>  (133) 
5

>  <r_i_docking_score>  (133) 
-2.27255

>  <r_i_glide_ligand_efficiency>  (133) 
-0.0516488

>  <r_i_glide_ligand_efficiency_sa>  (133) 
-0.182338

>  <r_i_glide_ligand_efficiency_ln>  (133) 
-0.475012

>  <r_i_glide_gscore>  (133) 
-2.27255

>  <r_i_glide_lipo>  (133) 
-0.0963536

>  <r_i_glide_hbond>  (133) 
0

>  <r_i_glide_metal>  (133) 
-0

>  <r_i_glide_rewards>  (133) 
-0.0298224

>  <r_i_glide_evdw>  (133) 
-23.5912

>  <r_i_glide_ecoul>  (133) 
-6.44541

>  <r_i_glide_erotb>  (133) 
0

>  <r_i_glide_esite>  (133) 
0

>  <r_i_glide_emodel>  (133) 
-33.8169

>  <r_i_glide_energy>  (133) 
-30.0366

>  <r_i_glide_einternal>  (133) 
1.5388

>  <r_i_glide_intrahb_reward>  (133) 
-0

>  <i_i_glide_confnum>  (133) 
1

>  <i_i_glide_posenum>  (133) 
1

>  <r_i_glide_eff_state_penalty>  (133) 
0

>  <ligand_id>  (133) 
43

>  <original_smiles>  (133) 
C=C1C(O)C2CC1C1CCC=C3C4(O)CC5(C)C6C(OC7(CCC(C)CO7)C6C)C(O)C5(C)C5C(C1)C3(C)C(O)(C5O)C24C

>  <smiles>  (133) 
[H]OC1([H])C(=C([H])[H])C2([H])C([H])([H])C1([H])C1(C([H])([H])[H])C3(O[H])C4=C([H])C([H])([H])C([H])([H])C2([H])C([H])([H])C2([H])C([H])(C([H])(O[H])C1(O[H])C42C([H])([H])[H])C1(C([H])([H])[H])C([H])(O[H])C2([H])OC4(OC([H])([H])C([H])(C([H])([H])[H])C([H])([H])C4([H])[H])C([H])(C([H])([H])[H])C2([H])C1(C([H])([H])[H])C3([H])[H]

$$$$
43:1:2
     RDKit          3D

 98106  0  0  1  0  0  0  0  0999 V2000
    0.9521   -9.5371    9.3071 C   0  0  0  0  0  0  0  0  0  0  0  0
    2.1227   -8.9092    9.2128 C   0  0  0  0  0  0  0  0  0  0  0  0
    3.4693   -9.5635    8.8586 C   0  0  1  0  0  0  0  0  0  0  0  0
    3.4124  -10.6138    7.9021 O   0  0  0  0  0  0  0  0  0  0  0  0
    4.4809   -8.4142    8.5974 C   0  0  2  0  0  0  0  0  0  0  0  0
    3.8878   -7.4495    9.6954 C   0  0  0  0  0  0  0  0  0  0  0  0
    2.3262   -7.4540    9.6002 C   0  0  1  0  0  0  0  0  0  0  0  0
    1.7743   -6.3879    8.5859 C   0  0  2  0  0  0  0  0  0  0  0  0
    1.9490   -4.8788    8.8887 C   0  0  0  0  0  0  0  0  0  0  0  0
    3.3654   -4.2582    8.8339 C   0  0  0  0  0  0  0  0  0  0  0  0
    4.4570   -4.9826    8.0542 C   0  0  0  0  0  0  0  0  0  0  0  0
    4.3930   -5.8408    7.0053 C   0  0  0  0  0  0  0  0  0  0  0  0
    5.4810   -6.7117    6.4633 C   0  0  2  0  0  0  0  0  0  0  0  0
    6.7187   -6.4066    7.0823 O   0  0  0  0  0  0  0  0  0  0  0  0
    5.6804   -6.4702    4.7698 C   0  0  0  0  0  0  0  0  0  0  0  0
    4.6205   -6.6828    3.4089 C   0  0  2  0  0  0  0  0  0  0  0  0
    5.4550   -7.7778    2.6056 C   0  0  0  0  0  0  0  0  0  0  0  0
    4.6490   -5.5318    2.2795 C   0  0  1  0  0  0  0  0  0  0  0  0
    3.2779   -5.3989    1.6078 C   0  0  2  0  0  0  0  0  0  0  0  0
    3.1774   -4.0193    1.2894 O   0  0  0  0  0  0  0  0  0  0  0  0
    4.4648   -3.5381    1.0426 C   0  0  2  0  0  0  0  0  0  0  0  0
    4.4252   -1.9912    0.8888 C   0  0  0  0  0  0  0  0  0  0  0  0
    3.6773   -1.6193   -0.3963 C   0  0  0  0  0  0  0  0  0  0  0  0
    4.2865   -2.3290   -1.6047 C   0  0  1  0  0  0  0  0  0  0  0  0
    5.6869   -1.8065   -1.9211 C   0  0  0  0  0  0  0  0  0  0  0  0
    4.3095   -3.8329   -1.3287 C   0  0  0  0  0  0  0  0  0  0  0  0
    5.0279   -4.0896   -0.1261 O   0  0  0  0  0  0  0  0  0  0  0  0
    5.2853   -4.1065    2.2265 C   0  0  1  0  0  0  0  0  0  0  0  0
    5.2355   -3.1013    3.3947 C   0  0  0  0  0  0  0  0  0  0  0  0
    2.2048   -5.9268    2.5660 C   0  0  1  0  0  0  0  0  0  0  0  0
    1.0330   -6.3124    1.8554 O   0  0  0  0  0  0  0  0  0  0  0  0
    2.9083   -7.0721    3.4071 C   0  0  1  0  0  0  0  0  0  0  0  0
    2.6932   -8.3453    2.5038 C   0  0  0  0  0  0  0  0  0  0  0  0
    1.9357   -7.4073    4.7487 C   0  0  2  0  0  0  0  0  0  0  0  0
    1.8235   -6.3440    5.9268 C   0  0  1  0  0  0  0  0  0  0  0  0
    0.9817   -6.6104    7.2655 C   0  0  0  0  0  0  0  0  0  0  0  0
    3.3386   -6.2575    6.0258 C   0  0  1  0  0  0  0  0  0  0  0  0
    3.5260   -4.8335    5.3222 C   0  0  0  0  0  0  0  0  0  0  0  0
    3.7306   -7.9114    5.9864 C   0  0  2  0  0  0  0  0  0  0  0  0
    4.3848   -8.7432    5.0473 O   0  0  0  0  0  0  0  0  0  0  0  0
    2.4596   -8.6584    5.4714 C   0  0  1  0  0  0  0  0  0  0  0  0
    1.5424   -9.2461    6.3417 O   0  0  0  0  0  0  0  0  0  0  0  0
    4.9034   -8.1171    7.0204 C   0  0  2  0  0  0  0  0  0  0  0  0
    6.0644   -9.1811    6.8091 C   0  0  0  0  0  0  0  0  0  0  0  0
    0.0578   -9.0097    9.6142 H   0  0  0  0  0  0  0  0  0  0  0  0
    0.8746  -10.5904    9.0812 H   0  0  0  0  0  0  0  0  0  0  0  0
    3.7596  -10.0516    9.7919 H   0  0  0  0  0  0  0  0  0  0  0  0
    2.6860  -11.1995    8.0835 H   0  0  0  0  0  0  0  0  0  0  0  0
    5.4085   -8.7155    9.0789 H   0  0  0  0  0  0  0  0  0  0  0  0
    4.0970   -7.9229   10.6590 H   0  0  0  0  0  0  0  0  0  0  0  0
    4.3741   -6.4986    9.8520 H   0  0  0  0  0  0  0  0  0  0  0  0
    1.8747   -7.2796   10.5775 H   0  0  0  0  0  0  0  0  0  0  0  0
    2.6107   -6.6999    8.0932 H   0  0  0  0  0  0  0  0  0  0  0  0
    1.3615   -4.3050    8.1748 H   0  0  0  0  0  0  0  0  0  0  0  0
    1.5009   -4.6585    9.8545 H   0  0  0  0  0  0  0  0  0  0  0  0
    3.3340   -3.2102    8.5295 H   0  0  0  0  0  0  0  0  0  0  0  0
    3.7306   -4.2410    9.8631 H   0  0  0  0  0  0  0  0  0  0  0  0
    5.4293   -4.8734    8.5180 H   0  0  0  0  0  0  0  0  0  0  0  0
    7.0799   -5.6456    6.6468 H   0  0  0  0  0  0  0  0  0  0  0  0
    6.0884   -5.4740    4.6555 H   0  0  0  0  0  0  0  0  0  0  0  0
    6.5699   -7.0649    4.5586 H   0  0  0  0  0  0  0  0  0  0  0  0
    5.0626   -8.0141    1.6161 H   0  0  0  0  0  0  0  0  0  0  0  0
    5.6058   -8.7374    3.0901 H   0  0  0  0  0  0  0  0  0  0  0  0
    6.4643   -7.4169    2.4071 H   0  0  0  0  0  0  0  0  0  0  0  0
    5.2296   -5.9158    1.4397 H   0  0  0  0  0  0  0  0  0  0  0  0
    3.2814   -5.9777    0.6821 H   0  0  0  0  0  0  0  0  0  0  0  0
    3.9066   -1.5352    1.7358 H   0  0  0  0  0  0  0  0  0  0  0  0
    5.4442   -1.6058    0.8805 H   0  0  0  0  0  0  0  0  0  0  0  0
    2.6220   -1.8990   -0.3011 H   0  0  0  0  0  0  0  0  0  0  0  0
    3.7137   -0.5427   -0.5440 H   0  0  0  0  0  0  0  0  0  0  0  0
    3.6456   -2.1438   -2.4683 H   0  0  0  0  0  0  0  0  0  0  0  0
    6.3995   -1.9780   -1.1135 H   0  0  0  0  0  0  0  0  0  0  0  0
    5.6560   -0.7356   -2.1294 H   0  0  0  0  0  0  0  0  0  0  0  0
    6.0889   -2.3101   -2.7978 H   0  0  0  0  0  0  0  0  0  0  0  0
    3.2935   -4.2241   -1.2619 H   0  0  0  0  0  0  0  0  0  0  0  0
    4.7981   -4.3558   -2.1543 H   0  0  0  0  0  0  0  0  0  0  0  0
    6.3277   -4.1771    1.9130 H   0  0  0  0  0  0  0  0  0  0  0  0
    4.2246   -2.8416    3.6998 H   0  0  0  0  0  0  0  0  0  0  0  0
    5.7191   -2.1696    3.1090 H   0  0  0  0  0  0  0  0  0  0  0  0
    5.8099   -3.4283    4.2510 H   0  0  0  0  0  0  0  0  0  0  0  0
    1.8187   -5.1108    3.1728 H   0  0  0  0  0  0  0  0  0  0  0  0
    1.2239   -7.1276    1.4060 H   0  0  0  0  0  0  0  0  0  0  0  0
    1.6611   -8.6999    2.5314 H   0  0  0  0  0  0  0  0  0  0  0  0
    3.2990   -9.1989    2.7989 H   0  0  0  0  0  0  0  0  0  0  0  0
    2.9222   -8.1645    1.4544 H   0  0  0  0  0  0  0  0  0  0  0  0
    0.9191   -7.6111    4.4123 H   0  0  0  0  0  0  0  0  0  0  0  0
    1.3272   -5.4783    5.4875 H   0  0  0  0  0  0  0  0  0  0  0  0
    0.3988   -7.5218    7.2982 H   0  0  0  0  0  0  0  0  0  0  0  0
    0.1660   -5.8856    7.2646 H   0  0  0  0  0  0  0  0  0  0  0  0
    3.3673   -4.7316    4.2862 H   0  0  0  0  0  0  0  0  0  0  0  0
    4.4612   -4.3005    5.4697 H   0  0  0  0  0  0  0  0  0  0  0  0
    2.8453   -4.1097    5.7752 H   0  0  0  0  0  0  0  0  0  0  0  0
    4.3231   -9.6319    5.3738 H   0  0  0  0  0  0  0  0  0  0  0  0
    2.4891   -9.5040    4.7674 H   0  0  0  0  0  0  0  0  0  0  0  0
    1.9109  -10.0664    6.6510 H   0  0  0  0  0  0  0  0  0  0  0  0
    6.6132   -9.0639    5.8738 H   0  0  0  0  0  0  0  0  0  0  0  0
    5.6970  -10.2047    6.8537 H   0  0  0  0  0  0  0  0  0  0  0  0
    6.8342   -9.0876    7.5758 H   0  0  0  0  0  0  0  0  0  0  0  0
  1  2  2  0
  1 45  1  0
  1 46  1  0
  2  7  1  0
  2  3  1  0
  3  4  1  0
  3  5  1  0
  3 47  1  1
  4 48  1  0
  5 43  1  0
  5  6  1  0
  5 49  1  1
  6  7  1  0
  6 50  1  0
  6 51  1  0
  7  8  1  0
  7 52  1  1
  8 36  1  0
  8  9  1  0
  8 53  1  6
  9 10  1  0
  9 54  1  0
  9 55  1  0
 10 11  1  0
 10 56  1  0
 10 57  1  0
 11 12  2  3
 11 58  1  0
 12 37  1  0
 12 13  1  0
 13 43  1  0
 13 14  1  1
 13 15  1  0
 14 59  1  0
 15 16  1  0
 15 60  1  0
 15 61  1  0
 16 32  1  0
 16 17  1  6
 16 18  1  0
 17 62  1  0
 17 63  1  0
 17 64  1  0
 18 28  1  0
 18 19  1  0
 18 65  1  6
 19 20  1  0
 19 30  1  0
 19 66  1  6
 21 20  1  1
 21 27  1  0
 21 22  1  0
 21 28  1  0
 22 23  1  0
 22 67  1  0
 22 68  1  0
 23 24  1  0
 23 69  1  0
 23 70  1  0
 24 25  1  0
 24 26  1  0
 24 71  1  6
 25 72  1  0
 25 73  1  0
 25 74  1  0
 26 27  1  0
 26 75  1  0
 26 76  1  0
 28 29  1  0
 28 77  1  6
 29 78  1  0
 29 79  1  0
 29 80  1  0
 30 31  1  0
 30 32  1  0
 30 81  1  1
 31 82  1  0
 32 33  1  6
 32 34  1  0
 33 83  1  0
 33 84  1  0
 33 85  1  0
 34 41  1  0
 34 35  1  0
 34 86  1  6
 35 36  1  0
 35 37  1  0
 35 87  1  6
 36 88  1  0
 36 89  1  0
 37 38  1  6
 37 39  1  0
 38 90  1  0
 38 91  1  0
 38 92  1  0
 39 40  1  6
 39 41  1  0
 39 43  1  0
 40 93  1  0
 41 42  1  0
 41 94  1  6
 42 95  1  0
 43 44  1  6
 44 96  1  0
 44 97  1  0
 44 98  1  0
M  END
>  <i_m_ct_stereo_status>  (134) 
1

>  <s_m_source_file>  (134) 
/var/tmp/pbs.5076255.sched01/tmp1pob34vh/39rbzpz6sd.sdf

>  <i_m_source_file_index>  (134) 
27

>  <i_lp_mmshare_version>  (134) 
48012

>  <i_f3d_flags>  (134) 
2

>  <s_epik_input>  (134) 
W0NIXT0xXFtDSDJdW0NIMl1bQ0BASF0oW0NIMl0yKVtDQEhdKFtDSDJdMylDKD1bQ0gyXSlbQ0BASF0oW09IXSlbQ0BASF0zW0NAQF0oW0NIM10pKEM0KFtPSF0pW0NASF01W09IXSlbQ0BAXShbT0hdKShbQ0gyXTYpXEMxW0NAXTQoW0NIM10pW0NASF0yW0NASF01W0NAQF0oW0NIM10pKFtDQEBIXTdbT0hdKVtDQEBdNihbQ0gzXSlbQ0BIXShbQ0BASF04W0NIM10pW0NAQEhdN09bQ0BAXTg5W0NIMl1bQ0gyXVtDQEBIXShbQ0gzXSlbQ0gyXU85

>  <s_epik_cmdline>  (134) 
J2VwaWtfcHl0aG9uJywgJy1waHQnLCAnMi4wJywgJy1waCcsICc3LjAnLCAnLXRuJywgJzgnLCAnLW1hJywgJzIwMCcsICctaW1hZScsICc8aW5maWxlLm1hZT4nLCAnLW9tYWUnLCAnPG91dGZpbGUubWFlPic=

>  <r_lp_tautomer_probability>  (134) 
1

>  <r_epik_Ionization_Penalty>  (134) 
1.00283e-06

>  <r_epik_Ionization_Penalty_Charging>  (134) 
0

>  <r_epik_Ionization_Penalty_Neutral>  (134) 
1.00283e-06

>  <r_epik_State_Penalty>  (134) 
-0

>  <r_epik_Charging_Adjusted_Penalty>  (134) 
0

>  <i_epik_Tot_Q>  (134) 
0

>  <i_epik_Tot_abs_Q>  (134) 
0

>  <s_lp_Force_Field>  (134) 
OPLS3e

>  <r_lp_Energy>  (134) 
466.594

>  <b_lp_Chiralities_Consistent>  (134) 
0

>  <s_lp_Variant>  (134) 
43:0-2

>  <s_i_glide_gridfile>  (134) 
pfpi4k_grid

>  <i_i_glide_lignum>  (134) 
27

>  <i_i_glide_rotatable_bonds>  (134) 
5

>  <r_i_docking_score>  (134) 
-2.25657

>  <r_i_glide_ligand_efficiency>  (134) 
-0.0512857

>  <r_i_glide_ligand_efficiency_sa>  (134) 
-0.181056

>  <r_i_glide_ligand_efficiency_ln>  (134) 
-0.471673

>  <r_i_glide_gscore>  (134) 
-2.25657

>  <r_i_glide_lipo>  (134) 
-0.0963296

>  <r_i_glide_hbond>  (134) 
0

>  <r_i_glide_metal>  (134) 
-0

>  <r_i_glide_rewards>  (134) 
-0.0297861

>  <r_i_glide_evdw>  (134) 
-23.6773

>  <r_i_glide_ecoul>  (134) 
-6.3106

>  <r_i_glide_erotb>  (134) 
0

>  <r_i_glide_esite>  (134) 
0

>  <r_i_glide_emodel>  (134) 
-33.7688

>  <r_i_glide_energy>  (134) 
-29.9879

>  <r_i_glide_einternal>  (134) 
1.41652

>  <r_i_glide_intrahb_reward>  (134) 
-0

>  <i_i_glide_confnum>  (134) 
2

>  <i_i_glide_posenum>  (134) 
36

>  <r_i_glide_eff_state_penalty>  (134) 
0

>  <ligand_id>  (134) 
43

>  <original_smiles>  (134) 
C=C1C(O)C2CC1C1CCC=C3C4(O)CC5(C)C6C(OC7(CCC(C)CO7)C6C)C(O)C5(C)C5C(C1)C3(C)C(O)(C5O)C24C

>  <smiles>  (134) 
[H]OC1([H])C(=C([H])[H])C2([H])C([H])([H])C1([H])C1(C([H])([H])[H])C3(O[H])C4=C([H])C([H])([H])C([H])([H])C2([H])C([H])([H])C2([H])C([H])(C([H])(O[H])C1(O[H])C42C([H])([H])[H])C1(C([H])([H])[H])C([H])(O[H])C2([H])OC4(OC([H])([H])C([H])(C([H])([H])[H])C([H])([H])C4([H])[H])C([H])(C([H])([H])[H])C2([H])C1(C([H])([H])[H])C3([H])[H]

$$$$
43:2:0
     RDKit          3D

 98106  0  0  1  0  0  0  0  0999 V2000
   -2.9051    3.3112    4.6427 C   0  0  0  0  0  0  0  0  0  0  0  0
   -1.5804    3.2448    4.7970 C   0  0  0  0  0  0  0  0  0  0  0  0
   -0.5259    3.7682    3.8217 C   0  0  1  0  0  0  0  0  0  0  0  0
   -0.9027    5.0231    3.2816 O   0  0  0  0  0  0  0  0  0  0  0  0
    0.8175    3.8200    4.6401 C   0  0  1  0  0  0  0  0  0  0  0  0
    0.2746    3.7888    6.1139 C   0  0  0  0  0  0  0  0  0  0  0  0
   -0.8868    2.8116    6.0561 C   0  0  1  0  0  0  0  0  0  0  0  0
   -1.0678    1.4484    6.8239 C   0  0  1  0  0  0  0  0  0  0  0  0
   -1.7161    0.2480    6.0561 C   0  0  0  0  0  0  0  0  0  0  0  0
   -1.7059    0.1366    4.5096 C   0  0  0  0  0  0  0  0  0  0  0  0
   -0.5203    0.6465    3.7011 C   0  0  0  0  0  0  0  0  0  0  0  0
    0.7657    0.8360    4.0749 C   0  0  0  0  0  0  0  0  0  0  0  0
    1.8883    1.4916    3.3139 C   0  0  2  0  0  0  0  0  0  0  0  0
    1.4962    1.7985    1.9890 O   0  0  0  0  0  0  0  0  0  0  0  0
    3.2058    0.3867    3.1674 C   0  0  0  0  0  0  0  0  0  0  0  0
    4.2123   -0.4332    4.3171 C   0  0  2  0  0  0  0  0  0  0  0  0
    5.6213    0.1470    3.8780 C   0  0  0  0  0  0  0  0  0  0  0  0
    4.5470   -1.9852    4.0283 C   0  0  1  0  0  0  0  0  0  0  0  0
    4.7611   -2.7419    5.3472 C   0  0  2  0  0  0  0  0  0  0  0  0
    4.2331   -4.0461    5.1041 O   0  0  0  0  0  0  0  0  0  0  0  0
    4.4039   -4.3382    3.7510 C   0  0  2  0  0  0  0  0  0  0  0  0
    3.5906   -5.6349    3.4121 C   0  0  0  0  0  0  0  0  0  0  0  0
    4.2121   -6.8546    4.0918 C   0  0  0  0  0  0  0  0  0  0  0  0
    5.6900   -6.9835    3.7145 C   0  0  1  0  0  0  0  0  0  0  0  0
    5.9015   -7.3541    2.2331 C   0  0  0  0  0  0  0  0  0  0  0  0
    6.3878   -5.6648    4.0689 C   0  0  0  0  0  0  0  0  0  0  0  0
    5.7430   -4.5676    3.4131 O   0  0  0  0  0  0  0  0  0  0  0  0
    3.9666   -3.0347    3.0261 C   0  0  1  0  0  0  0  0  0  0  0  0
    2.4638   -3.1364    2.6483 C   0  0  0  0  0  0  0  0  0  0  0  0
    4.0456   -1.9840    6.4719 C   0  0  1  0  0  0  0  0  0  0  0  0
    4.6123   -2.2757    7.7448 O   0  0  0  0  0  0  0  0  0  0  0  0
    4.0760   -0.4501    6.0626 C   0  0  1  0  0  0  0  0  0  0  0  0
    5.4547    0.0192    6.6721 C   0  0  0  0  0  0  0  0  0  0  0  0
    2.9362    0.3594    7.0041 C   0  0  2  0  0  0  0  0  0  0  0  0
    1.3549    0.1695    6.7278 C   0  0  1  0  0  0  0  0  0  0  0  0
    0.2298    0.9287    7.5458 C   0  0  0  0  0  0  0  0  0  0  0  0
    1.5726    0.4768    5.2647 C   0  0  1  0  0  0  0  0  0  0  0  0
    1.4614   -1.0422    4.7500 C   0  0  0  0  0  0  0  0  0  0  0  0
    2.5392    1.8506    5.3796 C   0  0  2  0  0  0  0  0  0  0  0  0
    3.8826    2.1177    5.0030 O   0  0  0  0  0  0  0  0  0  0  0  0
    3.1452    1.8754    6.8309 C   0  0  1  0  0  0  0  0  0  0  0  0
    2.6533    2.6143    7.9250 O   0  0  0  0  0  0  0  0  0  0  0  0
    2.0541    2.8249    4.2216 C   0  0  2  0  0  0  0  0  0  0  0  0
    2.9792    3.8313    3.4576 C   0  0  0  0  0  0  0  0  0  0  0  0
   -3.5735    2.9843    5.4188 H   0  0  0  0  0  0  0  0  0  0  0  0
   -3.3298    3.7018    3.7173 H   0  0  0  0  0  0  0  0  0  0  0  0
   -0.4659    3.1199    2.9481 H   0  0  0  0  0  0  0  0  0  0  0  0
   -0.5494    5.0606    2.3914 H   0  0  0  0  0  0  0  0  0  0  0  0
    1.1947    4.8417    4.5662 H   0  0  0  0  0  0  0  0  0  0  0  0
    0.9735    3.6586    6.8982 H   0  0  0  0  0  0  0  0  0  0  0  0
   -0.1673    4.7647    6.3319 H   0  0  0  0  0  0  0  0  0  0  0  0
   -0.2645    2.1522    5.5599 H   0  0  0  0  0  0  0  0  0  0  0  0
   -1.7610    1.6864    7.6259 H   0  0  0  0  0  0  0  0  0  0  0  0
   -1.3036   -0.6849    6.4326 H   0  0  0  0  0  0  0  0  0  0  0  0
   -2.7663    0.2107    6.3414 H   0  0  0  0  0  0  0  0  0  0  0  0
   -1.9252   -0.8840    4.1908 H   0  0  0  0  0  0  0  0  0  0  0  0
   -2.5405    0.7329    4.1536 H   0  0  0  0  0  0  0  0  0  0  0  0
   -0.7946    0.9480    2.6957 H   0  0  0  0  0  0  0  0  0  0  0  0
    1.0652    2.6364    1.9399 H   0  0  0  0  0  0  0  0  0  0  0  0
    2.8668   -0.3793    2.4857 H   0  0  0  0  0  0  0  0  0  0  0  0
    3.8692    0.9267    2.4936 H   0  0  0  0  0  0  0  0  0  0  0  0
    6.4867   -0.2626    4.3833 H   0  0  0  0  0  0  0  0  0  0  0  0
    5.7324    1.2144    3.9991 H   0  0  0  0  0  0  0  0  0  0  0  0
    5.8088   -0.0401    2.8161 H   0  0  0  0  0  0  0  0  0  0  0  0
    5.5638   -2.0423    3.6234 H   0  0  0  0  0  0  0  0  0  0  0  0
    5.8283   -2.8122    5.5467 H   0  0  0  0  0  0  0  0  0  0  0  0
    2.5596   -5.5291    3.7554 H   0  0  0  0  0  0  0  0  0  0  0  0
    3.5783   -5.7643    2.3337 H   0  0  0  0  0  0  0  0  0  0  0  0
    4.0994   -6.7738    5.1728 H   0  0  0  0  0  0  0  0  0  0  0  0
    3.6677   -7.7524    3.7913 H   0  0  0  0  0  0  0  0  0  0  0  0
    6.1239   -7.7726    4.3278 H   0  0  0  0  0  0  0  0  0  0  0  0
    5.5316   -6.5751    1.5684 H   0  0  0  0  0  0  0  0  0  0  0  0
    5.3788   -8.2739    1.9806 H   0  0  0  0  0  0  0  0  0  0  0  0
    6.9530   -7.4867    2.0048 H   0  0  0  0  0  0  0  0  0  0  0  0
    6.3932   -5.4946    5.1478 H   0  0  0  0  0  0  0  0  0  0  0  0
    7.4346   -5.7032    3.7602 H   0  0  0  0  0  0  0  0  0  0  0  0
    4.5010   -2.9738    2.0791 H   0  0  0  0  0  0  0  0  0  0  0  0
    1.8269   -3.3412    3.5024 H   0  0  0  0  0  0  0  0  0  0  0  0
    2.3015   -3.9477    1.9484 H   0  0  0  0  0  0  0  0  0  0  0  0
    2.1063   -2.2719    2.0911 H   0  0  0  0  0  0  0  0  0  0  0  0
    3.0450   -2.3799    6.6092 H   0  0  0  0  0  0  0  0  0  0  0  0
    5.5179   -2.0669    7.7275 H   0  0  0  0  0  0  0  0  0  0  0  0
    5.4065    0.1256    7.7533 H   0  0  0  0  0  0  0  0  0  0  0  0
    5.7957    0.9871    6.3040 H   0  0  0  0  0  0  0  0  0  0  0  0
    6.2725   -0.6750    6.4759 H   0  0  0  0  0  0  0  0  0  0  0  0
    3.1134    0.1056    8.0477 H   0  0  0  0  0  0  0  0  0  0  0  0
    1.1749   -0.8746    6.9810 H   0  0  0  0  0  0  0  0  0  0  0  0
    0.5649    1.7147    8.2120 H   0  0  0  0  0  0  0  0  0  0  0  0
   -0.1169    0.1967    8.2771 H   0  0  0  0  0  0  0  0  0  0  0  0
    2.2130   -1.7470    4.9795 H   0  0  0  0  0  0  0  0  0  0  0  0
    1.3105   -1.2179    3.6939 H   0  0  0  0  0  0  0  0  0  0  0  0
    0.5555   -1.5180    5.1321 H   0  0  0  0  0  0  0  0  0  0  0  0
    3.9530    2.0781    4.0663 H   0  0  0  0  0  0  0  0  0  0  0  0
    4.1886    2.1428    7.0427 H   0  0  0  0  0  0  0  0  0  0  0  0
    1.7267    2.5155    7.9580 H   0  0  0  0  0  0  0  0  0  0  0  0
    3.7832    3.3515    2.9326 H   0  0  0  0  0  0  0  0  0  0  0  0
    3.4239    4.5766    4.1198 H   0  0  0  0  0  0  0  0  0  0  0  0
    2.4158    4.3655    2.6856 H   0  0  0  0  0  0  0  0  0  0  0  0
  1  2  2  0
  1 45  1  0
  1 46  1  0
  2  7  1  0
  2  3  1  0
  3  4  1  0
  3  5  1  0
  3 47  1  6
  4 48  1  0
  5 43  1  0
  5  6  1  0
  5 49  1  1
  6  7  1  0
  6 50  1  0
  6 51  1  0
  7  8  1  0
  7 52  1  1
  8 36  1  0
  8  9  1  0
  8 53  1  1
  9 10  1  0
  9 54  1  0
  9 55  1  0
 10 11  1  0
 10 56  1  0
 10 57  1  0
 11 12  2  3
 11 58  1  0
 12 37  1  0
 12 13  1  0
 13 43  1  0
 13 14  1  6
 13 15  1  0
 14 59  1  0
 15 16  1  0
 15 60  1  0
 15 61  1  0
 16 32  1  0
 16 17  1  1
 16 18  1  0
 17 62  1  0
 17 63  1  0
 17 64  1  0
 18 28  1  0
 18 19  1  0
 18 65  1  6
 19 20  1  0
 19 30  1  0
 19 66  1  1
 21 20  1  1
 21 27  1  0
 21 22  1  0
 21 28  1  0
 22 23  1  0
 22 67  1  0
 22 68  1  0
 23 24  1  0
 23 69  1  0
 23 70  1  0
 24 25  1  0
 24 26  1  0
 24 71  1  1
 25 72  1  0
 25 73  1  0
 25 74  1  0
 26 27  1  0
 26 75  1  0
 26 76  1  0
 28 29  1  0
 28 77  1  6
 29 78  1  0
 29 79  1  0
 29 80  1  0
 30 31  1  0
 30 32  1  0
 30 81  1  1
 31 82  1  0
 32 33  1  1
 32 34  1  0
 33 83  1  0
 33 84  1  0
 33 85  1  0
 34 41  1  0
 34 35  1  0
 34 86  1  1
 35 36  1  0
 35 37  1  0
 35 87  1  6
 36 88  1  0
 36 89  1  0
 37 38  1  6
 37 39  1  0
 38 90  1  0
 38 91  1  0
 38 92  1  0
 39 40  1  6
 39 41  1  0
 39 43  1  0
 40 93  1  0
 41 42  1  0
 41 94  1  6
 42 95  1  0
 43 44  1  6
 44 96  1  0
 44 97  1  0
 44 98  1  0
M  END
>  <i_m_ct_stereo_status>  (135) 
1

>  <s_m_source_file>  (135) 
/var/tmp/pbs.5076255.sched01/tmp1pob34vh/39rbzpz6sd.sdf

>  <i_m_source_file_index>  (135) 
28

>  <i_lp_mmshare_version>  (135) 
48012

>  <i_f3d_flags>  (135) 
0

>  <s_epik_input>  (135) 
W0NIXT0xXFtDSDJdW0NIMl1bQ0BASF0oW0NIMl0yKVtDQEhdKFtDSDJdMylDKD1bQ0gyXSlbQ0BASF0oW09IXSlbQ0BASF0zW0NAQF0oW0NIM10pKEM0KFtPSF0pW0NASF01W09IXSlbQ0BAXShbT0hdKShbQ0gyXTYpXEMxW0NAXTQoW0NIM10pW0NASF0yW0NASF01W0NAQF0oW0NIM10pKFtDQEBIXTdbT0hdKVtDQEBdNihbQ0gzXSlbQ0BIXShbQ0BASF04W0NIM10pW0NAQEhdN09bQ0BAXTg5W0NIMl1bQ0gyXVtDQEBIXShbQ0gzXSlbQ0gyXU85

>  <s_epik_cmdline>  (135) 
J2VwaWtfcHl0aG9uJywgJy1waHQnLCAnMi4wJywgJy1waCcsICc3LjAnLCAnLXRuJywgJzgnLCAnLW1hJywgJzIwMCcsICctaW1hZScsICc8aW5maWxlLm1hZT4nLCAnLW9tYWUnLCAnPG91dGZpbGUubWFlPic=

>  <r_lp_tautomer_probability>  (135) 
1

>  <r_epik_Ionization_Penalty>  (135) 
1.00283e-06

>  <r_epik_Ionization_Penalty_Charging>  (135) 
0

>  <r_epik_Ionization_Penalty_Neutral>  (135) 
1.00283e-06

>  <r_epik_State_Penalty>  (135) 
-0

>  <r_epik_Charging_Adjusted_Penalty>  (135) 
0

>  <i_epik_Tot_Q>  (135) 
0

>  <i_epik_Tot_abs_Q>  (135) 
0

>  <s_lp_Force_Field>  (135) 
OPLS3e

>  <r_lp_Energy>  (135) 
471.819

>  <b_lp_Chiralities_Consistent>  (135) 
1

>  <s_lp_Variant>  (135) 
43:0-3

>  <s_i_glide_gridfile>  (135) 
pfpi4k_grid

>  <i_i_glide_lignum>  (135) 
28

>  <i_i_glide_rotatable_bonds>  (135) 
5

>  <r_i_docking_score>  (135) 
-3.0034

>  <r_i_glide_ligand_efficiency>  (135) 
-0.0682592

>  <r_i_glide_ligand_efficiency_sa>  (135) 
-0.240979

>  <r_i_glide_ligand_efficiency_ln>  (135) 
-0.627777

>  <r_i_glide_gscore>  (135) 
-3.0034

>  <r_i_glide_lipo>  (135) 
-0.198979

>  <r_i_glide_hbond>  (135) 
-0.351595

>  <r_i_glide_metal>  (135) 
-0

>  <r_i_glide_rewards>  (135) 
-0.00344901

>  <r_i_glide_evdw>  (135) 
-24.2075

>  <r_i_glide_ecoul>  (135) 
-8.26002

>  <r_i_glide_erotb>  (135) 
0

>  <r_i_glide_esite>  (135) 
0

>  <r_i_glide_emodel>  (135) 
-37.9733

>  <r_i_glide_energy>  (135) 
-32.4676

>  <r_i_glide_einternal>  (135) 
1.09906

>  <r_i_glide_intrahb_reward>  (135) 
-0

>  <i_i_glide_confnum>  (135) 
3

>  <i_i_glide_posenum>  (135) 
1

>  <r_i_glide_eff_state_penalty>  (135) 
0

>  <ligand_id>  (135) 
43

>  <original_smiles>  (135) 
C=C1C(O)C2CC1C1CCC=C3C4(O)CC5(C)C6C(OC7(CCC(C)CO7)C6C)C(O)C5(C)C5C(C1)C3(C)C(O)(C5O)C24C

>  <smiles>  (135) 
[H]OC1([H])C(=C([H])[H])C2([H])C([H])([H])C1([H])C1(C([H])([H])[H])C3(O[H])C4=C([H])C([H])([H])C([H])([H])C2([H])C([H])([H])C2([H])C([H])(C([H])(O[H])C1(O[H])C42C([H])([H])[H])C1(C([H])([H])[H])C([H])(O[H])C2([H])OC4(OC([H])([H])C([H])(C([H])([H])[H])C([H])([H])C4([H])[H])C([H])(C([H])([H])[H])C2([H])C1(C([H])([H])[H])C3([H])[H]

$$$$
43:2:1
     RDKit          3D

 98106  0  0  1  0  0  0  0  0999 V2000
   -2.8234    3.2986    5.2144 C   0  0  0  0  0  0  0  0  0  0  0  0
   -1.4899    3.2484    5.1337 C   0  0  0  0  0  0  0  0  0  0  0  0
   -0.6469    3.5599    3.8892 C   0  0  1  0  0  0  0  0  0  0  0  0
   -1.0911    4.7579    3.2847 O   0  0  0  0  0  0  0  0  0  0  0  0
    0.8233    3.7205    4.4096 C   0  0  1  0  0  0  0  0  0  0  0  0
    0.5634    3.9768    5.9348 C   0  0  0  0  0  0  0  0  0  0  0  0
   -0.5609    3.0333    6.2813 C   0  0  1  0  0  0  0  0  0  0  0  0
   -0.5831    1.8374    7.2879 C   0  0  1  0  0  0  0  0  0  0  0  0
   -1.3634    0.5496    6.8641 C   0  0  0  0  0  0  0  0  0  0  0  0
   -1.6596    0.1417    5.3946 C   0  0  0  0  0  0  0  0  0  0  0  0
   -0.6424    0.4716    4.3038 C   0  0  0  0  0  0  0  0  0  0  0  0
    0.6779    0.6983    4.3954 C   0  0  0  0  0  0  0  0  0  0  0  0
    1.6444    1.1664    3.3405 C   0  0  2  0  0  0  0  0  0  0  0  0
    1.0079    1.2522    2.0746 O   0  0  0  0  0  0  0  0  0  0  0  0
    2.9186    0.0403    3.1483 C   0  0  0  0  0  0  0  0  0  0  0  0
    4.1335   -0.5858    4.2182 C   0  0  2  0  0  0  0  0  0  0  0  0
    5.4206   -0.1381    3.4067 C   0  0  0  0  0  0  0  0  0  0  0  0
    4.4063   -2.1719    4.1598 C   0  0  1  0  0  0  0  0  0  0  0  0
    4.8942   -2.7121    5.5119 C   0  0  2  0  0  0  0  0  0  0  0  0
    4.3752   -4.0426    5.5542 O   0  0  0  0  0  0  0  0  0  0  0  0
    4.2241   -4.5312    4.2454 C   0  0  2  0  0  0  0  0  0  0  0  0
    3.4239   -5.8657    4.3475 C   0  0  0  0  0  0  0  0  0  0  0  0
    3.3122   -6.5337    2.9605 C   0  0  0  0  0  0  0  0  0  0  0  0
    4.6901   -6.7261    2.3303 C   0  0  1  0  0  0  0  0  0  0  0  0
    4.5205   -7.1768    0.8811 C   0  0  0  0  0  0  0  0  0  0  0  0
    5.5027   -5.4159    2.3780 C   0  0  0  0  0  0  0  0  0  0  0  0
    5.4847   -4.8339    3.6916 O   0  0  0  0  0  0  0  0  0  0  0  0
    3.5893   -3.3170    3.4888 C   0  0  1  0  0  0  0  0  0  0  0  0
    2.0500   -3.4372    3.4855 C   0  0  0  0  0  0  0  0  0  0  0  0
    4.3976   -1.7427    6.6031 C   0  0  1  0  0  0  0  0  0  0  0  0
    5.1943   -1.8167    7.7804 O   0  0  0  0  0  0  0  0  0  0  0  0
    4.3350   -0.3028    5.9312 C   0  0  1  0  0  0  0  0  0  0  0  0
    5.7999    0.2385    6.1650 C   0  0  0  0  0  0  0  0  0  0  0  0
    3.3816    0.6926    6.9071 C   0  0  2  0  0  0  0  0  0  0  0  0
    1.7888    0.4932    6.9696 C   0  0  1  0  0  0  0  0  0  0  0  0
    0.8281    1.4186    7.8350 C   0  0  0  0  0  0  0  0  0  0  0  0
    1.7020    0.5381    5.4699 C   0  0  1  0  0  0  0  0  0  0  0  0
    1.5198   -1.0411    5.2734 C   0  0  0  0  0  0  0  0  0  0  0  0
    2.6676    1.8795    5.1447 C   0  0  2  0  0  0  0  0  0  0  0  0
    3.9102    2.0481    4.4849 O   0  0  0  0  0  0  0  0  0  0  0  0
    3.5380    2.1444    6.4257 C   0  0  1  0  0  0  0  0  0  0  0  0
    3.2595    3.0940    7.4157 O   0  0  0  0  0  0  0  0  0  0  0  0
    1.9553    2.6378    3.9511 C   0  0  2  0  0  0  0  0  0  0  0  0
    2.7016    3.4539    2.8423 C   0  0  0  0  0  0  0  0  0  0  0  0
   -3.3468    3.1247    6.1442 H   0  0  0  0  0  0  0  0  0  0  0  0
   -3.3801    3.4735    4.3105 H   0  0  0  0  0  0  0  0  0  0  0  0
   -0.7600    2.7874    3.1314 H   0  0  0  0  0  0  0  0  0  0  0  0
   -0.7299    4.7663    2.4084 H   0  0  0  0  0  0  0  0  0  0  0  0
    1.1713    4.7003    4.0785 H   0  0  0  0  0  0  0  0  0  0  0  0
    1.3950    3.9602    6.5913 H   0  0  0  0  0  0  0  0  0  0  0  0
    0.1654    4.9870    6.0547 H   0  0  0  0  0  0  0  0  0  0  0  0
   -0.0468    2.2830    5.7994 H   0  0  0  0  0  0  0  0  0  0  0  0
   -1.1126    2.2248    8.1577 H   0  0  0  0  0  0  0  0  0  0  0  0
   -0.8729   -0.3055    7.3296 H   0  0  0  0  0  0  0  0  0  0  0  0
   -2.3398    0.6264    7.3307 H   0  0  0  0  0  0  0  0  0  0  0  0
   -1.9025   -0.9208    5.3292 H   0  0  0  0  0  0  0  0  0  0  0  0
   -2.5728    0.6396    5.0856 H   0  0  0  0  0  0  0  0  0  0  0  0
   -1.1101    0.5964    3.3331 H   0  0  0  0  0  0  0  0  0  0  0  0
    0.6355    2.1124    1.9402 H   0  0  0  0  0  0  0  0  0  0  0  0
    2.4733   -0.8262    2.6885 H   0  0  0  0  0  0  0  0  0  0  0  0
    3.4432    0.4239    2.2753 H   0  0  0  0  0  0  0  0  0  0  0  0
    6.3617   -0.5137    3.7949 H   0  0  0  0  0  0  0  0  0  0  0  0
    5.5768    0.9289    3.3163 H   0  0  0  0  0  0  0  0  0  0  0  0
    5.3967   -0.5165    2.3810 H   0  0  0  0  0  0  0  0  0  0  0  0
    5.3151   -2.3394    3.5781 H   0  0  0  0  0  0  0  0  0  0  0  0
    5.9887   -2.7508    5.5199 H   0  0  0  0  0  0  0  0  0  0  0  0
    3.9398   -6.5341    5.0415 H   0  0  0  0  0  0  0  0  0  0  0  0
    2.4500   -5.6916    4.8048 H   0  0  0  0  0  0  0  0  0  0  0  0
    2.7959   -7.4921    3.0581 H   0  0  0  0  0  0  0  0  0  0  0  0
    2.7260   -5.9611    2.2445 H   0  0  0  0  0  0  0  0  0  0  0  0
    5.2293   -7.4872    2.9022 H   0  0  0  0  0  0  0  0  0  0  0  0
    4.0210   -6.4195    0.2669 H   0  0  0  0  0  0  0  0  0  0  0  0
    3.9336   -8.0898    0.8072 H   0  0  0  0  0  0  0  0  0  0  0  0
    5.5007   -7.3552    0.4599 H   0  0  0  0  0  0  0  0  0  0  0  0
    6.5454   -5.6107    2.0998 H   0  0  0  0  0  0  0  0  0  0  0  0
    5.1536   -4.7186    1.6162 H   0  0  0  0  0  0  0  0  0  0  0  0
    3.8427   -3.2971    2.4377 H   0  0  0  0  0  0  0  0  0  0  0  0
    1.6000   -3.4765    4.4822 H   0  0  0  0  0  0  0  0  0  0  0  0
    1.6951   -4.3276    2.9947 H   0  0  0  0  0  0  0  0  0  0  0  0
    1.6070   -2.6767    2.8539 H   0  0  0  0  0  0  0  0  0  0  0  0
    3.4440   -2.0843    6.9954 H   0  0  0  0  0  0  0  0  0  0  0  0
    6.0871   -1.6151    7.5572 H   0  0  0  0  0  0  0  0  0  0  0  0
    5.9607    0.5361    7.2026 H   0  0  0  0  0  0  0  0  0  0  0  0
    6.0539    1.1131    5.5704 H   0  0  0  0  0  0  0  0  0  0  0  0
    6.5721   -0.4984    5.9467 H   0  0  0  0  0  0  0  0  0  0  0  0
    3.7615    0.6295    7.9282 H   0  0  0  0  0  0  0  0  0  0  0  0
    1.6682   -0.4840    7.4427 H   0  0  0  0  0  0  0  0  0  0  0  0
    1.2932    2.2987    8.2621 H   0  0  0  0  0  0  0  0  0  0  0  0
    0.6351    0.8420    8.7432 H   0  0  0  0  0  0  0  0  0  0  0  0
    2.3105   -1.7057    5.4708 H   0  0  0  0  0  0  0  0  0  0  0  0
    1.1580   -1.3812    4.3153 H   0  0  0  0  0  0  0  0  0  0  0  0
    0.7086   -1.4234    5.8942 H   0  0  0  0  0  0  0  0  0  0  0  0
    3.7945    1.9723    3.5640 H   0  0  0  0  0  0  0  0  0  0  0  0
    4.6064    2.4163    6.3873 H   0  0  0  0  0  0  0  0  0  0  0  0
    3.3430    3.9471    7.0231 H   0  0  0  0  0  0  0  0  0  0  0  0
    3.3749    2.8397    2.2541 H   0  0  0  0  0  0  0  0  0  0  0  0
    3.2748    4.2872    3.2533 H   0  0  0  0  0  0  0  0  0  0  0  0
    2.0010    3.8678    2.1162 H   0  0  0  0  0  0  0  0  0  0  0  0
  1  2  2  0
  1 45  1  0
  1 46  1  0
  2  7  1  0
  2  3  1  0
  3  4  1  0
  3  5  1  0
  3 47  1  6
  4 48  1  0
  5 43  1  0
  5  6  1  0
  5 49  1  6
  6  7  1  0
  6 50  1  0
  6 51  1  0
  7  8  1  0
  7 52  1  1
  8 36  1  0
  8  9  1  0
  8 53  1  1
  9 10  1  0
  9 54  1  0
  9 55  1  0
 10 11  1  0
 10 56  1  0
 10 57  1  0
 11 12  2  3
 11 58  1  0
 12 37  1  0
 12 13  1  0
 13 43  1  0
 13 14  1  6
 13 15  1  0
 14 59  1  0
 15 16  1  0
 15 60  1  0
 15 61  1  0
 16 32  1  0
 16 17  1  6
 16 18  1  0
 17 62  1  0
 17 63  1  0
 17 64  1  0
 18 28  1  0
 18 19  1  0
 18 65  1  6
 19 20  1  0
 19 30  1  0
 19 66  1  6
 21 20  1  1
 21 27  1  0
 21 22  1  0
 21 28  1  0
 22 23  1  0
 22 67  1  0
 22 68  1  0
 23 24  1  0
 23 69  1  0
 23 70  1  0
 24 25  1  0
 24 26  1  0
 24 71  1  1
 25 72  1  0
 25 73  1  0
 25 74  1  0
 26 27  1  0
 26 75  1  0
 26 76  1  0
 28 29  1  0
 28 77  1  6
 29 78  1  0
 29 79  1  0
 29 80  1  0
 30 31  1  0
 30 32  1  0
 30 81  1  1
 31 82  1  0
 32 33  1  6
 32 34  1  0
 33 83  1  0
 33 84  1  0
 33 85  1  0
 34 41  1  0
 34 35  1  0
 34 86  1  1
 35 36  1  0
 35 37  1  0
 35 87  1  1
 36 88  1  0
 36 89  1  0
 37 38  1  6
 37 39  1  0
 38 90  1  0
 38 91  1  0
 38 92  1  0
 39 40  1  6
 39 41  1  0
 39 43  1  0
 40 93  1  0
 41 42  1  0
 41 94  1  6
 42 95  1  0
 43 44  1  6
 44 96  1  0
 44 97  1  0
 44 98  1  0
M  END
>  <i_m_ct_stereo_status>  (136) 
1

>  <s_m_source_file>  (136) 
/var/tmp/pbs.5076255.sched01/tmp1pob34vh/39rbzpz6sd.sdf

>  <i_m_source_file_index>  (136) 
28

>  <i_lp_mmshare_version>  (136) 
48012

>  <i_f3d_flags>  (136) 
0

>  <s_epik_input>  (136) 
W0NIXT0xXFtDSDJdW0NIMl1bQ0BASF0oW0NIMl0yKVtDQEhdKFtDSDJdMylDKD1bQ0gyXSlbQ0BASF0oW09IXSlbQ0BASF0zW0NAQF0oW0NIM10pKEM0KFtPSF0pW0NASF01W09IXSlbQ0BAXShbT0hdKShbQ0gyXTYpXEMxW0NAXTQoW0NIM10pW0NASF0yW0NASF01W0NAQF0oW0NIM10pKFtDQEBIXTdbT0hdKVtDQEBdNihbQ0gzXSlbQ0BIXShbQ0BASF04W0NIM10pW0NAQEhdN09bQ0BAXTg5W0NIMl1bQ0gyXVtDQEBIXShbQ0gzXSlbQ0gyXU85

>  <s_epik_cmdline>  (136) 
J2VwaWtfcHl0aG9uJywgJy1waHQnLCAnMi4wJywgJy1waCcsICc3LjAnLCAnLXRuJywgJzgnLCAnLW1hJywgJzIwMCcsICctaW1hZScsICc8aW5maWxlLm1hZT4nLCAnLW9tYWUnLCAnPG91dGZpbGUubWFlPic=

>  <r_lp_tautomer_probability>  (136) 
1

>  <r_epik_Ionization_Penalty>  (136) 
1.00283e-06

>  <r_epik_Ionization_Penalty_Charging>  (136) 
0

>  <r_epik_Ionization_Penalty_Neutral>  (136) 
1.00283e-06

>  <r_epik_State_Penalty>  (136) 
-0

>  <r_epik_Charging_Adjusted_Penalty>  (136) 
0

>  <i_epik_Tot_Q>  (136) 
0

>  <i_epik_Tot_abs_Q>  (136) 
0

>  <s_lp_Force_Field>  (136) 
OPLS3e

>  <r_lp_Energy>  (136) 
471.819

>  <b_lp_Chiralities_Consistent>  (136) 
1

>  <s_lp_Variant>  (136) 
43:0-3

>  <s_i_glide_gridfile>  (136) 
pfpi4k_grid

>  <i_i_glide_lignum>  (136) 
28

>  <i_i_glide_rotatable_bonds>  (136) 
5

>  <r_i_docking_score>  (136) 
-2.9951

>  <r_i_glide_ligand_efficiency>  (136) 
-0.0680704

>  <r_i_glide_ligand_efficiency_sa>  (136) 
-0.240312

>  <r_i_glide_ligand_efficiency_ln>  (136) 
-0.626041

>  <r_i_glide_gscore>  (136) 
-2.9951

>  <r_i_glide_lipo>  (136) 
-0.344847

>  <r_i_glide_hbond>  (136) 
-0.269283

>  <r_i_glide_metal>  (136) 
-0

>  <r_i_glide_rewards>  (136) 
-0.000296

>  <r_i_glide_evdw>  (136) 
-26.3872

>  <r_i_glide_ecoul>  (136) 
-7.07541

>  <r_i_glide_erotb>  (136) 
0

>  <r_i_glide_esite>  (136) 
0

>  <r_i_glide_emodel>  (136) 
-38.3589

>  <r_i_glide_energy>  (136) 
-33.4626

>  <r_i_glide_einternal>  (136) 
1.42771

>  <r_i_glide_intrahb_reward>  (136) 
-0

>  <i_i_glide_confnum>  (136) 
4

>  <i_i_glide_posenum>  (136) 
11

>  <r_i_glide_eff_state_penalty>  (136) 
0

>  <ligand_id>  (136) 
43

>  <original_smiles>  (136) 
C=C1C(O)C2CC1C1CCC=C3C4(O)CC5(C)C6C(OC7(CCC(C)CO7)C6C)C(O)C5(C)C5C(C1)C3(C)C(O)(C5O)C24C

>  <smiles>  (136) 
[H]OC1([H])C(=C([H])[H])C2([H])C([H])([H])C1([H])C1(C([H])([H])[H])C3(O[H])C4=C([H])C([H])([H])C([H])([H])C2([H])C([H])([H])C2([H])C([H])(C([H])(O[H])C1(O[H])C42C([H])([H])[H])C1(C([H])([H])[H])C([H])(O[H])C2([H])OC4(OC([H])([H])C([H])(C([H])([H])[H])C([H])([H])C4([H])[H])C([H])(C([H])([H])[H])C2([H])C1(C([H])([H])[H])C3([H])[H]

$$$$
43:2:2
     RDKit          3D

 98106  0  0  1  0  0  0  0  0999 V2000
   -2.8136    3.3112    5.2240 C   0  0  0  0  0  0  0  0  0  0  0  0
   -1.4793    3.2421    5.1435 C   0  0  0  0  0  0  0  0  0  0  0  0
   -0.6356    3.5476    3.8940 C   0  0  1  0  0  0  0  0  0  0  0  0
   -1.0818    4.7429    3.2860 O   0  0  0  0  0  0  0  0  0  0  0  0
    0.8358    3.6990    4.4140 C   0  0  1  0  0  0  0  0  0  0  0  0
    0.5868    3.9566    5.9375 C   0  0  0  0  0  0  0  0  0  0  0  0
   -0.5433    3.0223    6.2871 C   0  0  1  0  0  0  0  0  0  0  0  0
   -0.5759    1.8267    7.2935 C   0  0  1  0  0  0  0  0  0  0  0  0
   -1.3661    0.5501    6.8652 C   0  0  0  0  0  0  0  0  0  0  0  0
   -1.6707    0.1368    5.3997 C   0  0  0  0  0  0  0  0  0  0  0  0
   -0.6486    0.4559    4.3090 C   0  0  0  0  0  0  0  0  0  0  0  0
    0.6772    0.6781    4.4019 C   0  0  0  0  0  0  0  0  0  0  0  0
    1.6443    1.1395    3.3424 C   0  0  2  0  0  0  0  0  0  0  0  0
    0.9988    1.2282    2.0804 O   0  0  0  0  0  0  0  0  0  0  0  0
    2.9104    0.0058    3.1500 C   0  0  0  0  0  0  0  0  0  0  0  0
    4.1221   -0.6258    4.2190 C   0  0  2  0  0  0  0  0  0  0  0  0
    5.4106   -0.1854    3.4045 C   0  0  0  0  0  0  0  0  0  0  0  0
    4.3886   -2.2125    4.1620 C   0  0  1  0  0  0  0  0  0  0  0  0
    4.8772   -2.7543    5.5111 C   0  0  2  0  0  0  0  0  0  0  0  0
    4.3501   -4.0830    5.5550 O   0  0  0  0  0  0  0  0  0  0  0  0
    4.1931   -4.5714    4.2490 C   0  0  2  0  0  0  0  0  0  0  0  0
    3.3878   -5.9023    4.3530 C   0  0  0  0  0  0  0  0  0  0  0  0
    3.2676   -6.5658    2.9621 C   0  0  0  0  0  0  0  0  0  0  0  0
    4.6452   -6.7709    2.3294 C   0  0  1  0  0  0  0  0  0  0  0  0
    4.4663   -7.2212    0.8802 C   0  0  0  0  0  0  0  0  0  0  0  0
    5.4614   -5.4587    2.3733 C   0  0  0  0  0  0  0  0  0  0  0  0
    5.4520   -4.8811    3.6910 O   0  0  0  0  0  0  0  0  0  0  0  0
    3.5681   -3.3574    3.4817 C   0  0  1  0  0  0  0  0  0  0  0  0
    2.0220   -3.4711    3.4888 C   0  0  0  0  0  0  0  0  0  0  0  0
    4.3848   -1.7839    6.6025 C   0  0  1  0  0  0  0  0  0  0  0  0
    5.1846   -1.8592    7.7801 O   0  0  0  0  0  0  0  0  0  0  0  0
    4.3283   -0.3428    5.9313 C   0  0  1  0  0  0  0  0  0  0  0  0
    5.7966    0.1904    6.1631 C   0  0  0  0  0  0  0  0  0  0  0  0
    3.3826    0.6571    6.9091 C   0  0  2  0  0  0  0  0  0  0  0  0
    1.7889    0.4682    6.9770 C   0  0  1  0  0  0  0  0  0  0  0  0
    0.8328    1.3973    7.8417 C   0  0  0  0  0  0  0  0  0  0  0  0
    1.6966    0.5131    5.4752 C   0  0  1  0  0  0  0  0  0  0  0  0
    1.5095   -1.0660    5.2783 C   0  0  0  0  0  0  0  0  0  0  0  0
    2.6716    1.8477    5.1487 C   0  0  2  0  0  0  0  0  0  0  0  0
    3.9171    2.0074    4.4825 O   0  0  0  0  0  0  0  0  0  0  0  0
    3.5420    2.1108    6.4317 C   0  0  1  0  0  0  0  0  0  0  0  0
    3.2725    3.0508    7.4427 O   0  0  0  0  0  0  0  0  0  0  0  0
    1.9612    2.6107    3.9557 C   0  0  2  0  0  0  0  0  0  0  0  0
    2.7095    3.4223    2.8457 C   0  0  0  0  0  0  0  0  0  0  0  0
   -3.3341    3.1322    6.1546 H   0  0  0  0  0  0  0  0  0  0  0  0
   -3.3705    3.4812    4.3245 H   0  0  0  0  0  0  0  0  0  0  0  0
   -0.7567    2.7719    3.1389 H   0  0  0  0  0  0  0  0  0  0  0  0
   -0.7163    4.7506    2.4022 H   0  0  0  0  0  0  0  0  0  0  0  0
    1.1883    4.6758    4.0807 H   0  0  0  0  0  0  0  0  0  0  0  0
    1.4266    3.9428    6.5850 H   0  0  0  0  0  0  0  0  0  0  0  0
    0.1895    4.9660    6.0582 H   0  0  0  0  0  0  0  0  0  0  0  0
   -0.0403    2.2656    5.8026 H   0  0  0  0  0  0  0  0  0  0  0  0
   -1.1039    2.2149    8.1637 H   0  0  0  0  0  0  0  0  0  0  0  0
   -0.8786   -0.3077    7.3338 H   0  0  0  0  0  0  0  0  0  0  0  0
   -2.3388    0.6284    7.3343 H   0  0  0  0  0  0  0  0  0  0  0  0
   -1.9087   -0.9249    5.3396 H   0  0  0  0  0  0  0  0  0  0  0  0
   -2.5887    0.6325    5.0938 H   0  0  0  0  0  0  0  0  0  0  0  0
   -1.1115    0.5834    3.3418 H   0  0  0  0  0  0  0  0  0  0  0  0
    0.6242    2.0851    1.9508 H   0  0  0  0  0  0  0  0  0  0  0  0
    2.4597   -0.8577    2.6896 H   0  0  0  0  0  0  0  0  0  0  0  0
    3.4352    0.3884    2.2771 H   0  0  0  0  0  0  0  0  0  0  0  0
    6.3451   -0.5732    3.7911 H   0  0  0  0  0  0  0  0  0  0  0  0
    5.5780    0.8794    3.3203 H   0  0  0  0  0  0  0  0  0  0  0  0
    5.3818   -0.5580    2.3764 H   0  0  0  0  0  0  0  0  0  0  0  0
    5.2935   -2.3853    3.5764 H   0  0  0  0  0  0  0  0  0  0  0  0
    5.9702   -2.7988    5.5170 H   0  0  0  0  0  0  0  0  0  0  0  0
    3.9022   -6.5707    5.0457 H   0  0  0  0  0  0  0  0  0  0  0  0
    2.4160   -5.7235    4.8134 H   0  0  0  0  0  0  0  0  0  0  0  0
    2.7480   -7.5253    3.0646 H   0  0  0  0  0  0  0  0  0  0  0  0
    2.6827   -5.9888    2.2553 H   0  0  0  0  0  0  0  0  0  0  0  0
    5.1802   -7.5339    2.9021 H   0  0  0  0  0  0  0  0  0  0  0  0
    3.9676   -6.4601    0.2701 H   0  0  0  0  0  0  0  0  0  0  0  0
    3.8736   -8.1308    0.8117 H   0  0  0  0  0  0  0  0  0  0  0  0
    5.4358   -7.4068    0.4360 H   0  0  0  0  0  0  0  0  0  0  0  0
    6.5062   -5.6639    2.0956 H   0  0  0  0  0  0  0  0  0  0  0  0
    5.1126   -4.7641    1.6229 H   0  0  0  0  0  0  0  0  0  0  0  0
    3.8188   -3.3378    2.4421 H   0  0  0  0  0  0  0  0  0  0  0  0
    1.5756   -3.5032    4.4895 H   0  0  0  0  0  0  0  0  0  0  0  0
    1.6702   -4.3566    2.9989 H   0  0  0  0  0  0  0  0  0  0  0  0
    1.5856   -2.7026    2.8601 H   0  0  0  0  0  0  0  0  0  0  0  0
    3.4316   -2.1207    6.9967 H   0  0  0  0  0  0  0  0  0  0  0  0
    6.0759   -1.6738    7.5532 H   0  0  0  0  0  0  0  0  0  0  0  0
    5.9602    0.4893    7.1988 H   0  0  0  0  0  0  0  0  0  0  0  0
    6.0528    1.0643    5.5694 H   0  0  0  0  0  0  0  0  0  0  0  0
    6.5648   -0.5504    5.9431 H   0  0  0  0  0  0  0  0  0  0  0  0
    3.7635    0.5875    7.9287 H   0  0  0  0  0  0  0  0  0  0  0  0
    1.6617   -0.5089    7.4444 H   0  0  0  0  0  0  0  0  0  0  0  0
    1.2899    2.2710    8.2855 H   0  0  0  0  0  0  0  0  0  0  0  0
    0.6330    0.8148    8.7449 H   0  0  0  0  0  0  0  0  0  0  0  0
    2.2973   -1.7365    5.4755 H   0  0  0  0  0  0  0  0  0  0  0  0
    1.1447   -1.4060    4.3202 H   0  0  0  0  0  0  0  0  0  0  0  0
    0.6978   -1.4431    5.8989 H   0  0  0  0  0  0  0  0  0  0  0  0
    3.7928    1.9530    3.5627 H   0  0  0  0  0  0  0  0  0  0  0  0
    4.6100    2.3798    6.3868 H   0  0  0  0  0  0  0  0  0  0  0  0
    2.3685    2.9881    7.6708 H   0  0  0  0  0  0  0  0  0  0  0  0
    3.3783    2.8027    2.2560 H   0  0  0  0  0  0  0  0  0  0  0  0
    3.2873    4.2528    3.2564 H   0  0  0  0  0  0  0  0  0  0  0  0
    2.0113    3.8390    2.1203 H   0  0  0  0  0  0  0  0  0  0  0  0
  1  2  2  0
  1 45  1  0
  1 46  1  0
  2  7  1  0
  2  3  1  0
  3  4  1  0
  3  5  1  0
  3 47  1  6
  4 48  1  0
  5 43  1  0
  5  6  1  0
  5 49  1  6
  6  7  1  0
  6 50  1  0
  6 51  1  0
  7  8  1  0
  7 52  1  1
  8 36  1  0
  8  9  1  0
  8 53  1  1
  9 10  1  0
  9 54  1  0
  9 55  1  0
 10 11  1  0
 10 56  1  0
 10 57  1  0
 11 12  2  3
 11 58  1  0
 12 37  1  0
 12 13  1  0
 13 43  1  0
 13 14  1  6
 13 15  1  0
 14 59  1  0
 15 16  1  0
 15 60  1  0
 15 61  1  0
 16 32  1  0
 16 17  1  6
 16 18  1  0
 17 62  1  0
 17 63  1  0
 17 64  1  0
 18 28  1  0
 18 19  1  0
 18 65  1  6
 19 20  1  0
 19 30  1  0
 19 66  1  6
 21 20  1  1
 21 27  1  0
 21 22  1  0
 21 28  1  0
 22 23  1  0
 22 67  1  0
 22 68  1  0
 23 24  1  0
 23 69  1  0
 23 70  1  0
 24 25  1  0
 24 26  1  0
 24 71  1  1
 25 72  1  0
 25 73  1  0
 25 74  1  0
 26 27  1  0
 26 75  1  0
 26 76  1  0
 28 29  1  0
 28 77  1  6
 29 78  1  0
 29 79  1  0
 29 80  1  0
 30 31  1  0
 30 32  1  0
 30 81  1  1
 31 82  1  0
 32 33  1  6
 32 34  1  0
 33 83  1  0
 33 84  1  0
 33 85  1  0
 34 41  1  0
 34 35  1  0
 34 86  1  1
 35 36  1  0
 35 37  1  0
 35 87  1  1
 36 88  1  0
 36 89  1  0
 37 38  1  6
 37 39  1  0
 38 90  1  0
 38 91  1  0
 38 92  1  0
 39 40  1  6
 39 41  1  0
 39 43  1  0
 40 93  1  0
 41 42  1  0
 41 94  1  6
 42 95  1  0
 43 44  1  6
 44 96  1  0
 44 97  1  0
 44 98  1  0
M  END
>  <i_m_ct_stereo_status>  (137) 
1

>  <s_m_source_file>  (137) 
/var/tmp/pbs.5076255.sched01/tmp1pob34vh/39rbzpz6sd.sdf

>  <i_m_source_file_index>  (137) 
28

>  <i_lp_mmshare_version>  (137) 
48012

>  <i_f3d_flags>  (137) 
0

>  <s_epik_input>  (137) 
W0NIXT0xXFtDSDJdW0NIMl1bQ0BASF0oW0NIMl0yKVtDQEhdKFtDSDJdMylDKD1bQ0gyXSlbQ0BASF0oW09IXSlbQ0BASF0zW0NAQF0oW0NIM10pKEM0KFtPSF0pW0NASF01W09IXSlbQ0BAXShbT0hdKShbQ0gyXTYpXEMxW0NAXTQoW0NIM10pW0NASF0yW0NASF01W0NAQF0oW0NIM10pKFtDQEBIXTdbT0hdKVtDQEBdNihbQ0gzXSlbQ0BIXShbQ0BASF04W0NIM10pW0NAQEhdN09bQ0BAXTg5W0NIMl1bQ0gyXVtDQEBIXShbQ0gzXSlbQ0gyXU85

>  <s_epik_cmdline>  (137) 
J2VwaWtfcHl0aG9uJywgJy1waHQnLCAnMi4wJywgJy1waCcsICc3LjAnLCAnLXRuJywgJzgnLCAnLW1hJywgJzIwMCcsICctaW1hZScsICc8aW5maWxlLm1hZT4nLCAnLW9tYWUnLCAnPG91dGZpbGUubWFlPic=

>  <r_lp_tautomer_probability>  (137) 
1

>  <r_epik_Ionization_Penalty>  (137) 
1.00283e-06

>  <r_epik_Ionization_Penalty_Charging>  (137) 
0

>  <r_epik_Ionization_Penalty_Neutral>  (137) 
1.00283e-06

>  <r_epik_State_Penalty>  (137) 
-0

>  <r_epik_Charging_Adjusted_Penalty>  (137) 
0

>  <i_epik_Tot_Q>  (137) 
0

>  <i_epik_Tot_abs_Q>  (137) 
0

>  <s_lp_Force_Field>  (137) 
OPLS3e

>  <r_lp_Energy>  (137) 
471.819

>  <b_lp_Chiralities_Consistent>  (137) 
1

>  <s_lp_Variant>  (137) 
43:0-3

>  <s_i_glide_gridfile>  (137) 
pfpi4k_grid

>  <i_i_glide_lignum>  (137) 
28

>  <i_i_glide_rotatable_bonds>  (137) 
5

>  <r_i_docking_score>  (137) 
-2.98802

>  <r_i_glide_ligand_efficiency>  (137) 
-0.0679096

>  <r_i_glide_ligand_efficiency_sa>  (137) 
-0.239745

>  <r_i_glide_ligand_efficiency_ln>  (137) 
-0.624562

>  <r_i_glide_gscore>  (137) 
-2.98802

>  <r_i_glide_lipo>  (137) 
-0.351203

>  <r_i_glide_hbond>  (137) 
-0.262709

>  <r_i_glide_metal>  (137) 
-0

>  <r_i_glide_rewards>  (137) 
-0.000198393

>  <r_i_glide_evdw>  (137) 
-26.3891

>  <r_i_glide_ecoul>  (137) 
-7.02972

>  <r_i_glide_erotb>  (137) 
0

>  <r_i_glide_esite>  (137) 
0

>  <r_i_glide_emodel>  (137) 
-38.3901

>  <r_i_glide_energy>  (137) 
-33.4188

>  <r_i_glide_einternal>  (137) 
1.11302

>  <r_i_glide_intrahb_reward>  (137) 
-0

>  <i_i_glide_confnum>  (137) 
2

>  <i_i_glide_posenum>  (137) 
23

>  <r_i_glide_eff_state_penalty>  (137) 
0

>  <ligand_id>  (137) 
43

>  <original_smiles>  (137) 
C=C1C(O)C2CC1C1CCC=C3C4(O)CC5(C)C6C(OC7(CCC(C)CO7)C6C)C(O)C5(C)C5C(C1)C3(C)C(O)(C5O)C24C

>  <smiles>  (137) 
[H]OC1([H])C(=C([H])[H])C2([H])C([H])([H])C1([H])C1(C([H])([H])[H])C3(O[H])C4=C([H])C([H])([H])C([H])([H])C2([H])C([H])([H])C2([H])C([H])(C([H])(O[H])C1(O[H])C42C([H])([H])[H])C1(C([H])([H])[H])C([H])(O[H])C2([H])OC4(OC([H])([H])C([H])(C([H])([H])[H])C([H])([H])C4([H])[H])C([H])(C([H])([H])[H])C2([H])C1(C([H])([H])[H])C3([H])[H]

$$$$
44:0:0
     RDKit          3D

 47 50  0  0  1  0  0  0  0  0999 V2000
    6.0826   -2.9807   -2.0337 C   0  0  0  0  0  0  0  0  0  0  0  0
    4.6358   -2.5290   -1.7377 C   0  0  2  0  0  0  0  0  0  0  0  0
    4.6156   -1.1554   -1.0284 C   0  0  0  0  0  0  0  0  0  0  0  0
    4.8578   -1.2286    0.4901 C   0  0  0  0  0  0  0  0  0  0  0  0
    3.7913   -2.1185    1.1819 C   0  0  1  0  0  0  0  0  0  0  0  0
    3.9033   -3.5495    0.5966 C   0  0  2  0  0  0  0  0  0  0  0  0
    5.1407   -4.2978    1.1454 C   0  0  0  0  0  0  0  0  0  0  0  0
    5.3290   -4.1064    2.6315 C   0  0  0  0  0  0  0  0  0  0  0  0
    4.7240   -3.1508    3.3601 C   0  0  0  0  0  0  0  0  0  0  0  0
    4.7921   -3.1689    4.8767 C   0  0  0  0  0  0  0  0  0  0  0  0
    3.3932   -3.4886    5.3945 C   0  0  0  0  0  0  0  0  0  0  0  0
    3.1975   -4.3488    6.2511 O   0  0  0  0  0  0  0  0  0  0  0  0
    2.2408   -2.6617    4.8145 C   0  0  0  0  0  0  0  0  0  0  0  0
    2.3468   -2.4945    3.2757 C   0  0  0  0  0  0  0  0  0  0  0  0
    3.7661   -2.1085    2.7586 C   0  0  2  0  0  0  0  0  0  0  0  0
    4.1000   -0.6869    3.2810 C   0  0  0  0  0  0  0  0  0  0  0  0
    3.8163   -3.5907   -0.9568 C   0  0  1  0  0  0  0  0  0  0  0  0
    2.3730   -3.4544   -1.4785 C   0  0  0  0  0  0  0  0  0  0  0  0
    2.4707   -3.0567   -2.9507 C   0  0  0  0  0  0  0  0  0  0  0  0
    3.8367   -2.4175   -3.0472 C   0  0  0  0  0  0  0  0  0  0  0  0
    4.2312   -1.8670   -4.0735 O   0  0  0  0  0  0  0  0  0  0  0  0
    6.7004   -3.0347   -1.1409 H   0  0  0  0  0  0  0  0  0  0  0  0
    6.5826   -2.2993   -2.7173 H   0  0  0  0  0  0  0  0  0  0  0  0
    6.0979   -3.9577   -2.5112 H   0  0  0  0  0  0  0  0  0  0  0  0
    5.3567   -0.4964   -1.4791 H   0  0  0  0  0  0  0  0  0  0  0  0
    3.6542   -0.6645   -1.1944 H   0  0  0  0  0  0  0  0  0  0  0  0
    5.8646   -1.5944    0.7001 H   0  0  0  0  0  0  0  0  0  0  0  0
    4.8216   -0.2042    0.8598 H   0  0  0  0  0  0  0  0  0  0  0  0
    2.8320   -1.7060    0.8708 H   0  0  0  0  0  0  0  0  0  0  0  0
    3.0424   -4.1156    0.9560 H   0  0  0  0  0  0  0  0  0  0  0  0
    5.0216   -5.3658    0.9579 H   0  0  0  0  0  0  0  0  0  0  0  0
    6.0650   -3.9932    0.6639 H   0  0  0  0  0  0  0  0  0  0  0  0
    5.9572   -4.8361    3.1198 H   0  0  0  0  0  0  0  0  0  0  0  0
    5.5010   -3.9207    5.2265 H   0  0  0  0  0  0  0  0  0  0  0  0
    5.1202   -2.2081    5.2702 H   0  0  0  0  0  0  0  0  0  0  0  0
    1.2939   -3.1337    5.0795 H   0  0  0  0  0  0  0  0  0  0  0  0
    2.2481   -1.6904    5.3092 H   0  0  0  0  0  0  0  0  0  0  0  0
    2.0416   -3.4420    2.8316 H   0  0  0  0  0  0  0  0  0  0  0  0
    1.6072   -1.7621    2.9428 H   0  0  0  0  0  0  0  0  0  0  0  0
    3.4781    0.0634    2.7898 H   0  0  0  0  0  0  0  0  0  0  0  0
    5.1447   -0.4291    3.1049 H   0  0  0  0  0  0  0  0  0  0  0  0
    3.9310   -0.5740    4.3507 H   0  0  0  0  0  0  0  0  0  0  0  0
    4.1704   -4.5727   -1.2745 H   0  0  0  0  0  0  0  0  0  0  0  0
    1.8086   -4.3806   -1.3569 H   0  0  0  0  0  0  0  0  0  0  0  0
    1.8440   -2.6717   -0.9401 H   0  0  0  0  0  0  0  0  0  0  0  0
    2.4517   -3.9330   -3.5992 H   0  0  0  0  0  0  0  0  0  0  0  0
    1.6806   -2.3776   -3.2727 H   0  0  0  0  0  0  0  0  0  0  0  0
  2  1  1  6
  1 22  1  0
  1 23  1  0
  1 24  1  0
  2 17  1  0
  2 20  1  0
  2  3  1  0
  3  4  1  0
  3 25  1  0
  3 26  1  0
  4  5  1  0
  4 27  1  0
  4 28  1  0
  5 15  1  0
  5  6  1  0
  5 29  1  6
  6  7  1  0
  6 17  1  0
  6 30  1  1
  7  8  1  0
  7 31  1  0
  7 32  1  0
  8  9  2  0
  8 33  1  0
  9 15  1  0
  9 10  1  0
 10 11  1  0
 10 34  1  0
 10 35  1  0
 11 12  2  0
 11 13  1  0
 13 14  1  0
 13 36  1  0
 13 37  1  0
 14 15  1  0
 14 38  1  0
 14 39  1  0
 15 16  1  1
 16 40  1  0
 16 41  1  0
 16 42  1  0
 17 18  1  0
 17 43  1  6
 18 19  1  0
 18 44  1  0
 18 45  1  0
 19 20  1  0
 19 46  1  0
 19 47  1  0
 20 21  2  0
M  END
>  <i_m_ct_stereo_status>  (138) 
1

>  <s_m_source_file>  (138) 
/var/tmp/pbs.5076255.sched01/tmp1pob34vh/39rbzpz6sd.sdf

>  <i_m_source_file_index>  (138) 
29

>  <i_lp_mmshare_version>  (138) 
48012

>  <i_f3d_flags>  (138) 
0

>  <s_epik_input>  (138) 
Tz1DMVtDSDJdW0NIMl1bQ0BASF0oW0NAQF0xMltDSDNdKVtDQEBIXTNbQ0BIXShbQ0gyXVtDSDJdMilbQ0BdNChbQ0gzXSlDKD1bQ0hdW0NIMl0zKVtDSDJdQyg9TylbQ0gyXVtDSDJdNA==

>  <s_epik_cmdline>  (138) 
J2VwaWtfcHl0aG9uJywgJy1waHQnLCAnMi4wJywgJy1waCcsICc3LjAnLCAnLXRuJywgJzgnLCAnLW1hJywgJzIwMCcsICctaW1hZScsICc8aW5maWxlLm1hZT4nLCAnLW9tYWUnLCAnPG91dGZpbGUubWFlPic=

>  <r_lp_tautomer_probability>  (138) 
1

>  <r_epik_Ionization_Penalty>  (138) 
2.15887e-13

>  <r_epik_Ionization_Penalty_Charging>  (138) 
0

>  <r_epik_Ionization_Penalty_Neutral>  (138) 
2.15887e-13

>  <r_epik_State_Penalty>  (138) 
-0

>  <r_epik_Charging_Adjusted_Penalty>  (138) 
0

>  <i_epik_Tot_Q>  (138) 
0

>  <i_epik_Tot_abs_Q>  (138) 
0

>  <s_lp_Force_Field>  (138) 
OPLS3e

>  <r_lp_Energy>  (138) 
35.3757

>  <b_lp_Chiralities_Consistent>  (138) 
1

>  <s_lp_Variant>  (138) 
44:0-1

>  <s_i_glide_gridfile>  (138) 
pfpi4k_grid

>  <i_i_glide_lignum>  (138) 
29

>  <i_i_glide_rotatable_bonds>  (138) 
0

>  <r_i_docking_score>  (138) 
-4.11227

>  <r_i_glide_ligand_efficiency>  (138) 
-0.195823

>  <r_i_glide_ligand_efficiency_sa>  (138) 
-0.540259

>  <r_i_glide_ligand_efficiency_ln>  (138) 
-1.01675

>  <r_i_glide_gscore>  (138) 
-4.11227

>  <r_i_glide_lipo>  (138) 
-0.507435

>  <r_i_glide_hbond>  (138) 
-0.235617

>  <r_i_glide_metal>  (138) 
-0

>  <r_i_glide_rewards>  (138) 
-1.61475

>  <r_i_glide_evdw>  (138) 
-23.6755

>  <r_i_glide_ecoul>  (138) 
-3.80464

>  <r_i_glide_erotb>  (138) 
0

>  <r_i_glide_esite>  (138) 
0

>  <r_i_glide_emodel>  (138) 
-34.1987

>  <r_i_glide_energy>  (138) 
-27.4802

>  <r_i_glide_einternal>  (138) 
0

>  <r_i_glide_intrahb_reward>  (138) 
-0

>  <i_i_glide_confnum>  (138) 
1

>  <i_i_glide_posenum>  (138) 
30

>  <r_i_glide_eff_state_penalty>  (138) 
0

>  <ligand_id>  (138) 
44

>  <original_smiles>  (138) 
CC12CCC3C(CC=C4CC(=O)CCC43C)C1CCC2=O

>  <smiles>  (138) 
[H]C1=C2C([H])([H])C(=O)C([H])([H])C([H])([H])C2(C([H])([H])[H])C2([H])C([H])([H])C([H])([H])C3(C([H])([H])[H])C(=O)C([H])([H])C([H])([H])C3([H])C2([H])C1([H])[H]

$$$$
44:0:1
     RDKit          3D

 47 50  0  0  1  0  0  0  0  0999 V2000
    3.0848   -3.3155   -3.9296 C   0  0  0  0  0  0  0  0  0  0  0  0
    3.9791   -2.6245   -2.9163 C   0  0  2  0  0  0  0  0  0  0  0  0
    5.3089   -3.3046   -2.6020 C   0  0  0  0  0  0  0  0  0  0  0  0
    5.2358   -4.3117   -1.4383 C   0  0  0  0  0  0  0  0  0  0  0  0
    4.7068   -3.7642   -0.1153 C   0  0  1  0  0  0  0  0  0  0  0  0
    3.3229   -3.1990   -0.3600 C   0  0  2  0  0  0  0  0  0  0  0  0
    2.2955   -4.2956   -0.5260 C   0  0  0  0  0  0  0  0  0  0  0  0
    2.4310   -5.4329    0.5023 C   0  0  0  0  0  0  0  0  0  0  0  0
    3.5320   -5.6197    1.2488 C   0  0  0  0  0  0  0  0  0  0  0  0
    3.5291   -6.5967    2.4299 C   0  0  0  0  0  0  0  0  0  0  0  0
    3.6661   -5.7538    3.6963 C   0  0  0  0  0  0  0  0  0  0  0  0
    2.9152   -5.9226    4.6622 O   0  0  0  0  0  0  0  0  0  0  0  0
    4.7786   -4.7098    3.7296 C   0  0  0  0  0  0  0  0  0  0  0  0
    4.8601   -3.8931    2.4169 C   0  0  0  0  0  0  0  0  0  0  0  0
    4.7825   -4.7477    1.1242 C   0  0  2  0  0  0  0  0  0  0  0  0
    6.0557   -5.6310    1.0439 C   0  0  0  0  0  0  0  0  0  0  0  0
    3.3052   -2.2541   -1.5874 C   0  0  1  0  0  0  0  0  0  0  0  0
    3.8814   -0.9217   -1.2006 C   0  0  0  0  0  0  0  0  0  0  0  0
    4.1528   -0.2162   -2.5314 C   0  0  0  0  0  0  0  0  0  0  0  0
    4.2289   -1.2746   -3.5445 C   0  0  0  0  0  0  0  0  0  0  0  0
    4.4221   -1.0570   -4.7349 O   0  0  0  0  0  0  0  0  0  0  0  0
    2.8075   -4.2413   -3.5413 H   0  0  0  0  0  0  0  0  0  0  0  0
    3.6205   -3.4797   -4.8715 H   0  0  0  0  0  0  0  0  0  0  0  0
    2.1293   -2.8301   -4.1004 H   0  0  0  0  0  0  0  0  0  0  0  0
    5.7085   -3.7917   -3.4929 H   0  0  0  0  0  0  0  0  0  0  0  0
    6.0636   -2.5683   -2.3131 H   0  0  0  0  0  0  0  0  0  0  0  0
    4.6624   -5.1751   -1.7534 H   0  0  0  0  0  0  0  0  0  0  0  0
    6.2191   -4.6050   -1.2119 H   0  0  0  0  0  0  0  0  0  0  0  0
    5.3874   -2.9430    0.0950 H   0  0  0  0  0  0  0  0  0  0  0  0
    3.0251   -2.6179    0.5225 H   0  0  0  0  0  0  0  0  0  0  0  0
    1.3845   -3.7958   -0.3809 H   0  0  0  0  0  0  0  0  0  0  0  0
    2.1992   -4.5765   -1.5474 H   0  0  0  0  0  0  0  0  0  0  0  0
    1.5603   -6.0461    0.6802 H   0  0  0  0  0  0  0  0  0  0  0  0
    2.6096   -7.1774    2.4567 H   0  0  0  0  0  0  0  0  0  0  0  0
    4.3656   -7.2918    2.3613 H   0  0  0  0  0  0  0  0  0  0  0  0
    4.6262   -4.0394    4.5745 H   0  0  0  0  0  0  0  0  0  0  0  0
    5.7176   -5.2265    3.9168 H   0  0  0  0  0  0  0  0  0  0  0  0
    4.0303   -3.1865    2.4244 H   0  0  0  0  0  0  0  0  0  0  0  0
    5.7697   -3.2910    2.4154 H   0  0  0  0  0  0  0  0  0  0  0  0
    6.9474   -5.0358    0.8550 H   0  0  0  0  0  0  0  0  0  0  0  0
    5.9738   -6.3739    0.2506 H   0  0  0  0  0  0  0  0  0  0  0  0
    6.2488   -6.1816    1.9626 H   0  0  0  0  0  0  0  0  0  0  0  0
    2.2802   -2.0995   -1.8866 H   0  0  0  0  0  0  0  0  0  0  0  0
    3.1906   -0.4406   -0.5135 H   0  0  0  0  0  0  0  0  0  0  0  0
    4.8124   -0.9840   -0.6443 H   0  0  0  0  0  0  0  0  0  0  0  0
    3.3003    0.3661   -2.8582 H   0  0  0  0  0  0  0  0  0  0  0  0
    5.0101    0.4406   -2.5417 H   0  0  0  0  0  0  0  0  0  0  0  0
  2  1  1  6
  1 22  1  0
  1 23  1  0
  1 24  1  0
  2 17  1  0
  2 20  1  0
  2  3  1  0
  3  4  1  0
  3 25  1  0
  3 26  1  0
  4  5  1  0
  4 27  1  0
  4 28  1  0
  5 15  1  0
  5  6  1  0
  5 29  1  1
  6  7  1  0
  6 17  1  0
  6 30  1  1
  7  8  1  0
  7 31  1  0
  7 32  1  0
  8  9  2  0
  8 33  1  0
  9 15  1  0
  9 10  1  0
 10 11  1  0
 10 34  1  0
 10 35  1  0
 11 12  2  0
 11 13  1  0
 13 14  1  0
 13 36  1  0
 13 37  1  0
 14 15  1  0
 14 38  1  0
 14 39  1  0
 15 16  1  6
 16 40  1  0
 16 41  1  0
 16 42  1  0
 17 18  1  0
 17 43  1  6
 18 19  1  0
 18 44  1  0
 18 45  1  0
 19 20  1  0
 19 46  1  0
 19 47  1  0
 20 21  2  0
M  END
>  <i_m_ct_stereo_status>  (139) 
1

>  <s_m_source_file>  (139) 
/var/tmp/pbs.5076255.sched01/tmp1pob34vh/39rbzpz6sd.sdf

>  <i_m_source_file_index>  (139) 
29

>  <i_lp_mmshare_version>  (139) 
48012

>  <i_f3d_flags>  (139) 
0

>  <s_epik_input>  (139) 
Tz1DMVtDSDJdW0NIMl1bQ0BASF0oW0NAQF0xMltDSDNdKVtDQEBIXTNbQ0BIXShbQ0gyXVtDSDJdMilbQ0BdNChbQ0gzXSlDKD1bQ0hdW0NIMl0zKVtDSDJdQyg9TylbQ0gyXVtDSDJdNA==

>  <s_epik_cmdline>  (139) 
J2VwaWtfcHl0aG9uJywgJy1waHQnLCAnMi4wJywgJy1waCcsICc3LjAnLCAnLXRuJywgJzgnLCAnLW1hJywgJzIwMCcsICctaW1hZScsICc8aW5maWxlLm1hZT4nLCAnLW9tYWUnLCAnPG91dGZpbGUubWFlPic=

>  <r_lp_tautomer_probability>  (139) 
1

>  <r_epik_Ionization_Penalty>  (139) 
2.15887e-13

>  <r_epik_Ionization_Penalty_Charging>  (139) 
0

>  <r_epik_Ionization_Penalty_Neutral>  (139) 
2.15887e-13

>  <r_epik_State_Penalty>  (139) 
-0

>  <r_epik_Charging_Adjusted_Penalty>  (139) 
0

>  <i_epik_Tot_Q>  (139) 
0

>  <i_epik_Tot_abs_Q>  (139) 
0

>  <s_lp_Force_Field>  (139) 
OPLS3e

>  <r_lp_Energy>  (139) 
35.3757

>  <b_lp_Chiralities_Consistent>  (139) 
1

>  <s_lp_Variant>  (139) 
44:0-1

>  <s_i_glide_gridfile>  (139) 
pfpi4k_grid

>  <i_i_glide_lignum>  (139) 
29

>  <i_i_glide_rotatable_bonds>  (139) 
0

>  <r_i_docking_score>  (139) 
-3.60595

>  <r_i_glide_ligand_efficiency>  (139) 
-0.171712

>  <r_i_glide_ligand_efficiency_sa>  (139) 
-0.47374

>  <r_i_glide_ligand_efficiency_ln>  (139) 
-0.891564

>  <r_i_glide_gscore>  (139) 
-3.60595

>  <r_i_glide_lipo>  (139) 
-0.786595

>  <r_i_glide_hbond>  (139) 
-0.32

>  <r_i_glide_metal>  (139) 
-0

>  <r_i_glide_rewards>  (139) 
-1.71013

>  <r_i_glide_evdw>  (139) 
-6.38354

>  <r_i_glide_ecoul>  (139) 
-3.13368

>  <r_i_glide_erotb>  (139) 
0

>  <r_i_glide_esite>  (139) 
0

>  <r_i_glide_emodel>  (139) 
-13.4351

>  <r_i_glide_energy>  (139) 
-9.51722

>  <r_i_glide_einternal>  (139) 
0

>  <r_i_glide_intrahb_reward>  (139) 
-0

>  <i_i_glide_confnum>  (139) 
2

>  <i_i_glide_posenum>  (139) 
10

>  <r_i_glide_eff_state_penalty>  (139) 
0

>  <ligand_id>  (139) 
44

>  <original_smiles>  (139) 
CC12CCC3C(CC=C4CC(=O)CCC43C)C1CCC2=O

>  <smiles>  (139) 
[H]C1=C2C([H])([H])C(=O)C([H])([H])C([H])([H])C2(C([H])([H])[H])C2([H])C([H])([H])C([H])([H])C3(C([H])([H])[H])C(=O)C([H])([H])C([H])([H])C3([H])C2([H])C1([H])[H]

$$$$
44:0:2
     RDKit          3D

 47 50  0  0  1  0  0  0  0  0999 V2000
    2.6007   -3.3652   -2.7765 C   0  0  0  0  0  0  0  0  0  0  0  0
    3.8732   -2.7988   -2.1173 C   0  0  2  0  0  0  0  0  0  0  0  0
    4.9797   -3.8605   -1.9241 C   0  0  0  0  0  0  0  0  0  0  0  0
    4.8041   -4.7112   -0.6468 C   0  0  0  0  0  0  0  0  0  0  0  0
    4.8086   -3.8376    0.6231 C   0  0  1  0  0  0  0  0  0  0  0  0
    3.6335   -2.8478    0.5196 C   0  0  2  0  0  0  0  0  0  0  0  0
    2.3069   -3.5331    0.7793 C   0  0  0  0  0  0  0  0  0  0  0  0
    2.3036   -4.4916    1.9442 C   0  0  0  0  0  0  0  0  0  0  0  0
    3.4256   -4.9711    2.4984 C   0  0  0  0  0  0  0  0  0  0  0  0
    3.3822   -5.7260    3.8219 C   0  0  0  0  0  0  0  0  0  0  0  0
    4.0263   -4.8389    4.8906 C   0  0  0  0  0  0  0  0  0  0  0  0
    3.4833   -4.6274    5.9740 O   0  0  0  0  0  0  0  0  0  0  0  0
    5.3802   -4.2187    4.5279 C   0  0  0  0  0  0  0  0  0  0  0  0
    5.3787   -3.6356    3.0810 C   0  0  0  0  0  0  0  0  0  0  0  0
    4.8191   -4.5941    2.0031 C   0  0  2  0  0  0  0  0  0  0  0  0
    5.7291   -5.8429    1.8997 C   0  0  0  0  0  0  0  0  0  0  0  0
    3.6111   -2.0297   -0.8003 C   0  0  1  0  0  0  0  0  0  0  0  0
    4.6040   -0.8631   -0.7778 C   0  0  0  0  0  0  0  0  0  0  0  0
    4.7727   -0.4683   -2.2340 C   0  0  0  0  0  0  0  0  0  0  0  0
    4.3847   -1.6888   -3.0178 C   0  0  0  0  0  0  0  0  0  0  0  0
    4.4337   -1.7524   -4.2439 O   0  0  0  0  0  0  0  0  0  0  0  0
    2.1584   -4.1704   -2.2010 H   0  0  0  0  0  0  0  0  0  0  0  0
    2.8073   -3.7710   -3.7681 H   0  0  0  0  0  0  0  0  0  0  0  0
    1.8290   -2.6070   -2.9032 H   0  0  0  0  0  0  0  0  0  0  0  0
    5.0064   -4.5252   -2.7897 H   0  0  0  0  0  0  0  0  0  0  0  0
    5.9633   -3.3885   -1.8906 H   0  0  0  0  0  0  0  0  0  0  0  0
    3.8808   -5.2884   -0.6863 H   0  0  0  0  0  0  0  0  0  0  0  0
    5.6139   -5.4344   -0.6319 H   0  0  0  0  0  0  0  0  0  0  0  0
    5.7285   -3.2533    0.5719 H   0  0  0  0  0  0  0  0  0  0  0  0
    3.7305   -2.1073    1.3169 H   0  0  0  0  0  0  0  0  0  0  0  0
    1.6139   -2.7152    1.0105 H   0  0  0  0  0  0  0  0  0  0  0  0
    1.9207   -4.0749   -0.0808 H   0  0  0  0  0  0  0  0  0  0  0  0
    1.3515   -4.7421    2.3777 H   0  0  0  0  0  0  0  0  0  0  0  0
    2.3582   -5.9596    4.1031 H   0  0  0  0  0  0  0  0  0  0  0  0
    3.9281   -6.6656    3.7517 H   0  0  0  0  0  0  0  0  0  0  0  0
    5.6211   -3.4374    5.2512 H   0  0  0  0  0  0  0  0  0  0  0  0
    6.1417   -4.9902    4.6509 H   0  0  0  0  0  0  0  0  0  0  0  0
    4.8060   -2.7055    3.1158 H   0  0  0  0  0  0  0  0  0  0  0  0
    6.3595   -3.3346    2.7351 H   0  0  0  0  0  0  0  0  0  0  0  0
    6.6937   -5.5887    1.4611 H   0  0  0  0  0  0  0  0  0  0  0  0
    5.2675   -6.6151    1.2808 H   0  0  0  0  0  0  0  0  0  0  0  0
    5.9349   -6.3018    2.8652 H   0  0  0  0  0  0  0  0  0  0  0  0
    2.6271   -1.5822   -0.9062 H   0  0  0  0  0  0  0  0  0  0  0  0
    4.2327   -0.0325   -0.1753 H   0  0  0  0  0  0  0  0  0  0  0  0
    5.5718   -1.1660   -0.3763 H   0  0  0  0  0  0  0  0  0  0  0  0
    4.1270    0.3582   -2.5309 H   0  0  0  0  0  0  0  0  0  0  0  0
    5.8094   -0.1749   -2.3812 H   0  0  0  0  0  0  0  0  0  0  0  0
  2  1  1  6
  1 22  1  0
  1 23  1  0
  1 24  1  0
  2 17  1  0
  2 20  1  0
  2  3  1  0
  3  4  1  0
  3 25  1  0
  3 26  1  0
  4  5  1  0
  4 27  1  0
  4 28  1  0
  5 15  1  0
  5  6  1  0
  5 29  1  6
  6  7  1  0
  6 17  1  0
  6 30  1  1
  7  8  1  0
  7 31  1  0
  7 32  1  0
  8  9  2  0
  8 33  1  0
  9 15  1  0
  9 10  1  0
 10 11  1  0
 10 34  1  0
 10 35  1  0
 11 12  2  0
 11 13  1  0
 13 14  1  0
 13 36  1  0
 13 37  1  0
 14 15  1  0
 14 38  1  0
 14 39  1  0
 15 16  1  6
 16 40  1  0
 16 41  1  0
 16 42  1  0
 17 18  1  0
 17 43  1  6
 18 19  1  0
 18 44  1  0
 18 45  1  0
 19 20  1  0
 19 46  1  0
 19 47  1  0
 20 21  2  0
M  END
>  <i_m_ct_stereo_status>  (140) 
1

>  <s_m_source_file>  (140) 
/var/tmp/pbs.5076255.sched01/tmp1pob34vh/39rbzpz6sd.sdf

>  <i_m_source_file_index>  (140) 
29

>  <i_lp_mmshare_version>  (140) 
48012

>  <i_f3d_flags>  (140) 
0

>  <s_epik_input>  (140) 
Tz1DMVtDSDJdW0NIMl1bQ0BASF0oW0NAQF0xMltDSDNdKVtDQEBIXTNbQ0BIXShbQ0gyXVtDSDJdMilbQ0BdNChbQ0gzXSlDKD1bQ0hdW0NIMl0zKVtDSDJdQyg9TylbQ0gyXVtDSDJdNA==

>  <s_epik_cmdline>  (140) 
J2VwaWtfcHl0aG9uJywgJy1waHQnLCAnMi4wJywgJy1waCcsICc3LjAnLCAnLXRuJywgJzgnLCAnLW1hJywgJzIwMCcsICctaW1hZScsICc8aW5maWxlLm1hZT4nLCAnLW9tYWUnLCAnPG91dGZpbGUubWFlPic=

>  <r_lp_tautomer_probability>  (140) 
1

>  <r_epik_Ionization_Penalty>  (140) 
2.15887e-13

>  <r_epik_Ionization_Penalty_Charging>  (140) 
0

>  <r_epik_Ionization_Penalty_Neutral>  (140) 
2.15887e-13

>  <r_epik_State_Penalty>  (140) 
-0

>  <r_epik_Charging_Adjusted_Penalty>  (140) 
0

>  <i_epik_Tot_Q>  (140) 
0

>  <i_epik_Tot_abs_Q>  (140) 
0

>  <s_lp_Force_Field>  (140) 
OPLS3e

>  <r_lp_Energy>  (140) 
35.3757

>  <b_lp_Chiralities_Consistent>  (140) 
1

>  <s_lp_Variant>  (140) 
44:0-1

>  <s_i_glide_gridfile>  (140) 
pfpi4k_grid

>  <i_i_glide_lignum>  (140) 
29

>  <i_i_glide_rotatable_bonds>  (140) 
0

>  <r_i_docking_score>  (140) 
-3.01516

>  <r_i_glide_ligand_efficiency>  (140) 
-0.143579

>  <r_i_glide_ligand_efficiency_sa>  (140) 
-0.396124

>  <r_i_glide_ligand_efficiency_ln>  (140) 
-0.745493

>  <r_i_glide_gscore>  (140) 
-3.01516

>  <r_i_glide_lipo>  (140) 
-0.247887

>  <r_i_glide_hbond>  (140) 
-0.32

>  <r_i_glide_metal>  (140) 
-0

>  <r_i_glide_rewards>  (140) 
-1.50244

>  <r_i_glide_evdw>  (140) 
-8.49094

>  <r_i_glide_ecoul>  (140) 
-3.46861

>  <r_i_glide_erotb>  (140) 
0

>  <r_i_glide_esite>  (140) 
0

>  <r_i_glide_emodel>  (140) 
-16.5103

>  <r_i_glide_energy>  (140) 
-11.9595

>  <r_i_glide_einternal>  (140) 
0

>  <r_i_glide_intrahb_reward>  (140) 
-0

>  <i_i_glide_confnum>  (140) 
1

>  <i_i_glide_posenum>  (140) 
2

>  <r_i_glide_eff_state_penalty>  (140) 
0

>  <ligand_id>  (140) 
44

>  <original_smiles>  (140) 
CC12CCC3C(CC=C4CC(=O)CCC43C)C1CCC2=O

>  <smiles>  (140) 
[H]C1=C2C([H])([H])C(=O)C([H])([H])C([H])([H])C2(C([H])([H])[H])C2([H])C([H])([H])C([H])([H])C3(C([H])([H])[H])C(=O)C([H])([H])C([H])([H])C3([H])C2([H])C1([H])[H]

$$$$
45:0:0
     RDKit          3D

 73 80  0  0  1  0  0  0  0  0999 V2000
    4.5603   -3.4105    4.9324 C   0  0  0  0  0  0  0  0  0  0  0  0
    5.0837   -4.6127    4.3792 O   0  0  0  0  0  0  0  0  0  0  0  0
    4.8360   -4.8003    3.0163 C   0  0  2  0  0  0  0  0  0  0  0  0
    4.9488   -3.5868    2.3282 O   0  0  0  0  0  0  0  0  0  0  0  0
    4.7485   -3.5890    0.9200 C   0  0  1  0  0  0  0  0  0  0  0  0
    3.5289   -4.4480    0.4349 C   0  0  0  0  0  0  0  0  0  0  0  0
    2.8690   -4.1698   -0.6239 N   0  0  0  0  0  0  0  0  0  0  0  0
    3.2859   -3.1117   -1.4186 C   0  0  0  0  0  0  0  0  0  0  0  0
    3.0010   -2.8795   -2.7340 C   0  0  0  0  0  0  0  0  0  0  0  0
    3.6903   -1.8256   -3.2005 O   0  0  0  0  0  0  0  0  0  0  0  0
    4.3458   -1.3697   -2.0724 C   0  0  0  0  0  0  0  0  0  0  0  0
    5.0430   -0.2666   -2.3296 O   0  0  0  0  0  0  0  0  0  0  0  0
    4.1673   -2.1357   -0.9560 C   0  0  0  0  0  0  0  0  0  0  0  0
    4.7348   -2.1160    0.4393 C   0  0  1  0  0  0  0  0  0  0  0  0
    3.9702   -1.2200    1.3922 C   0  0  0  0  0  0  0  0  0  0  0  0
    2.6130   -1.0731    1.4684 C   0  0  0  0  0  0  0  0  0  0  0  0
    2.2192   -0.0984    2.4358 C   0  0  0  0  0  0  0  0  0  0  0  0
    3.2733    0.4355    3.1129 C   0  0  0  0  0  0  0  0  0  0  0  0
    4.7787   -0.2896    2.6516 S   0  0  0  0  0  0  0  0  0  0  0  0
    3.2539   -5.7192    1.2718 C   0  0  2  0  0  0  0  0  0  0  0  0
    4.2384   -6.7969    0.7478 C   0  0  0  0  0  0  0  0  0  0  0  0
    1.7853   -6.1759    1.1002 C   0  0  0  0  0  0  0  0  0  0  0  0
    1.3507   -7.3797    1.9490 C   0  0  0  0  0  0  0  0  0  0  0  0
    2.2392   -7.6919    3.1722 C   0  0  1  0  0  0  0  0  0  0  0  0
    2.9857   -6.4658    3.8031 C   0  0  2  0  0  0  0  0  0  0  0  0
    2.2237   -5.7847    4.9856 C   0  0  0  0  0  0  0  0  0  0  0  0
    1.1346   -6.5641    5.6567 C   0  0  1  0  0  0  0  0  0  0  0  0
   -0.0133   -6.7909    4.8138 O   0  0  0  0  0  0  0  0  0  0  0  0
    0.7419   -7.9339    5.2379 C   0  0  2  0  0  0  0  0  0  0  0  0
   -0.0269   -8.8342    6.1972 C   0  0  0  0  0  0  0  0  0  0  0  0
    0.8044   -9.9650    6.7737 C   0  0  0  0  0  0  0  0  0  0  0  0
    1.5612  -10.6867    5.6397 C   0  0  0  0  0  0  0  0  0  0  0  0
    2.4552   -9.7731    4.7843 C   0  0  0  0  0  0  0  0  0  0  0  0
    3.5601   -9.2143    5.7130 C   0  0  0  0  0  0  0  0  0  0  0  0
    3.1090  -10.6776    3.7122 C   0  0  0  0  0  0  0  0  0  0  0  0
    1.5318   -8.6752    4.1592 C   0  0  2  0  0  0  0  0  0  0  0  0
    3.4071   -5.3615    2.7725 C   0  0  1  0  0  0  0  0  0  0  0  0
    4.7305   -3.4033    6.0068 H   0  0  0  0  0  0  0  0  0  0  0  0
    3.4920   -3.3109    4.7518 H   0  0  0  0  0  0  0  0  0  0  0  0
    5.0557   -2.5309    4.5262 H   0  0  0  0  0  0  0  0  0  0  0  0
    5.5854   -5.5193    2.6729 H   0  0  0  0  0  0  0  0  0  0  0  0
    5.6285   -4.0532    0.4737 H   0  0  0  0  0  0  0  0  0  0  0  0
    2.3962   -3.3574   -3.4856 H   0  0  0  0  0  0  0  0  0  0  0  0
    5.7618   -1.7511    0.3882 H   0  0  0  0  0  0  0  0  0  0  0  0
    1.8753   -1.5852    0.8684 H   0  0  0  0  0  0  0  0  0  0  0  0
    1.1826    0.1700    2.5870 H   0  0  0  0  0  0  0  0  0  0  0  0
    3.2695    1.2100    3.8577 H   0  0  0  0  0  0  0  0  0  0  0  0
    3.8341   -7.2745   -0.1387 H   0  0  0  0  0  0  0  0  0  0  0  0
    4.4583   -7.5786    1.4643 H   0  0  0  0  0  0  0  0  0  0  0  0
    5.2046   -6.3881    0.4453 H   0  0  0  0  0  0  0  0  0  0  0  0
    1.1579   -5.3533    1.4202 H   0  0  0  0  0  0  0  0  0  0  0  0
    1.5411   -6.3462    0.0502 H   0  0  0  0  0  0  0  0  0  0  0  0
    0.2934   -7.2986    2.2170 H   0  0  0  0  0  0  0  0  0  0  0  0
    1.4023   -8.2524    1.3032 H   0  0  0  0  0  0  0  0  0  0  0  0
    3.0169   -8.3076    2.7422 H   0  0  0  0  0  0  0  0  0  0  0  0
    3.9016   -6.8867    4.2221 H   0  0  0  0  0  0  0  0  0  0  0  0
    2.9475   -5.5780    5.7678 H   0  0  0  0  0  0  0  0  0  0  0  0
    1.7783   -4.8235    4.7188 H   0  0  0  0  0  0  0  0  0  0  0  0
    0.8909   -6.2496    6.6737 H   0  0  0  0  0  0  0  0  0  0  0  0
   -0.3697   -8.2608    7.0570 H   0  0  0  0  0  0  0  0  0  0  0  0
   -0.8995   -9.2417    5.6829 H   0  0  0  0  0  0  0  0  0  0  0  0
    1.5330   -9.5878    7.5045 H   0  0  0  0  0  0  0  0  0  0  0  0
    0.1046  -10.6181    7.2862 H   0  0  0  0  0  0  0  0  0  0  0  0
    2.2521  -11.4336    6.0294 H   0  0  0  0  0  0  0  0  0  0  0  0
    0.8306  -11.2046    5.0115 H   0  0  0  0  0  0  0  0  0  0  0  0
    4.3860   -8.7879    5.1486 H   0  0  0  0  0  0  0  0  0  0  0  0
    3.9819  -10.0048    6.3400 H   0  0  0  0  0  0  0  0  0  0  0  0
    3.1798   -8.4488    6.3928 H   0  0  0  0  0  0  0  0  0  0  0  0
    3.9149  -10.1701    3.1876 H   0  0  0  0  0  0  0  0  0  0  0  0
    2.3780  -11.0182    2.9795 H   0  0  0  0  0  0  0  0  0  0  0  0
    3.5531  -11.5653    4.1606 H   0  0  0  0  0  0  0  0  0  0  0  0
    0.7706   -9.2313    3.5987 H   0  0  0  0  0  0  0  0  0  0  0  0
    2.7174   -4.5266    2.9001 H   0  0  0  0  0  0  0  0  0  0  0  0
  1  2  1  0
  1 38  1  0
  1 39  1  0
  1 40  1  0
  2  3  1  0
  3 37  1  0
  3  4  1  0
  3 41  1  6
  4  5  1  0
  5 14  1  0
  5  6  1  0
  5 42  1  6
  6  7  2  0
  6 20  1  0
  7  8  1  0
  8 13  1  0
  8  9  2  0
  9 10  1  0
  9 43  1  0
 10 11  1  0
 11 12  1  0
 11 13  2  0
 13 14  1  0
 14 15  1  0
 14 44  1  6
 15 19  1  0
 15 16  2  0
 16 17  1  0
 16 45  1  0
 17 18  2  0
 17 46  1  0
 18 19  1  0
 18 47  1  0
 20 37  1  0
 20 21  1  6
 20 22  1  0
 21 48  1  0
 21 49  1  0
 21 50  1  0
 22 23  1  0
 22 51  1  0
 22 52  1  0
 23 24  1  0
 23 53  1  0
 23 54  1  0
 24 36  1  0
 24 25  1  0
 24 55  1  6
 25 26  1  0
 25 37  1  0
 25 56  1  1
 26 27  1  0
 26 57  1  0
 26 58  1  0
 27 29  1  0
 27 28  1  0
 27 59  1  1
 29 28  1  6
 29 36  1  0
 29 30  1  0
 30 31  1  0
 30 60  1  0
 30 61  1  0
 31 32  1  0
 31 62  1  0
 31 63  1  0
 32 33  1  0
 32 64  1  0
 32 65  1  0
 33 34  1  0
 33 35  1  0
 33 36  1  0
 34 66  1  0
 34 67  1  0
 34 68  1  0
 35 69  1  0
 35 70  1  0
 35 71  1  0
 36 72  1  6
 37 73  1  1
M  CHG  1  12  -1
M  END
>  <i_m_ct_stereo_status>  (141) 
1

>  <s_m_source_file>  (141) 
/var/tmp/pbs.5076255.sched01/tmp1pob34vh/39rbzpz6sd.sdf

>  <i_m_source_file_index>  (141) 
30

>  <i_lp_mmshare_version>  (141) 
48012

>  <i_f3d_flags>  (141) 
0

>  <s_epik_input>  (141) 
W09IXWMxb1tjSF1jKE4yKWMxW0NAQEhdKGMzW2NIXVtjSF1bY0hdczMpW0NAQEhdKE9bQ0BIXShbQ0BASF00NSlPW0NIM10pQz0yW0NAXTQoW0NIM10pW0NIMl1bQ0gyXVtDQEBIXShbQ0BASF01W0NIMl1bQ0BASF0oTzYpW0NAXTY3OClbQ0BIXThDKFtDSDNdKShbQ0gzXSlbQ0gyXVtDSDJdW0NIMl03

>  <s_epik_cmdline>  (141) 
J2VwaWtfcHl0aG9uJywgJy1waHQnLCAnMi4wJywgJy1waCcsICc3LjAnLCAnLXRuJywgJzgnLCAnLW1hJywgJzIwMCcsICctaW1hZScsICc8aW5maWxlLm1hZT4nLCAnLW9tYWUnLCAnPG91dGZpbGUubWFlPic=

>  <r_lp_tautomer_probability>  (141) 
1

>  <r_epik_Ionization_Penalty>  (141) 
0.0648859

>  <r_epik_Ionization_Penalty_Charging>  (141) 
0.0648859

>  <r_epik_Ionization_Penalty_Neutral>  (141) 
5.82612e-11

>  <r_epik_State_Penalty>  (141) 
0.0565503

>  <r_epik_Charging_Adjusted_Penalty>  (141) 
0.121436

>  <i_epik_Tot_Q>  (141) 
-1

>  <i_epik_Tot_abs_Q>  (141) 
1

>  <s_epik_Chemistry_Notes>  (141) 
This compound has an imine and may undergo hydrolysis. This compound contains an acetal/aminal-like group ( X-CH(R)-Y where X, Y are N, S, or O) that may be acid/base labile, releasing an aldehyde.

>  <s_lp_Force_Field>  (141) 
OPLS3e

>  <r_lp_Energy>  (141) 
86.1709

>  <b_lp_Chiralities_Consistent>  (141) 
1

>  <s_lp_Variant>  (141) 
45:0-1

>  <s_i_glide_gridfile>  (141) 
pfpi4k_grid

>  <i_i_glide_lignum>  (141) 
30

>  <i_i_glide_rotatable_bonds>  (141) 
2

>  <r_i_docking_score>  (141) 
-1.37151

>  <r_i_glide_ligand_efficiency>  (141) 
-0.0370679

>  <r_i_glide_ligand_efficiency_sa>  (141) 
-0.123519

>  <r_i_glide_ligand_efficiency_ln>  (141) 
-0.297449

>  <r_i_glide_gscore>  (141) 
-1.37151

>  <r_i_glide_lipo>  (141) 
-0.326243

>  <r_i_glide_hbond>  (141) 
0

>  <r_i_glide_metal>  (141) 
-0

>  <r_i_glide_rewards>  (141) 
-0.0097368

>  <r_i_glide_evdw>  (141) 
-25.5625

>  <r_i_glide_ecoul>  (141) 
1.14307

>  <r_i_glide_erotb>  (141) 
0.0752784

>  <r_i_glide_esite>  (141) 
-0.00414541

>  <r_i_glide_emodel>  (141) 
-23.5603

>  <r_i_glide_energy>  (141) 
-24.4194

>  <r_i_glide_einternal>  (141) 
4.12232

>  <r_i_glide_intrahb_reward>  (141) 
-0

>  <i_i_glide_confnum>  (141) 
4

>  <i_i_glide_posenum>  (141) 
1

>  <r_i_glide_eff_state_penalty>  (141) 
0

>  <ligand_id>  (141) 
45

>  <original_smiles>  (141) 
COC1OC2C(=Nc3coc(O)c3C2c2cccs2)C2(C)CCC3C(CC4OC45CCCC(C)(C)C35)C12

>  <smiles>  (141) 
[H]c1oc([O-])c2c1N=C1C([H])(OC([H])(OC([H])([H])[H])C3([H])C4([H])C([H])([H])C5([H])OC56C([H])([H])C([H])([H])C([H])([H])C(C([H])([H])[H])(C([H])([H])[H])C6([H])C4([H])C([H])([H])C([H])([H])C13C([H])([H])[H])C2([H])c1sc([H])c([H])c1[H]

$$$$
45:0:1
     RDKit          3D

 73 80  0  0  1  0  0  0  0  0999 V2000
    4.3952   -2.7801    4.8959 C   0  0  0  0  0  0  0  0  0  0  0  0
    5.1209   -3.9048    4.4054 O   0  0  0  0  0  0  0  0  0  0  0  0
    4.8645   -4.2678    3.0770 C   0  0  2  0  0  0  0  0  0  0  0  0
    4.8396   -3.1303    2.2729 O   0  0  0  0  0  0  0  0  0  0  0  0
    4.5828   -3.2855    0.8821 C   0  0  1  0  0  0  0  0  0  0  0  0
    3.4483   -4.3003    0.5261 C   0  0  0  0  0  0  0  0  0  0  0  0
    2.7198   -4.1965   -0.5300 N   0  0  0  0  0  0  0  0  0  0  0  0
    2.9912   -3.1527   -1.4182 C   0  0  0  0  0  0  0  0  0  0  0  0
    2.6161   -3.0514   -2.7376 C   0  0  0  0  0  0  0  0  0  0  0  0
    3.2143   -1.9678   -3.3087 O   0  0  0  0  0  0  0  0  0  0  0  0
    3.9128   -1.3605   -2.2935 C   0  0  0  0  0  0  0  0  0  0  0  0
    4.6138   -0.2686   -2.6404 O   0  0  0  0  0  0  0  0  0  0  0  0
    3.7865   -2.0311   -1.0947 C   0  0  0  0  0  0  0  0  0  0  0  0
    4.3692   -1.8625    0.2805 C   0  0  1  0  0  0  0  0  0  0  0  0
    3.5031   -0.9649    1.1378 C   0  0  0  0  0  0  0  0  0  0  0  0
    3.6010    0.3898    1.2841 C   0  0  0  0  0  0  0  0  0  0  0  0
    2.6146    0.9588    2.1441 C   0  0  0  0  0  0  0  0  0  0  0  0
    1.7654    0.0248    2.6716 C   0  0  0  0  0  0  0  0  0  0  0  0
    2.1487   -1.5630    2.0819 S   0  0  0  0  0  0  0  0  0  0  0  0
    3.3242   -5.5058    1.4901 C   0  0  2  0  0  0  0  0  0  0  0  0
    4.3753   -6.5517    1.0272 C   0  0  0  0  0  0  0  0  0  0  0  0
    1.8987   -6.1224    1.4588 C   0  0  0  0  0  0  0  0  0  0  0  0
    1.6358   -7.2805    2.4493 C   0  0  0  0  0  0  0  0  0  0  0  0
    2.6003   -7.3886    3.6598 C   0  0  1  0  0  0  0  0  0  0  0  0
    3.2319   -6.0362    4.1190 C   0  0  2  0  0  0  0  0  0  0  0  0
    2.4459   -5.3407    5.2783 C   0  0  0  0  0  0  0  0  0  0  0  0
    1.4880   -6.1575    6.0913 C   0  0  1  0  0  0  0  0  0  0  0  0
    0.3343   -6.5937    5.3485 O   0  0  0  0  0  0  0  0  0  0  0  0
    1.2275   -7.5951    5.8415 C   0  0  2  0  0  0  0  0  0  0  0  0
    0.6049   -8.4781    6.9178 C   0  0  0  0  0  0  0  0  0  0  0  0
    1.6016   -9.4539    7.5403 C   0  0  0  0  0  0  0  0  0  0  0  0
    2.3657  -10.2095    6.4460 C   0  0  0  0  0  0  0  0  0  0  0  0
    3.1131   -9.2725    5.4712 C   0  0  0  0  0  0  0  0  0  0  0  0
    4.1898   -8.4884    6.2654 C   0  0  0  0  0  0  0  0  0  0  0  0
    3.8166  -10.1843    4.4429 C   0  0  0  0  0  0  0  0  0  0  0  0
    2.0473   -8.3391    4.7914 C   0  0  2  0  0  0  0  0  0  0  0  0
    3.4957   -5.0058    2.9538 C   0  0  1  0  0  0  0  0  0  0  0  0
    4.6213   -2.6538    5.9536 H   0  0  0  0  0  0  0  0  0  0  0  0
    3.3207   -2.9007    4.8052 H   0  0  0  0  0  0  0  0  0  0  0  0
    4.6406   -1.8568    4.3711 H   0  0  0  0  0  0  0  0  0  0  0  0
    5.6836   -4.9294    2.7697 H   0  0  0  0  0  0  0  0  0  0  0  0
    5.4838   -3.6890    0.4279 H   0  0  0  0  0  0  0  0  0  0  0  0
    2.0366   -3.6820   -3.3876 H   0  0  0  0  0  0  0  0  0  0  0  0
    5.3452   -1.3843    0.1560 H   0  0  0  0  0  0  0  0  0  0  0  0
    4.3406    0.9907    0.7725 H   0  0  0  0  0  0  0  0  0  0  0  0
    2.5636    2.0235    2.3347 H   0  0  0  0  0  0  0  0  0  0  0  0
    0.9255    0.1787    3.3312 H   0  0  0  0  0  0  0  0  0  0  0  0
    3.9828   -7.1708    0.2203 H   0  0  0  0  0  0  0  0  0  0  0  0
    4.7168   -7.2127    1.8152 H   0  0  0  0  0  0  0  0  0  0  0  0
    5.2781   -6.0798    0.6339 H   0  0  0  0  0  0  0  0  0  0  0  0
    1.1913   -5.3369    1.7137 H   0  0  0  0  0  0  0  0  0  0  0  0
    1.6341   -6.4424    0.4485 H   0  0  0  0  0  0  0  0  0  0  0  0
    0.5890   -7.2745    2.7652 H   0  0  0  0  0  0  0  0  0  0  0  0
    1.7459   -8.2070    1.8838 H   0  0  0  0  0  0  0  0  0  0  0  0
    3.4260   -7.9456    3.2409 H   0  0  0  0  0  0  0  0  0  0  0  0
    4.2073   -6.3067    4.5228 H   0  0  0  0  0  0  0  0  0  0  0  0
    3.1721   -4.9723    6.0000 H   0  0  0  0  0  0  0  0  0  0  0  0
    1.8548   -4.4918    4.9327 H   0  0  0  0  0  0  0  0  0  0  0  0
    1.2469   -5.7379    7.0663 H   0  0  0  0  0  0  0  0  0  0  0  0
    0.2025   -7.8441    7.7090 H   0  0  0  0  0  0  0  0  0  0  0  0
   -0.2398   -9.0172    6.4848 H   0  0  0  0  0  0  0  0  0  0  0  0
    2.2962   -8.9344    8.1989 H   0  0  0  0  0  0  0  0  0  0  0  0
    1.0656  -10.1641    8.1763 H   0  0  0  0  0  0  0  0  0  0  0  0
    3.0498  -10.9266    6.9028 H   0  0  0  0  0  0  0  0  0  0  0  0
    1.6453  -10.7999    5.8794 H   0  0  0  0  0  0  0  0  0  0  0  0
    4.9337   -8.0341    5.6106 H   0  0  0  0  0  0  0  0  0  0  0  0
    4.7307   -9.1533    6.9441 H   0  0  0  0  0  0  0  0  0  0  0  0
    3.7570   -7.6935    6.8783 H   0  0  0  0  0  0  0  0  0  0  0  0
    4.5336   -9.6451    3.8268 H   0  0  0  0  0  0  0  0  0  0  0  0
    3.0922  -10.6628    3.7828 H   0  0  0  0  0  0  0  0  0  0  0  0
    4.3760  -10.9758    4.9424 H   0  0  0  0  0  0  0  0  0  0  0  0
    1.3359   -9.0139    4.3085 H   0  0  0  0  0  0  0  0  0  0  0  0
    2.7251   -4.2435    3.0438 H   0  0  0  0  0  0  0  0  0  0  0  0
  1  2  1  0
  1 38  1  0
  1 39  1  0
  1 40  1  0
  2  3  1  0
  3 37  1  0
  3  4  1  0
  3 41  1  6
  4  5  1  0
  5 14  1  0
  5  6  1  0
  5 42  1  6
  6  7  2  0
  6 20  1  0
  7  8  1  0
  8 13  1  0
  8  9  2  0
  9 10  1  0
  9 43  1  0
 10 11  1  0
 11 12  1  0
 11 13  2  0
 13 14  1  0
 14 15  1  0
 14 44  1  6
 15 19  1  0
 15 16  2  0
 16 17  1  0
 16 45  1  0
 17 18  2  0
 17 46  1  0
 18 19  1  0
 18 47  1  0
 20 37  1  0
 20 21  1  6
 20 22  1  0
 21 48  1  0
 21 49  1  0
 21 50  1  0
 22 23  1  0
 22 51  1  0
 22 52  1  0
 23 24  1  0
 23 53  1  0
 23 54  1  0
 24 36  1  0
 24 25  1  0
 24 55  1  6
 25 26  1  0
 25 37  1  0
 25 56  1  1
 26 27  1  0
 26 57  1  0
 26 58  1  0
 27 29  1  0
 27 28  1  0
 27 59  1  1
 29 28  1  6
 29 36  1  0
 29 30  1  0
 30 31  1  0
 30 60  1  0
 30 61  1  0
 31 32  1  0
 31 62  1  0
 31 63  1  0
 32 33  1  0
 32 64  1  0
 32 65  1  0
 33 34  1  0
 33 35  1  0
 33 36  1  0
 34 66  1  0
 34 67  1  0
 34 68  1  0
 35 69  1  0
 35 70  1  0
 35 71  1  0
 36 72  1  6
 37 73  1  1
M  CHG  1  12  -1
M  END
>  <i_m_ct_stereo_status>  (142) 
1

>  <s_m_source_file>  (142) 
/var/tmp/pbs.5076255.sched01/tmp1pob34vh/39rbzpz6sd.sdf

>  <i_m_source_file_index>  (142) 
30

>  <i_lp_mmshare_version>  (142) 
48012

>  <i_f3d_flags>  (142) 
0

>  <s_epik_input>  (142) 
W09IXWMxb1tjSF1jKE4yKWMxW0NAQEhdKGMzW2NIXVtjSF1bY0hdczMpW0NAQEhdKE9bQ0BIXShbQ0BASF00NSlPW0NIM10pQz0yW0NAXTQoW0NIM10pW0NIMl1bQ0gyXVtDQEBIXShbQ0BASF01W0NIMl1bQ0BASF0oTzYpW0NAXTY3OClbQ0BIXThDKFtDSDNdKShbQ0gzXSlbQ0gyXVtDSDJdW0NIMl03

>  <s_epik_cmdline>  (142) 
J2VwaWtfcHl0aG9uJywgJy1waHQnLCAnMi4wJywgJy1waCcsICc3LjAnLCAnLXRuJywgJzgnLCAnLW1hJywgJzIwMCcsICctaW1hZScsICc8aW5maWxlLm1hZT4nLCAnLW9tYWUnLCAnPG91dGZpbGUubWFlPic=

>  <r_lp_tautomer_probability>  (142) 
1

>  <r_epik_Ionization_Penalty>  (142) 
0.0648859

>  <r_epik_Ionization_Penalty_Charging>  (142) 
0.0648859

>  <r_epik_Ionization_Penalty_Neutral>  (142) 
5.82612e-11

>  <r_epik_State_Penalty>  (142) 
0.0565503

>  <r_epik_Charging_Adjusted_Penalty>  (142) 
0.121436

>  <i_epik_Tot_Q>  (142) 
-1

>  <i_epik_Tot_abs_Q>  (142) 
1

>  <s_epik_Chemistry_Notes>  (142) 
This compound has an imine and may undergo hydrolysis. This compound contains an acetal/aminal-like group ( X-CH(R)-Y where X, Y are N, S, or O) that may be acid/base labile, releasing an aldehyde.

>  <s_lp_Force_Field>  (142) 
OPLS3e

>  <r_lp_Energy>  (142) 
86.1709

>  <b_lp_Chiralities_Consistent>  (142) 
1

>  <s_lp_Variant>  (142) 
45:0-1

>  <s_i_glide_gridfile>  (142) 
pfpi4k_grid

>  <i_i_glide_lignum>  (142) 
30

>  <i_i_glide_rotatable_bonds>  (142) 
2

>  <r_i_docking_score>  (142) 
-1.35187

>  <r_i_glide_ligand_efficiency>  (142) 
-0.036537

>  <r_i_glide_ligand_efficiency_sa>  (142) 
-0.121749

>  <r_i_glide_ligand_efficiency_ln>  (142) 
-0.293189

>  <r_i_glide_gscore>  (142) 
-1.35187

>  <r_i_glide_lipo>  (142) 
-0.288054

>  <r_i_glide_hbond>  (142) 
0

>  <r_i_glide_metal>  (142) 
-0

>  <r_i_glide_rewards>  (142) 
-0.0201671

>  <r_i_glide_evdw>  (142) 
-28.0887

>  <r_i_glide_ecoul>  (142) 
1.93361

>  <r_i_glide_erotb>  (142) 
0.0752784

>  <r_i_glide_esite>  (142) 
-0.0045311

>  <r_i_glide_emodel>  (142) 
-24.9682

>  <r_i_glide_energy>  (142) 
-26.1551

>  <r_i_glide_einternal>  (142) 
4.4934

>  <r_i_glide_intrahb_reward>  (142) 
-0

>  <i_i_glide_confnum>  (142) 
3

>  <i_i_glide_posenum>  (142) 
26

>  <r_i_glide_eff_state_penalty>  (142) 
0

>  <ligand_id>  (142) 
45

>  <original_smiles>  (142) 
COC1OC2C(=Nc3coc(O)c3C2c2cccs2)C2(C)CCC3C(CC4OC45CCCC(C)(C)C35)C12

>  <smiles>  (142) 
[H]c1oc([O-])c2c1N=C1C([H])(OC([H])(OC([H])([H])[H])C3([H])C4([H])C([H])([H])C5([H])OC56C([H])([H])C([H])([H])C([H])([H])C(C([H])([H])[H])(C([H])([H])[H])C6([H])C4([H])C([H])([H])C([H])([H])C13C([H])([H])[H])C2([H])c1sc([H])c([H])c1[H]

$$$$
45:0:2
     RDKit          3D

 73 80  0  0  1  0  0  0  0  0999 V2000
    2.8353   -2.8578    5.7842 C   0  0  0  0  0  0  0  0  0  0  0  0
    3.6939   -3.9807    5.9818 O   0  0  0  0  0  0  0  0  0  0  0  0
    4.3691   -4.4197    4.8436 C   0  0  2  0  0  0  0  0  0  0  0  0
    4.8702   -3.3243    4.1429 O   0  0  0  0  0  0  0  0  0  0  0  0
    5.5480   -3.5833    2.9273 C   0  0  1  0  0  0  0  0  0  0  0  0
    4.9323   -4.6370    1.9585 C   0  0  0  0  0  0  0  0  0  0  0  0
    5.1397   -4.6451    0.7118 N   0  0  0  0  0  0  0  0  0  0  0  0
    5.9296   -3.6292    0.1437 C   0  0  0  0  0  0  0  0  0  0  0  0
    6.4905   -3.5288   -1.0380 C   0  0  0  0  0  0  0  0  0  0  0  0
    7.3855   -2.4722   -1.1096 O   0  0  0  0  0  0  0  0  0  0  0  0
    7.2957   -1.9625    0.1571 C   0  0  0  0  0  0  0  0  0  0  0  0
    8.2972   -1.0936    0.4941 O   0  0  0  0  0  0  0  0  0  0  0  0
    6.3145   -2.4564    0.8876 C   0  0  0  0  0  0  0  0  0  0  0  0
    5.8339   -2.2034    2.2761 C   0  0  1  0  0  0  0  0  0  0  0  0
    4.6827   -1.2354    2.2820 C   0  0  0  0  0  0  0  0  0  0  0  0
    4.4804   -0.1703    3.1182 C   0  0  0  0  0  0  0  0  0  0  0  0
    3.2621    0.5273    2.8254 C   0  0  0  0  0  0  0  0  0  0  0  0
    2.5893   -0.0082    1.7814 C   0  0  0  0  0  0  0  0  0  0  0  0
    3.4017   -1.3874    1.1124 S   0  0  0  0  0  0  0  0  0  0  0  0
    4.2192   -5.7806    2.7054 C   0  0  2  0  0  0  0  0  0  0  0  0
    5.3187   -6.8072    3.1166 C   0  0  0  0  0  0  0  0  0  0  0  0
    3.1808   -6.4276    1.7606 C   0  0  0  0  0  0  0  0  0  0  0  0
    2.3405   -7.5489    2.3958 C   0  0  0  0  0  0  0  0  0  0  0  0
    2.2447   -7.5378    3.9443 C   0  0  1  0  0  0  0  0  0  0  0  0
    2.4279   -6.1441    4.6281 C   0  0  2  0  0  0  0  0  0  0  0  0
    1.0963   -5.4042    4.9684 C   0  0  0  0  0  0  0  0  0  0  0  0
   -0.1820   -6.1896    4.9517 C   0  0  1  0  0  0  0  0  0  0  0  0
   -0.5289   -6.6673    3.6523 O   0  0  0  0  0  0  0  0  0  0  0  0
   -0.2096   -7.6422    4.6532 C   0  0  2  0  0  0  0  0  0  0  0  0
   -1.3923   -8.4645    5.1051 C   0  0  0  0  0  0  0  0  0  0  0  0
   -1.0280   -9.3208    6.3645 C   0  0  0  0  0  0  0  0  0  0  0  0
    0.1528  -10.1758    6.0275 C   0  0  0  0  0  0  0  0  0  0  0  0
    1.4011   -9.3026    5.7583 C   0  0  0  0  0  0  0  0  0  0  0  0
    1.6828   -8.4477    7.0248 C   0  0  0  0  0  0  0  0  0  0  0  0
    2.5850  -10.2670    5.5130 C   0  0  0  0  0  0  0  0  0  0  0  0
    1.0752   -8.4316    4.4824 C   0  0  2  0  0  0  0  0  0  0  0  0
    3.4117   -5.1803    3.8908 C   0  0  1  0  0  0  0  0  0  0  0  0
    2.3056   -2.6452    6.7143 H   0  0  0  0  0  0  0  0  0  0  0  0
    2.0872   -3.0303    5.0209 H   0  0  0  0  0  0  0  0  0  0  0  0
    3.3806   -1.9715    5.4824 H   0  0  0  0  0  0  0  0  0  0  0  0
    5.2047   -5.0355    5.1777 H   0  0  0  0  0  0  0  0  0  0  0  0
    6.4493   -4.1394    3.1479 H   0  0  0  0  0  0  0  0  0  0  0  0
    6.4853   -4.1912   -1.9305 H   0  0  0  0  0  0  0  0  0  0  0  0
    6.6039   -1.6464    2.8301 H   0  0  0  0  0  0  0  0  0  0  0  0
    5.1341    0.1465    3.9170 H   0  0  0  0  0  0  0  0  0  0  0  0
    2.9440    1.3956    3.3936 H   0  0  0  0  0  0  0  0  0  0  0  0
    1.6476    0.3071    1.3261 H   0  0  0  0  0  0  0  0  0  0  0  0
    5.5462   -7.4904    2.2995 H   0  0  0  0  0  0  0  0  0  0  0  0
    5.0446   -7.4079    3.9774 H   0  0  0  0  0  0  0  0  0  0  0  0
    6.2641   -6.3461    3.3957 H   0  0  0  0  0  0  0  0  0  0  0  0
    2.4951   -5.6500    1.4316 H   0  0  0  0  0  0  0  0  0  0  0  0
    3.6533   -6.8022    0.8553 H   0  0  0  0  0  0  0  0  0  0  0  0
    1.3434   -7.5298    1.9435 H   0  0  0  0  0  0  0  0  0  0  0  0
    2.7645   -8.5060    2.1025 H   0  0  0  0  0  0  0  0  0  0  0  0
    3.1400   -8.0866    4.2352 H   0  0  0  0  0  0  0  0  0  0  0  0
    2.8861   -6.3830    5.5893 H   0  0  0  0  0  0  0  0  0  0  0  0
    1.1756   -4.9663    5.9605 H   0  0  0  0  0  0  0  0  0  0  0  0
    0.8833   -4.5967    4.2625 H   0  0  0  0  0  0  0  0  0  0  0  0
   -1.0006   -5.7520    5.5013 H   0  0  0  0  0  0  0  0  0  0  0  0
   -2.1954   -7.7732    5.2698 H   0  0  0  0  0  0  0  0  0  0  0  0
   -1.7165   -9.0502    4.2636 H   0  0  0  0  0  0  0  0  0  0  0  0
   -0.7985   -8.7570    7.2718 H   0  0  0  0  0  0  0  0  0  0  0  0
   -1.8945   -9.8751    6.6468 H   0  0  0  0  0  0  0  0  0  0  0  0
    0.2182  -10.8159    6.8940 H   0  0  0  0  0  0  0  0  0  0  0  0
   -0.0122  -10.8398    5.1781 H   0  0  0  0  0  0  0  0  0  0  0  0
    2.6754   -8.0017    7.0198 H   0  0  0  0  0  0  0  0  0  0  0  0
    1.6061   -9.0500    7.9324 H   0  0  0  0  0  0  0  0  0  0  0  0
    0.9697   -7.6270    7.1402 H   0  0  0  0  0  0  0  0  0  0  0  0
    3.5479   -9.7452    5.4938 H   0  0  0  0  0  0  0  0  0  0  0  0
    2.4623  -10.7931    4.5666 H   0  0  0  0  0  0  0  0  0  0  0  0
    2.6488  -11.0158    6.3010 H   0  0  0  0  0  0  0  0  0  0  0  0
    0.8575   -9.1611    3.6907 H   0  0  0  0  0  0  0  0  0  0  0  0
    2.8020   -4.4041    3.4205 H   0  0  0  0  0  0  0  0  0  0  0  0
  1  2  1  0
  1 38  1  0
  1 39  1  0
  1 40  1  0
  2  3  1  0
  3 37  1  0
  3  4  1  0
  3 41  1  1
  4  5  1  0
  5 14  1  0
  5  6  1  0
  5 42  1  1
  6  7  2  0
  6 20  1  0
  7  8  1  0
  8 13  1  0
  8  9  2  0
  9 10  1  0
  9 43  1  0
 10 11  1  0
 11 12  1  0
 11 13  2  0
 13 14  1  0
 14 15  1  0
 14 44  1  1
 15 19  1  0
 15 16  2  0
 16 17  1  0
 16 45  1  0
 17 18  2  0
 17 46  1  0
 18 19  1  0
 18 47  1  0
 20 37  1  0
 20 21  1  1
 20 22  1  0
 21 48  1  0
 21 49  1  0
 21 50  1  0
 22 23  1  0
 22 51  1  0
 22 52  1  0
 23 24  1  0
 23 53  1  0
 23 54  1  0
 24 36  1  0
 24 25  1  0
 24 55  1  1
 25 26  1  0
 25 37  1  0
 25 56  1  1
 26 27  1  0
 26 57  1  0
 26 58  1  0
 27 29  1  0
 27 28  1  0
 27 59  1  1
 29 28  1  6
 29 36  1  0
 29 30  1  0
 30 31  1  0
 30 60  1  0
 30 61  1  0
 31 32  1  0
 31 62  1  0
 31 63  1  0
 32 33  1  0
 32 64  1  0
 32 65  1  0
 33 34  1  0
 33 35  1  0
 33 36  1  0
 34 66  1  0
 34 67  1  0
 34 68  1  0
 35 69  1  0
 35 70  1  0
 35 71  1  0
 36 72  1  6
 37 73  1  6
M  CHG  1  12  -1
M  END
>  <i_m_ct_stereo_status>  (143) 
1

>  <s_m_source_file>  (143) 
/var/tmp/pbs.5076255.sched01/tmp1pob34vh/39rbzpz6sd.sdf

>  <i_m_source_file_index>  (143) 
30

>  <i_lp_mmshare_version>  (143) 
48012

>  <i_f3d_flags>  (143) 
0

>  <s_epik_input>  (143) 
W09IXWMxb1tjSF1jKE4yKWMxW0NAQEhdKGMzW2NIXVtjSF1bY0hdczMpW0NAQEhdKE9bQ0BIXShbQ0BASF00NSlPW0NIM10pQz0yW0NAXTQoW0NIM10pW0NIMl1bQ0gyXVtDQEBIXShbQ0BASF01W0NIMl1bQ0BASF0oTzYpW0NAXTY3OClbQ0BIXThDKFtDSDNdKShbQ0gzXSlbQ0gyXVtDSDJdW0NIMl03

>  <s_epik_cmdline>  (143) 
J2VwaWtfcHl0aG9uJywgJy1waHQnLCAnMi4wJywgJy1waCcsICc3LjAnLCAnLXRuJywgJzgnLCAnLW1hJywgJzIwMCcsICctaW1hZScsICc8aW5maWxlLm1hZT4nLCAnLW9tYWUnLCAnPG91dGZpbGUubWFlPic=

>  <r_lp_tautomer_probability>  (143) 
1

>  <r_epik_Ionization_Penalty>  (143) 
0.0648859

>  <r_epik_Ionization_Penalty_Charging>  (143) 
0.0648859

>  <r_epik_Ionization_Penalty_Neutral>  (143) 
5.82612e-11

>  <r_epik_State_Penalty>  (143) 
0.0565503

>  <r_epik_Charging_Adjusted_Penalty>  (143) 
0.121436

>  <i_epik_Tot_Q>  (143) 
-1

>  <i_epik_Tot_abs_Q>  (143) 
1

>  <s_epik_Chemistry_Notes>  (143) 
This compound has an imine and may undergo hydrolysis. This compound contains an acetal/aminal-like group ( X-CH(R)-Y where X, Y are N, S, or O) that may be acid/base labile, releasing an aldehyde.

>  <s_lp_Force_Field>  (143) 
OPLS3e

>  <r_lp_Energy>  (143) 
86.1709

>  <b_lp_Chiralities_Consistent>  (143) 
1

>  <s_lp_Variant>  (143) 
45:0-1

>  <s_i_glide_gridfile>  (143) 
pfpi4k_grid

>  <i_i_glide_lignum>  (143) 
30

>  <i_i_glide_rotatable_bonds>  (143) 
2

>  <r_i_docking_score>  (143) 
-1.24357

>  <r_i_glide_ligand_efficiency>  (143) 
-0.03361

>  <r_i_glide_ligand_efficiency_sa>  (143) 
-0.111996

>  <r_i_glide_ligand_efficiency_ln>  (143) 
-0.269701

>  <r_i_glide_gscore>  (143) 
-1.24357

>  <r_i_glide_lipo>  (143) 
-0.531763

>  <r_i_glide_hbond>  (143) 
-0.270267

>  <r_i_glide_metal>  (143) 
-0

>  <r_i_glide_rewards>  (143) 
-0.0324898

>  <r_i_glide_evdw>  (143) 
-0.692058

>  <r_i_glide_ecoul>  (143) 
-2.99818

>  <r_i_glide_erotb>  (143) 
0.0752784

>  <r_i_glide_esite>  (143) 
0

>  <r_i_glide_emodel>  (143) 
-1.20676

>  <r_i_glide_energy>  (143) 
-3.69023

>  <r_i_glide_einternal>  (143) 
3.45377

>  <r_i_glide_intrahb_reward>  (143) 
-0

>  <i_i_glide_confnum>  (143) 
4

>  <i_i_glide_posenum>  (143) 
32

>  <r_i_glide_eff_state_penalty>  (143) 
0

>  <ligand_id>  (143) 
45

>  <original_smiles>  (143) 
COC1OC2C(=Nc3coc(O)c3C2c2cccs2)C2(C)CCC3C(CC4OC45CCCC(C)(C)C35)C12

>  <smiles>  (143) 
[H]c1oc([O-])c2c1N=C1C([H])(OC([H])(OC([H])([H])[H])C3([H])C4([H])C([H])([H])C5([H])OC56C([H])([H])C([H])([H])C([H])([H])C(C([H])([H])[H])(C([H])([H])[H])C6([H])C4([H])C([H])([H])C([H])([H])C13C([H])([H])[H])C2([H])c1sc([H])c([H])c1[H]

$$$$
45:1:0
     RDKit          3D

 74 81  0  0  1  0  0  0  0  0999 V2000
    5.2143   -2.9472    5.2847 C   0  0  0  0  0  0  0  0  0  0  0  0
    5.7553   -4.1285    4.6941 O   0  0  0  0  0  0  0  0  0  0  0  0
    5.3334   -4.4255    3.3893 C   0  0  2  0  0  0  0  0  0  0  0  0
    5.3105   -3.2679    2.6047 O   0  0  0  0  0  0  0  0  0  0  0  0
    4.8961   -3.3741    1.2409 C   0  0  1  0  0  0  0  0  0  0  0  0
    3.6415   -4.2853    1.0002 C   0  0  0  0  0  0  0  0  0  0  0  0
    2.8493   -4.1331    0.0032 N   0  0  0  0  0  0  0  0  0  0  0  0
    3.1247   -3.1016   -0.9074 C   0  0  0  0  0  0  0  0  0  0  0  0
    2.6161   -2.9514   -2.1628 C   0  0  0  0  0  0  0  0  0  0  0  0
    3.1969   -1.8875   -2.7881 O   0  0  0  0  0  0  0  0  0  0  0  0
    4.0581   -1.3580   -1.8636 C   0  0  0  0  0  0  0  0  0  0  0  0
    4.7846   -0.2898   -2.2877 O   0  0  0  0  0  0  0  0  0  0  0  0
    4.0395   -2.0534   -0.6655 C   0  0  0  0  0  0  0  0  0  0  0  0
    4.7820   -1.9354    0.6305 C   0  0  1  0  0  0  0  0  0  0  0  0
    4.1375   -0.9507    1.5657 C   0  0  0  0  0  0  0  0  0  0  0  0
    2.8365   -0.5044    1.5891 C   0  0  0  0  0  0  0  0  0  0  0  0
    2.5573    0.3982    2.6434 C   0  0  0  0  0  0  0  0  0  0  0  0
    3.6478    0.6128    3.4482 C   0  0  0  0  0  0  0  0  0  0  0  0
    5.0380   -0.2618    2.8931 S   0  0  0  0  0  0  0  0  0  0  0  0
    3.5087   -5.4823    1.9791 C   0  0  2  0  0  0  0  0  0  0  0  0
    4.3968   -6.6188    1.4009 C   0  0  0  0  0  0  0  0  0  0  0  0
    2.0350   -5.9455    2.1035 C   0  0  0  0  0  0  0  0  0  0  0  0
    1.7799   -7.0825    3.1184 C   0  0  0  0  0  0  0  0  0  0  0  0
    2.8672   -7.3100    4.1955 C   0  0  1  0  0  0  0  0  0  0  0  0
    3.6699   -6.0316    4.5903 C   0  0  2  0  0  0  0  0  0  0  0  0
    3.0811   -5.2877    5.8329 C   0  0  0  0  0  0  0  0  0  0  0  0
    2.1533   -6.0291    6.7463 C   0  0  1  0  0  0  0  0  0  0  0  0
    0.8854   -6.3540    6.1463 O   0  0  0  0  0  0  0  0  0  0  0  0
    1.7413   -7.4368    6.5160 C   0  0  2  0  0  0  0  0  0  0  0  0
    1.1662   -8.2683    7.6568 C   0  0  0  0  0  0  0  0  0  0  0  0
    2.1332   -9.3440    8.1615 C   0  0  0  0  0  0  0  0  0  0  0  0
    2.6937  -10.1409    6.9735 C   0  0  0  0  0  0  0  0  0  0  0  0
    3.4221   -9.2626    5.9301 C   0  0  0  0  0  0  0  0  0  0  0  0
    4.6440   -8.5909    6.6050 C   0  0  0  0  0  0  0  0  0  0  0  0
    3.9099  -10.2156    4.8256 C   0  0  0  0  0  0  0  0  0  0  0  0
    2.3758   -8.2324    5.3740 C   0  0  2  0  0  0  0  0  0  0  0  0
    3.8959   -5.0140    3.4107 C   0  0  1  0  0  0  0  0  0  0  0  0
    5.5867   -2.8679    6.3090 H   0  0  0  0  0  0  0  0  0  0  0  0
    4.1235   -2.9487    5.3014 H   0  0  0  0  0  0  0  0  0  0  0  0
    5.5344   -2.0539    4.7566 H   0  0  0  0  0  0  0  0  0  0  0  0
    6.0393   -5.1620    2.9768 H   0  0  0  0  0  0  0  0  0  0  0  0
    5.6953   -3.8692    0.6845 H   0  0  0  0  0  0  0  0  0  0  0  0
    1.9045   -3.4874   -2.7599 H   0  0  0  0  0  0  0  0  0  0  0  0
    4.9477    0.2944   -1.5524 H   0  0  0  0  0  0  0  0  0  0  0  0
    5.7884   -1.5721    0.4186 H   0  0  0  0  0  0  0  0  0  0  0  0
    2.0728   -0.7850    0.8933 H   0  0  0  0  0  0  0  0  0  0  0  0
    1.5876    0.8626    2.7634 H   0  0  0  0  0  0  0  0  0  0  0  0
    3.7066    1.2574    4.3105 H   0  0  0  0  0  0  0  0  0  0  0  0
    3.8342   -7.2480    0.7115 H   0  0  0  0  0  0  0  0  0  0  0  0
    4.8243   -7.2600    2.1629 H   0  0  0  0  0  0  0  0  0  0  0  0
    5.2508   -6.2385    0.8358 H   0  0  0  0  0  0  0  0  0  0  0  0
    1.4424   -5.0879    2.4212 H   0  0  0  0  0  0  0  0  0  0  0  0
    1.6408   -6.2384    1.1286 H   0  0  0  0  0  0  0  0  0  0  0  0
    0.7888   -6.9801    3.5658 H   0  0  0  0  0  0  0  0  0  0  0  0
    1.7381   -8.0041    2.5433 H   0  0  0  0  0  0  0  0  0  0  0  0
    3.5779   -7.9390    3.6797 H   0  0  0  0  0  0  0  0  0  0  0  0
    4.6557   -6.3940    4.8864 H   0  0  0  0  0  0  0  0  0  0  0  0
    3.9125   -4.9983    6.4729 H   0  0  0  0  0  0  0  0  0  0  0  0
    2.5328   -4.3855    5.5539 H   0  0  0  0  0  0  0  0  0  0  0  0
    2.0773   -5.6024    7.7487 H   0  0  0  0  0  0  0  0  0  0  0  0
    0.9137   -7.6109    8.4954 H   0  0  0  0  0  0  0  0  0  0  0  0
    0.2308   -8.7193    7.3145 H   0  0  0  0  0  0  0  0  0  0  0  0
    2.9391   -8.8943    8.7483 H   0  0  0  0  0  0  0  0  0  0  0  0
    1.6072  -10.0246    8.8376 H   0  0  0  0  0  0  0  0  0  0  0  0
    3.3521  -10.9275    7.3447 H   0  0  0  0  0  0  0  0  0  0  0  0
    1.8641  -10.6530    6.4745 H   0  0  0  0  0  0  0  0  0  0  0  0
    5.3431   -8.1957    5.8668 H   0  0  0  0  0  0  0  0  0  0  0  0
    5.1917   -9.3196    7.2063 H   0  0  0  0  0  0  0  0  0  0  0  0
    4.3550   -7.7737    7.2746 H   0  0  0  0  0  0  0  0  0  0  0  0
    4.5988   -9.7307    4.1385 H   0  0  0  0  0  0  0  0  0  0  0  0
    3.0719  -10.6124    4.2514 H   0  0  0  0  0  0  0  0  0  0  0  0
    4.4440  -11.0563    5.2600 H   0  0  0  0  0  0  0  0  0  0  0  0
    1.5434   -8.8239    4.9858 H   0  0  0  0  0  0  0  0  0  0  0  0
    3.2169   -4.1796    3.5897 H   0  0  0  0  0  0  0  0  0  0  0  0
  1  2  1  0
  1 38  1  0
  1 39  1  0
  1 40  1  0
  2  3  1  0
  3 37  1  0
  3  4  1  0
  3 41  1  6
  4  5  1  0
  5 14  1  0
  5  6  1  0
  5 42  1  6
  6  7  2  0
  6 20  1  0
  7  8  1  0
  8 13  1  0
  8  9  2  0
  9 10  1  0
  9 43  1  0
 10 11  1  0
 11 12  1  0
 11 13  2  0
 12 44  1  0
 13 14  1  0
 14 15  1  0
 14 45  1  6
 15 19  1  0
 15 16  2  0
 16 17  1  0
 16 46  1  0
 17 18  2  0
 17 47  1  0
 18 19  1  0
 18 48  1  0
 20 37  1  0
 20 21  1  6
 20 22  1  0
 21 49  1  0
 21 50  1  0
 21 51  1  0
 22 23  1  0
 22 52  1  0
 22 53  1  0
 23 24  1  0
 23 54  1  0
 23 55  1  0
 24 36  1  0
 24 25  1  0
 24 56  1  6
 25 26  1  0
 25 37  1  0
 25 57  1  1
 26 27  1  0
 26 58  1  0
 26 59  1  0
 27 29  1  0
 27 28  1  0
 27 60  1  1
 29 28  1  6
 29 36  1  0
 29 30  1  0
 30 31  1  0
 30 61  1  0
 30 62  1  0
 31 32  1  0
 31 63  1  0
 31 64  1  0
 32 33  1  0
 32 65  1  0
 32 66  1  0
 33 34  1  0
 33 35  1  0
 33 36  1  0
 34 67  1  0
 34 68  1  0
 34 69  1  0
 35 70  1  0
 35 71  1  0
 35 72  1  0
 36 73  1  6
 37 74  1  1
M  END
>  <i_m_ct_stereo_status>  (144) 
1

>  <s_m_source_file>  (144) 
/var/tmp/pbs.5076255.sched01/tmp1pob34vh/39rbzpz6sd.sdf

>  <i_m_source_file_index>  (144) 
31

>  <i_lp_mmshare_version>  (144) 
48012

>  <i_f3d_flags>  (144) 
0

>  <s_epik_input>  (144) 
W09IXWMxb1tjSF1jKE4yKWMxW0NAQEhdKGMzW2NIXVtjSF1bY0hdczMpW0NAQEhdKE9bQ0BIXShbQ0BASF00NSlPW0NIM10pQz0yW0NAXTQoW0NIM10pW0NIMl1bQ0gyXVtDQEBIXShbQ0BASF01W0NIMl1bQ0BASF0oTzYpW0NAXTY3OClbQ0BIXThDKFtDSDNdKShbQ0gzXSlbQ0gyXVtDSDJdW0NIMl03

>  <s_epik_cmdline>  (144) 
J2VwaWtfcHl0aG9uJywgJy1waHQnLCAnMi4wJywgJy1waCcsICc3LjAnLCAnLXRuJywgJzgnLCAnLW1hJywgJzIwMCcsICctaW1hZScsICc8aW5maWxlLm1hZT4nLCAnLW9tYWUnLCAnPG91dGZpbGUubWFlPic=

>  <r_lp_tautomer_probability>  (144) 
1

>  <r_epik_Ionization_Penalty>  (144) 
1.34255

>  <r_epik_Ionization_Penalty_Charging>  (144) 
0

>  <r_epik_Ionization_Penalty_Neutral>  (144) 
1.34255

>  <r_epik_State_Penalty>  (144) 
1.41992

>  <r_epik_Charging_Adjusted_Penalty>  (144) 
1.41992

>  <i_epik_Tot_Q>  (144) 
0

>  <i_epik_Tot_abs_Q>  (144) 
0

>  <s_epik_Chemistry_Notes>  (144) 
This compound has an imine and may undergo hydrolysis. This compound contains an acetal/aminal-like group ( X-CH(R)-Y where X, Y are N, S, or O) that may be acid/base labile, releasing an aldehyde.

>  <s_lp_Force_Field>  (144) 
OPLS3e

>  <r_lp_Energy>  (144) 
80.8459

>  <b_lp_Chiralities_Consistent>  (144) 
1

>  <s_lp_Variant>  (144) 
45:0-2

>  <s_i_glide_gridfile>  (144) 
pfpi4k_grid

>  <i_i_glide_lignum>  (144) 
31

>  <i_i_glide_rotatable_bonds>  (144) 
3

>  <r_i_docking_score>  (144) 
-2.09597

>  <r_i_glide_ligand_efficiency>  (144) 
-0.0566479

>  <r_i_glide_ligand_efficiency_sa>  (144) 
-0.188763

>  <r_i_glide_ligand_efficiency_ln>  (144) 
-0.454567

>  <r_i_glide_gscore>  (144) 
-2.09597

>  <r_i_glide_lipo>  (144) 
-0.313761

>  <r_i_glide_hbond>  (144) 
0

>  <r_i_glide_metal>  (144) 
-0

>  <r_i_glide_rewards>  (144) 
-0.0173268

>  <r_i_glide_evdw>  (144) 
-24.6272

>  <r_i_glide_ecoul>  (144) 
-4.05693

>  <r_i_glide_erotb>  (144) 
0.0750121

>  <r_i_glide_esite>  (144) 
0

>  <r_i_glide_emodel>  (144) 
-28.9419

>  <r_i_glide_energy>  (144) 
-28.6841

>  <r_i_glide_einternal>  (144) 
4.1779

>  <r_i_glide_intrahb_reward>  (144) 
-0

>  <i_i_glide_confnum>  (144) 
4

>  <i_i_glide_posenum>  (144) 
1

>  <r_i_glide_eff_state_penalty>  (144) 
0

>  <ligand_id>  (144) 
45

>  <original_smiles>  (144) 
COC1OC2C(=Nc3coc(O)c3C2c2cccs2)C2(C)CCC3C(CC4OC45CCCC(C)(C)C35)C12

>  <smiles>  (144) 
[H]Oc1oc([H])c2c1C([H])(c1sc([H])c([H])c1[H])C1([H])OC([H])(OC([H])([H])[H])C3([H])C4([H])C([H])([H])C5([H])OC56C([H])([H])C([H])([H])C([H])([H])C(C([H])([H])[H])(C([H])([H])[H])C6([H])C4([H])C([H])([H])C([H])([H])C3(C([H])([H])[H])C1=N2

$$$$
45:1:1
     RDKit          3D

 74 81  0  0  1  0  0  0  0  0999 V2000
    4.3897   -2.7645    4.9184 C   0  0  0  0  0  0  0  0  0  0  0  0
    5.1002   -3.9088    4.4473 O   0  0  0  0  0  0  0  0  0  0  0  0
    4.8491   -4.2916    3.1197 C   0  0  2  0  0  0  0  0  0  0  0  0
    4.8199   -3.1609    2.2975 O   0  0  0  0  0  0  0  0  0  0  0  0
    4.5749   -3.3307    0.9065 C   0  0  1  0  0  0  0  0  0  0  0  0
    3.4248   -4.3407    0.5642 C   0  0  0  0  0  0  0  0  0  0  0  0
    2.7009   -4.2452   -0.4854 N   0  0  0  0  0  0  0  0  0  0  0  0
    2.9731   -3.1897   -1.3789 C   0  0  0  0  0  0  0  0  0  0  0  0
    2.5865   -3.0845   -2.6903 C   0  0  0  0  0  0  0  0  0  0  0  0
    3.1558   -1.9857   -3.2750 O   0  0  0  0  0  0  0  0  0  0  0  0
    3.8738   -1.3929   -2.2673 C   0  0  0  0  0  0  0  0  0  0  0  0
    4.5712   -0.2781   -2.6211 O   0  0  0  0  0  0  0  0  0  0  0  0
    3.7709   -2.0726   -1.0620 C   0  0  0  0  0  0  0  0  0  0  0  0
    4.3590   -1.9075    0.3045 C   0  0  1  0  0  0  0  0  0  0  0  0
    3.4986   -1.0037    1.1552 C   0  0  0  0  0  0  0  0  0  0  0  0
    3.6092    0.3507    1.3017 C   0  0  0  0  0  0  0  0  0  0  0  0
    2.6074    0.9323    2.1396 C   0  0  0  0  0  0  0  0  0  0  0  0
    1.7643    0.0016    2.6716 C   0  0  0  0  0  0  0  0  0  0  0  0
    2.1321   -1.5918    2.0707 S   0  0  0  0  0  0  0  0  0  0  0  0
    3.2934   -5.5373    1.5427 C   0  0  2  0  0  0  0  0  0  0  0  0
    4.3337   -6.5975    1.0903 C   0  0  0  0  0  0  0  0  0  0  0  0
    1.8611   -6.1330    1.5184 C   0  0  0  0  0  0  0  0  0  0  0  0
    1.5951   -7.2823    2.5205 C   0  0  0  0  0  0  0  0  0  0  0  0
    2.5763   -7.3895    3.7134 C   0  0  1  0  0  0  0  0  0  0  0  0
    3.2111   -6.0383    4.1674 C   0  0  2  0  0  0  0  0  0  0  0  0
    2.4235   -5.3386    5.3251 C   0  0  0  0  0  0  0  0  0  0  0  0
    1.4681   -6.1574    6.1400 C   0  0  1  0  0  0  0  0  0  0  0  0
    0.3083   -6.6092    5.4110 O   0  0  0  0  0  0  0  0  0  0  0  0
    1.2169   -7.5952    5.9060 C   0  0  2  0  0  0  0  0  0  0  0  0
    0.6026   -8.4784    6.9865 C   0  0  0  0  0  0  0  0  0  0  0  0
    1.5999   -9.4507    7.6113 C   0  0  0  0  0  0  0  0  0  0  0  0
    2.3616  -10.2057    6.5136 C   0  0  0  0  0  0  0  0  0  0  0  0
    3.1028   -9.2733    5.5293 C   0  0  0  0  0  0  0  0  0  0  0  0
    4.1836   -8.4852    6.3227 C   0  0  0  0  0  0  0  0  0  0  0  0
    3.8031  -10.1893    4.5066 C   0  0  0  0  0  0  0  0  0  0  0  0
    2.0323   -8.3434    4.8554 C   0  0  2  0  0  0  0  0  0  0  0  0
    3.4742   -5.0208    2.9971 C   0  0  1  0  0  0  0  0  0  0  0  0
    4.6484   -2.6423    5.9688 H   0  0  0  0  0  0  0  0  0  0  0  0
    3.3148   -2.8984    4.8419 H   0  0  0  0  0  0  0  0  0  0  0  0
    4.6627   -1.8490    4.3878 H   0  0  0  0  0  0  0  0  0  0  0  0
    5.6600   -4.9740    2.8110 H   0  0  0  0  0  0  0  0  0  0  0  0
    5.4700   -3.7444    0.4379 H   0  0  0  0  0  0  0  0  0  0  0  0
    2.0075   -3.6937   -3.3529 H   0  0  0  0  0  0  0  0  0  0  0  0
    4.6367    0.2767   -1.8612 H   0  0  0  0  0  0  0  0  0  0  0  0
    5.3381   -1.4382    0.1860 H   0  0  0  0  0  0  0  0  0  0  0  0
    4.3548    0.9384    0.7795 H   0  0  0  0  0  0  0  0  0  0  0  0
    2.5761    1.9964    2.3293 H   0  0  0  0  0  0  0  0  0  0  0  0
    0.9284    0.1666    3.3300 H   0  0  0  0  0  0  0  0  0  0  0  0
    3.9081   -7.2815    0.3583 H   0  0  0  0  0  0  0  0  0  0  0  0
    4.7302   -7.1893    1.9054 H   0  0  0  0  0  0  0  0  0  0  0  0
    5.2064   -6.1475    0.6128 H   0  0  0  0  0  0  0  0  0  0  0  0
    1.1615   -5.3346    1.7653 H   0  0  0  0  0  0  0  0  0  0  0  0
    1.5940   -6.4750    0.5158 H   0  0  0  0  0  0  0  0  0  0  0  0
    0.5565   -7.2639    2.8619 H   0  0  0  0  0  0  0  0  0  0  0  0
    1.6962   -8.2174    1.9643 H   0  0  0  0  0  0  0  0  0  0  0  0
    3.3884   -7.9616    3.2871 H   0  0  0  0  0  0  0  0  0  0  0  0
    4.1827   -6.3022    4.5782 H   0  0  0  0  0  0  0  0  0  0  0  0
    3.1557   -4.9544    6.0367 H   0  0  0  0  0  0  0  0  0  0  0  0
    1.8374   -4.4933    4.9672 H   0  0  0  0  0  0  0  0  0  0  0  0
    1.2547   -5.7346    7.1228 H   0  0  0  0  0  0  0  0  0  0  0  0
    0.1970   -7.8375    7.7742 H   0  0  0  0  0  0  0  0  0  0  0  0
   -0.2438   -9.0143    6.5527 H   0  0  0  0  0  0  0  0  0  0  0  0
    2.2921   -8.9206    8.2655 H   0  0  0  0  0  0  0  0  0  0  0  0
    1.0652  -10.1589    8.2533 H   0  0  0  0  0  0  0  0  0  0  0  0
    3.0494  -10.9162    6.9757 H   0  0  0  0  0  0  0  0  0  0  0  0
    1.6337  -10.7946    5.9549 H   0  0  0  0  0  0  0  0  0  0  0  0
    4.9205   -8.0353    5.6545 H   0  0  0  0  0  0  0  0  0  0  0  0
    4.7311   -9.1568    6.9945 H   0  0  0  0  0  0  0  0  0  0  0  0
    3.7507   -7.6893    6.9422 H   0  0  0  0  0  0  0  0  0  0  0  0
    4.5157   -9.6423    3.8916 H   0  0  0  0  0  0  0  0  0  0  0  0
    3.0697  -10.6676    3.8527 H   0  0  0  0  0  0  0  0  0  0  0  0
    4.3646  -10.9709    5.0205 H   0  0  0  0  0  0  0  0  0  0  0  0
    1.3148   -9.0204    4.3839 H   0  0  0  0  0  0  0  0  0  0  0  0
    2.7033   -4.2615    3.0901 H   0  0  0  0  0  0  0  0  0  0  0  0
  1  2  1  0
  1 38  1  0
  1 39  1  0
  1 40  1  0
  2  3  1  0
  3 37  1  0
  3  4  1  0
  3 41  1  6
  4  5  1  0
  5 14  1  0
  5  6  1  0
  5 42  1  6
  6  7  2  0
  6 20  1  0
  7  8  1  0
  8 13  1  0
  8  9  2  0
  9 10  1  0
  9 43  1  0
 10 11  1  0
 11 12  1  0
 11 13  2  0
 12 44  1  0
 13 14  1  0
 14 15  1  0
 14 45  1  6
 15 19  1  0
 15 16  2  0
 16 17  1  0
 16 46  1  0
 17 18  2  0
 17 47  1  0
 18 19  1  0
 18 48  1  0
 20 37  1  0
 20 21  1  6
 20 22  1  0
 21 49  1  0
 21 50  1  0
 21 51  1  0
 22 23  1  0
 22 52  1  0
 22 53  1  0
 23 24  1  0
 23 54  1  0
 23 55  1  0
 24 36  1  0
 24 25  1  0
 24 56  1  6
 25 26  1  0
 25 37  1  0
 25 57  1  1
 26 27  1  0
 26 58  1  0
 26 59  1  0
 27 29  1  0
 27 28  1  0
 27 60  1  1
 29 28  1  6
 29 36  1  0
 29 30  1  0
 30 31  1  0
 30 61  1  0
 30 62  1  0
 31 32  1  0
 31 63  1  0
 31 64  1  0
 32 33  1  0
 32 65  1  0
 32 66  1  0
 33 34  1  0
 33 35  1  0
 33 36  1  0
 34 67  1  0
 34 68  1  0
 34 69  1  0
 35 70  1  0
 35 71  1  0
 35 72  1  0
 36 73  1  6
 37 74  1  1
M  END
>  <i_m_ct_stereo_status>  (145) 
1

>  <s_m_source_file>  (145) 
/var/tmp/pbs.5076255.sched01/tmp1pob34vh/39rbzpz6sd.sdf

>  <i_m_source_file_index>  (145) 
31

>  <i_lp_mmshare_version>  (145) 
48012

>  <i_f3d_flags>  (145) 
0

>  <s_epik_input>  (145) 
W09IXWMxb1tjSF1jKE4yKWMxW0NAQEhdKGMzW2NIXVtjSF1bY0hdczMpW0NAQEhdKE9bQ0BIXShbQ0BASF00NSlPW0NIM10pQz0yW0NAXTQoW0NIM10pW0NIMl1bQ0gyXVtDQEBIXShbQ0BASF01W0NIMl1bQ0BASF0oTzYpW0NAXTY3OClbQ0BIXThDKFtDSDNdKShbQ0gzXSlbQ0gyXVtDSDJdW0NIMl03

>  <s_epik_cmdline>  (145) 
J2VwaWtfcHl0aG9uJywgJy1waHQnLCAnMi4wJywgJy1waCcsICc3LjAnLCAnLXRuJywgJzgnLCAnLW1hJywgJzIwMCcsICctaW1hZScsICc8aW5maWxlLm1hZT4nLCAnLW9tYWUnLCAnPG91dGZpbGUubWFlPic=

>  <r_lp_tautomer_probability>  (145) 
1

>  <r_epik_Ionization_Penalty>  (145) 
1.34255

>  <r_epik_Ionization_Penalty_Charging>  (145) 
0

>  <r_epik_Ionization_Penalty_Neutral>  (145) 
1.34255

>  <r_epik_State_Penalty>  (145) 
1.41992

>  <r_epik_Charging_Adjusted_Penalty>  (145) 
1.41992

>  <i_epik_Tot_Q>  (145) 
0

>  <i_epik_Tot_abs_Q>  (145) 
0

>  <s_epik_Chemistry_Notes>  (145) 
This compound has an imine and may undergo hydrolysis. This compound contains an acetal/aminal-like group ( X-CH(R)-Y where X, Y are N, S, or O) that may be acid/base labile, releasing an aldehyde.

>  <s_lp_Force_Field>  (145) 
OPLS3e

>  <r_lp_Energy>  (145) 
80.8459

>  <b_lp_Chiralities_Consistent>  (145) 
1

>  <s_lp_Variant>  (145) 
45:0-2

>  <s_i_glide_gridfile>  (145) 
pfpi4k_grid

>  <i_i_glide_lignum>  (145) 
31

>  <i_i_glide_rotatable_bonds>  (145) 
3

>  <r_i_docking_score>  (145) 
-2.00448

>  <r_i_glide_ligand_efficiency>  (145) 
-0.0541751

>  <r_i_glide_ligand_efficiency_sa>  (145) 
-0.180523

>  <r_i_glide_ligand_efficiency_ln>  (145) 
-0.434724

>  <r_i_glide_gscore>  (145) 
-2.00448

>  <r_i_glide_lipo>  (145) 
-0.294682

>  <r_i_glide_hbond>  (145) 
0

>  <r_i_glide_metal>  (145) 
-0

>  <r_i_glide_rewards>  (145) 
-0.0183917

>  <r_i_glide_evdw>  (145) 
-28.8599

>  <r_i_glide_ecoul>  (145) 
-2.12484

>  <r_i_glide_erotb>  (145) 
0.0750121

>  <r_i_glide_esite>  (145) 
-0.00469685

>  <r_i_glide_emodel>  (145) 
-30.6993

>  <r_i_glide_energy>  (145) 
-30.9847

>  <r_i_glide_einternal>  (145) 
4.91167

>  <r_i_glide_intrahb_reward>  (145) 
-0

>  <i_i_glide_confnum>  (145) 
4

>  <i_i_glide_posenum>  (145) 
33

>  <r_i_glide_eff_state_penalty>  (145) 
0

>  <ligand_id>  (145) 
45

>  <original_smiles>  (145) 
COC1OC2C(=Nc3coc(O)c3C2c2cccs2)C2(C)CCC3C(CC4OC45CCCC(C)(C)C35)C12

>  <smiles>  (145) 
[H]Oc1oc([H])c2c1C([H])(c1sc([H])c([H])c1[H])C1([H])OC([H])(OC([H])([H])[H])C3([H])C4([H])C([H])([H])C5([H])OC56C([H])([H])C([H])([H])C([H])([H])C(C([H])([H])[H])(C([H])([H])[H])C6([H])C4([H])C([H])([H])C([H])([H])C3(C([H])([H])[H])C1=N2

$$$$
45:1:2
     RDKit          3D

 74 81  0  0  1  0  0  0  0  0999 V2000
    2.8297   -5.9817    9.2773 C   0  0  0  0  0  0  0  0  0  0  0  0
    2.4354   -5.6847    7.9453 O   0  0  0  0  0  0  0  0  0  0  0  0
    3.3990   -4.9960    7.2150 C   0  0  2  0  0  0  0  0  0  0  0  0
    3.5091   -3.6904    7.6983 O   0  0  0  0  0  0  0  0  0  0  0  0
    4.4671   -2.8409    7.0680 C   0  0  1  0  0  0  0  0  0  0  0  0
    4.4437   -2.8723    5.4994 C   0  0  0  0  0  0  0  0  0  0  0  0
    4.8183   -1.8869    4.7714 N   0  0  0  0  0  0  0  0  0  0  0  0
    5.2616   -0.7235    5.4035 C   0  0  0  0  0  0  0  0  0  0  0  0
    5.9632    0.3080    4.8479 C   0  0  0  0  0  0  0  0  0  0  0  0
    6.3264    1.2021    5.8139 O   0  0  0  0  0  0  0  0  0  0  0  0
    5.7964    0.7154    6.9753 C   0  0  0  0  0  0  0  0  0  0  0  0
    6.0772    1.4388    8.0908 O   0  0  0  0  0  0  0  0  0  0  0  0
    5.0993   -0.4530    6.7847 C   0  0  0  0  0  0  0  0  0  0  0  0
    4.3658   -1.4086    7.6834 C   0  0  1  0  0  0  0  0  0  0  0  0
    2.9396   -0.9768    7.9076 C   0  0  0  0  0  0  0  0  0  0  0  0
    2.0485   -0.4790    6.9871 C   0  0  0  0  0  0  0  0  0  0  0  0
    0.7664   -0.1986    7.5373 C   0  0  0  0  0  0  0  0  0  0  0  0
    0.6872   -0.4918    8.8730 C   0  0  0  0  0  0  0  0  0  0  0  0
    2.1861   -1.1425    9.4716 S   0  0  0  0  0  0  0  0  0  0  0  0
    4.0626   -4.2459    4.8904 C   0  0  2  0  0  0  0  0  0  0  0  0
    5.3698   -5.0855    4.8292 C   0  0  0  0  0  0  0  0  0  0  0  0
    3.4584   -4.0858    3.4694 C   0  0  0  0  0  0  0  0  0  0  0  0
    2.9714   -5.3947    2.7991 C   0  0  0  0  0  0  0  0  0  0  0  0
    2.6782   -6.5895    3.7441 C   0  0  1  0  0  0  0  0  0  0  0  0
    2.2529   -6.1927    5.1961 C   0  0  2  0  0  0  0  0  0  0  0  0
    0.7061   -6.1196    5.4205 C   0  0  0  0  0  0  0  0  0  0  0  0
   -0.1802   -6.8244    4.4223 C   0  0  1  0  0  0  0  0  0  0  0  0
   -0.1557   -6.2523    3.1030 O   0  0  0  0  0  0  0  0  0  0  0  0
    0.3463   -7.5735    3.2385 C   0  0  2  0  0  0  0  0  0  0  0  0
   -0.5063   -8.5957    2.4973 C   0  0  0  0  0  0  0  0  0  0  0  0
   -0.0431  -10.0379    2.7156 C   0  0  0  0  0  0  0  0  0  0  0  0
    1.4661  -10.1653    2.4874 C   0  0  0  0  0  0  0  0  0  0  0  0
    2.2973   -9.2088    3.3769 C   0  0  0  0  0  0  0  0  0  0  0  0
    2.0696   -9.5829    4.8656 C   0  0  0  0  0  0  0  0  0  0  0  0
    3.7773   -9.4591    3.0142 C   0  0  0  0  0  0  0  0  0  0  0  0
    1.8515   -7.7386    3.0462 C   0  0  2  0  0  0  0  0  0  0  0  0
    2.9281   -4.8797    5.7434 C   0  0  1  0  0  0  0  0  0  0  0  0
    2.0231   -6.5230    9.7681 H   0  0  0  0  0  0  0  0  0  0  0  0
    3.0238   -5.0784    9.8551 H   0  0  0  0  0  0  0  0  0  0  0  0
    3.7170   -6.6143    9.3059 H   0  0  0  0  0  0  0  0  0  0  0  0
    4.3502   -5.5308    7.2894 H   0  0  0  0  0  0  0  0  0  0  0  0
    5.4570   -3.2106    7.3300 H   0  0  0  0  0  0  0  0  0  0  0  0
    6.3286    0.5330    3.8569 H   0  0  0  0  0  0  0  0  0  0  0  0
    5.6449    1.0305    8.8275 H   0  0  0  0  0  0  0  0  0  0  0  0
    4.8729   -1.4137    8.6491 H   0  0  0  0  0  0  0  0  0  0  0  0
    2.2698   -0.3018    5.9413 H   0  0  0  0  0  0  0  0  0  0  0  0
   -0.0372    0.2135    6.9403 H   0  0  0  0  0  0  0  0  0  0  0  0
   -0.1426   -0.3575    9.5494 H   0  0  0  0  0  0  0  0  0  0  0  0
    5.8970   -4.9297    3.8894 H   0  0  0  0  0  0  0  0  0  0  0  0
    5.2026   -6.1509    4.9430 H   0  0  0  0  0  0  0  0  0  0  0  0
    6.0729   -4.8224    5.6212 H   0  0  0  0  0  0  0  0  0  0  0  0
    2.5969   -3.4209    3.5334 H   0  0  0  0  0  0  0  0  0  0  0  0
    4.1602   -3.5831    2.8006 H   0  0  0  0  0  0  0  0  0  0  0  0
    2.1205   -5.1792    2.1504 H   0  0  0  0  0  0  0  0  0  0  0  0
    3.7592   -5.7196    2.1182 H   0  0  0  0  0  0  0  0  0  0  0  0
    3.6625   -7.0221    3.8634 H   0  0  0  0  0  0  0  0  0  0  0  0
    2.6146   -7.0097    5.8167 H   0  0  0  0  0  0  0  0  0  0  0  0
    0.4926   -6.5651    6.3887 H   0  0  0  0  0  0  0  0  0  0  0  0
    0.3351   -5.0965    5.4885 H   0  0  0  0  0  0  0  0  0  0  0  0
   -1.1842   -7.0587    4.7776 H   0  0  0  0  0  0  0  0  0  0  0  0
   -1.5435   -8.5179    2.8270 H   0  0  0  0  0  0  0  0  0  0  0  0
   -0.5070   -8.3504    1.4344 H   0  0  0  0  0  0  0  0  0  0  0  0
   -0.3005  -10.3660    3.7250 H   0  0  0  0  0  0  0  0  0  0  0  0
   -0.5820  -10.6945    2.0299 H   0  0  0  0  0  0  0  0  0  0  0  0
    1.7695  -11.2012    2.6493 H   0  0  0  0  0  0  0  0  0  0  0  0
    1.6724   -9.9365    1.4411 H   0  0  0  0  0  0  0  0  0  0  0  0
    2.8262   -9.1462    5.5172 H   0  0  0  0  0  0  0  0  0  0  0  0
    2.1132  -10.6646    5.0096 H   0  0  0  0  0  0  0  0  0  0  0  0
    1.0919   -9.2576    5.2290 H   0  0  0  0  0  0  0  0  0  0  0  0
    4.4630   -8.9823    3.7125 H   0  0  0  0  0  0  0  0  0  0  0  0
    4.0023   -9.0940    2.0104 H   0  0  0  0  0  0  0  0  0  0  0  0
    4.0068  -10.5252    3.0346 H   0  0  0  0  0  0  0  0  0  0  0  0
    2.0143   -7.6236    1.9720 H   0  0  0  0  0  0  0  0  0  0  0  0
    2.1489   -4.1200    5.7685 H   0  0  0  0  0  0  0  0  0  0  0  0
  1  2  1  0
  1 38  1  0
  1 39  1  0
  1 40  1  0
  2  3  1  0
  3 37  1  0
  3  4  1  0
  3 41  1  6
  4  5  1  0
  5 14  1  0
  5  6  1  0
  5 42  1  1
  6  7  2  0
  6 20  1  0
  7  8  1  0
  8 13  1  0
  8  9  2  0
  9 10  1  0
  9 43  1  0
 10 11  1  0
 11 12  1  0
 11 13  2  0
 12 44  1  0
 13 14  1  0
 14 15  1  0
 14 45  1  1
 15 19  1  0
 15 16  2  0
 16 17  1  0
 16 46  1  0
 17 18  2  0
 17 47  1  0
 18 19  1  0
 18 48  1  0
 20 37  1  0
 20 21  1  6
 20 22  1  0
 21 49  1  0
 21 50  1  0
 21 51  1  0
 22 23  1  0
 22 52  1  0
 22 53  1  0
 23 24  1  0
 23 54  1  0
 23 55  1  0
 24 36  1  0
 24 25  1  0
 24 56  1  1
 25 26  1  0
 25 37  1  0
 25 57  1  1
 26 27  1  0
 26 58  1  0
 26 59  1  0
 27 29  1  0
 27 28  1  0
 27 60  1  1
 29 28  1  6
 29 36  1  0
 29 30  1  0
 30 31  1  0
 30 61  1  0
 30 62  1  0
 31 32  1  0
 31 63  1  0
 31 64  1  0
 32 33  1  0
 32 65  1  0
 32 66  1  0
 33 34  1  0
 33 35  1  0
 33 36  1  0
 34 67  1  0
 34 68  1  0
 34 69  1  0
 35 70  1  0
 35 71  1  0
 35 72  1  0
 36 73  1  6
 37 74  1  1
M  END
>  <i_m_ct_stereo_status>  (146) 
1

>  <s_m_source_file>  (146) 
/var/tmp/pbs.5076255.sched01/tmp1pob34vh/39rbzpz6sd.sdf

>  <i_m_source_file_index>  (146) 
31

>  <i_lp_mmshare_version>  (146) 
48012

>  <i_f3d_flags>  (146) 
0

>  <s_epik_input>  (146) 
W09IXWMxb1tjSF1jKE4yKWMxW0NAQEhdKGMzW2NIXVtjSF1bY0hdczMpW0NAQEhdKE9bQ0BIXShbQ0BASF00NSlPW0NIM10pQz0yW0NAXTQoW0NIM10pW0NIMl1bQ0gyXVtDQEBIXShbQ0BASF01W0NIMl1bQ0BASF0oTzYpW0NAXTY3OClbQ0BIXThDKFtDSDNdKShbQ0gzXSlbQ0gyXVtDSDJdW0NIMl03

>  <s_epik_cmdline>  (146) 
J2VwaWtfcHl0aG9uJywgJy1waHQnLCAnMi4wJywgJy1waCcsICc3LjAnLCAnLXRuJywgJzgnLCAnLW1hJywgJzIwMCcsICctaW1hZScsICc8aW5maWxlLm1hZT4nLCAnLW9tYWUnLCAnPG91dGZpbGUubWFlPic=

>  <r_lp_tautomer_probability>  (146) 
1

>  <r_epik_Ionization_Penalty>  (146) 
1.34255

>  <r_epik_Ionization_Penalty_Charging>  (146) 
0

>  <r_epik_Ionization_Penalty_Neutral>  (146) 
1.34255

>  <r_epik_State_Penalty>  (146) 
1.41992

>  <r_epik_Charging_Adjusted_Penalty>  (146) 
1.41992

>  <i_epik_Tot_Q>  (146) 
0

>  <i_epik_Tot_abs_Q>  (146) 
0

>  <s_epik_Chemistry_Notes>  (146) 
This compound has an imine and may undergo hydrolysis. This compound contains an acetal/aminal-like group ( X-CH(R)-Y where X, Y are N, S, or O) that may be acid/base labile, releasing an aldehyde.

>  <s_lp_Force_Field>  (146) 
OPLS3e

>  <r_lp_Energy>  (146) 
80.8459

>  <b_lp_Chiralities_Consistent>  (146) 
1

>  <s_lp_Variant>  (146) 
45:0-2

>  <s_i_glide_gridfile>  (146) 
pfpi4k_grid

>  <i_i_glide_lignum>  (146) 
31

>  <i_i_glide_rotatable_bonds>  (146) 
3

>  <r_i_docking_score>  (146) 
-1.6117

>  <r_i_glide_ligand_efficiency>  (146) 
-0.0435594

>  <r_i_glide_ligand_efficiency_sa>  (146) 
-0.14515

>  <r_i_glide_ligand_efficiency_ln>  (146) 
-0.349539

>  <r_i_glide_gscore>  (146) 
-1.6117

>  <r_i_glide_lipo>  (146) 
-0.348365

>  <r_i_glide_hbond>  (146) 
-0.131227

>  <r_i_glide_metal>  (146) 
-0

>  <r_i_glide_rewards>  (146) 
-0.00909312

>  <r_i_glide_evdw>  (146) 
-18.2669

>  <r_i_glide_ecoul>  (146) 
-1.89787

>  <r_i_glide_erotb>  (146) 
0.0750121

>  <r_i_glide_esite>  (146) 
0

>  <r_i_glide_emodel>  (146) 
-22.4702

>  <r_i_glide_energy>  (146) 
-20.1647

>  <r_i_glide_einternal>  (146) 
0.224005

>  <r_i_glide_intrahb_reward>  (146) 
-0

>  <i_i_glide_confnum>  (146) 
2

>  <i_i_glide_posenum>  (146) 
8

>  <r_i_glide_eff_state_penalty>  (146) 
0

>  <ligand_id>  (146) 
45

>  <original_smiles>  (146) 
COC1OC2C(=Nc3coc(O)c3C2c2cccs2)C2(C)CCC3C(CC4OC45CCCC(C)(C)C35)C12

>  <smiles>  (146) 
[H]Oc1oc([H])c2c1C([H])(c1sc([H])c([H])c1[H])C1([H])OC([H])(OC([H])([H])[H])C3([H])C4([H])C([H])([H])C5([H])OC56C([H])([H])C([H])([H])C([H])([H])C(C([H])([H])[H])(C([H])([H])[H])C6([H])C4([H])C([H])([H])C([H])([H])C3(C([H])([H])[H])C1=N2

$$$$
46:0:0
     RDKit          3D

 51 56  0  0  1  0  0  0  0  0999 V2000
    2.1613   -3.5675    2.1962 C   0  0  0  0  0  0  0  0  0  0  0  0
    3.5420   -3.2365    2.5308 N   0  0  0  0  0  0  0  0  0  0  0  0
    4.0196   -3.7045    3.8533 C   0  0  0  0  0  0  0  0  0  0  0  0
    5.2173   -4.6725    3.6288 C   0  0  0  0  0  0  0  0  0  0  0  0
    5.0105   -5.0202    2.1724 C   0  0  2  0  0  0  0  0  0  0  0  0
    4.1008   -6.2591    2.0712 C   0  0  0  0  0  0  0  0  0  0  0  0
    2.8831   -6.5767    2.7219 C   0  0  0  0  0  0  0  0  0  0  0  0
    2.3037   -7.8503    2.5257 C   0  0  0  0  0  0  0  0  0  0  0  0
    2.9525   -8.8235    1.7413 C   0  0  0  0  0  0  0  0  0  0  0  0
    4.1971   -8.5347    1.1501 C   0  0  0  0  0  0  0  0  0  0  0  0
    4.7409   -7.2491    1.3302 C   0  0  0  0  0  0  0  0  0  0  0  0
    5.9531   -6.8566    0.8782 O   0  0  0  0  0  0  0  0  0  0  0  0
    6.0904   -5.4643    1.1508 C   0  0  1  0  0  0  0  0  0  0  0  0
    5.6674   -4.6593   -0.1323 C   0  0  2  0  0  0  0  0  0  0  0  0
    6.7456   -3.5944   -0.4229 C   0  0  0  0  0  0  0  0  0  0  0  0
    7.0007   -2.7449    0.8346 C   0  0  1  0  0  0  0  0  0  0  0  0
    7.7380   -1.5910    0.4628 O   0  0  0  0  0  0  0  0  0  0  0  0
    5.6914   -2.4470    1.6288 C   0  0  1  0  0  0  0  0  0  0  0  0
    5.1296   -1.0409    1.3024 C   0  0  0  0  0  0  0  0  0  0  0  0
    4.6770   -0.8362   -0.1391 C   0  0  0  0  0  0  0  0  0  0  0  0
    3.4526   -1.6654   -0.4752 C   0  0  0  0  0  0  0  0  0  0  0  0
    3.7022   -3.1502   -0.8098 C   0  0  0  0  0  0  0  0  0  0  0  0
    4.3518   -4.0309    0.2100 N   0  0  2  0  0  0  0  0  0  0  0  0
    4.6025   -3.6257    1.6009 C   0  0  2  0  0  0  0  0  0  0  0  0
    1.5382   -3.6214    3.0893 H   0  0  0  0  0  0  0  0  0  0  0  0
    2.0523   -4.4937    1.6351 H   0  0  0  0  0  0  0  0  0  0  0  0
    1.7400   -2.7792    1.5809 H   0  0  0  0  0  0  0  0  0  0  0  0
    4.3352   -2.8453    4.4470 H   0  0  0  0  0  0  0  0  0  0  0  0
    3.2227   -4.1910    4.4142 H   0  0  0  0  0  0  0  0  0  0  0  0
    6.1640   -4.1639    3.7861 H   0  0  0  0  0  0  0  0  0  0  0  0
    5.2131   -5.5397    4.2898 H   0  0  0  0  0  0  0  0  0  0  0  0
    2.3950   -5.8806    3.3772 H   0  0  0  0  0  0  0  0  0  0  0  0
    1.3629   -8.0921    3.0042 H   0  0  0  0  0  0  0  0  0  0  0  0
    2.5073   -9.8000    1.6103 H   0  0  0  0  0  0  0  0  0  0  0  0
    4.7181   -9.2937    0.5837 H   0  0  0  0  0  0  0  0  0  0  0  0
    7.1133   -5.2921    1.4839 H   0  0  0  0  0  0  0  0  0  0  0  0
    5.5226   -5.3097   -0.9944 H   0  0  0  0  0  0  0  0  0  0  0  0
    7.6792   -4.0842   -0.7048 H   0  0  0  0  0  0  0  0  0  0  0  0
    6.4689   -2.9805   -1.2810 H   0  0  0  0  0  0  0  0  0  0  0  0
    7.6633   -3.3042    1.4925 H   0  0  0  0  0  0  0  0  0  0  0  0
    7.8359   -1.0196    1.2155 H   0  0  0  0  0  0  0  0  0  0  0  0
    6.0229   -2.3089    2.6547 H   0  0  0  0  0  0  0  0  0  0  0  0
    4.3131   -0.7896    1.9793 H   0  0  0  0  0  0  0  0  0  0  0  0
    5.8821   -0.2841    1.5156 H   0  0  0  0  0  0  0  0  0  0  0  0
    4.3807    0.2025   -0.2327 H   0  0  0  0  0  0  0  0  0  0  0  0
    5.4687   -0.9865   -0.8715 H   0  0  0  0  0  0  0  0  0  0  0  0
    2.6938   -1.5188    0.2933 H   0  0  0  0  0  0  0  0  0  0  0  0
    3.0244   -1.2214   -1.3743 H   0  0  0  0  0  0  0  0  0  0  0  0
    2.7119   -3.5792   -0.9611 H   0  0  0  0  0  0  0  0  0  0  0  0
    4.1902   -3.2452   -1.7821 H   0  0  0  0  0  0  0  0  0  0  0  0
    3.7205   -4.8148    0.2877 H   0  0  0  0  0  0  0  0  0  0  0  0
  1  2  1  0
  1 25  1  0
  1 26  1  0
  1 27  1  0
 24  2  1  1
  2  3  1  0
  3  4  1  0
  3 28  1  0
  3 29  1  0
  5  4  1  1
  4 30  1  0
  4 31  1  0
  5 13  1  0
  5 24  1  0
  5  6  1  0
  6 11  2  0
  6  7  1  0
  7  8  2  0
  7 32  1  0
  8  9  1  0
  8 33  1  0
  9 10  2  0
  9 34  1  0
 10 11  1  0
 10 35  1  0
 11 12  1  0
 12 13  1  0
 13 14  1  0
 13 36  1  1
 14 23  1  0
 14 15  1  0
 14 37  1  6
 15 16  1  0
 15 38  1  0
 15 39  1  0
 16 17  1  0
 16 18  1  0
 16 40  1  1
 17 41  1  0
 18 24  1  0
 18 19  1  0
 18 42  1  1
 19 20  1  0
 19 43  1  0
 19 44  1  0
 20 21  1  0
 20 45  1  0
 20 46  1  0
 21 22  1  0
 21 47  1  0
 21 48  1  0
 22 23  1  0
 22 49  1  0
 22 50  1  0
 23 24  1  0
 23 51  1  1
M  CHG  1  23   1
M  END
>  <i_m_ct_stereo_status>  (147) 
1

>  <s_m_source_file>  (147) 
/var/tmp/pbs.5076255.sched01/tmp1pob34vh/39rbzpz6sd.sdf

>  <i_m_source_file_index>  (147) 
32

>  <i_lp_mmshare_version>  (147) 
48012

>  <i_f3d_flags>  (147) 
0

>  <s_epik_input>  (147) 
W0NIMl0xW0NIMl1OKFtDSDNdKVtDQF0yKFtDQEBdMTM0KVtDQEhdNVtDQEhdKFtPSF0pW0NIMl1bQ0BIXShOMltDSDJdW0NIMl1bQ0gyXVtDSDJdNSlbQ0BASF00T2M2YzNbY0hdW2NIXVtjSF1bY0hdNg==

>  <s_epik_cmdline>  (147) 
J2VwaWtfcHl0aG9uJywgJy1waHQnLCAnMi4wJywgJy1waCcsICc3LjAnLCAnLXRuJywgJzgnLCAnLW1hJywgJzIwMCcsICctaW1hZScsICc8aW5maWxlLm1hZT4nLCAnLW9tYWUnLCAnPG91dGZpbGUubWFlPic=

>  <r_lp_tautomer_probability>  (147) 
1

>  <r_epik_Ionization_Penalty>  (147) 
0.00220486

>  <r_epik_Ionization_Penalty_Charging>  (147) 
0.0022047

>  <r_epik_Ionization_Penalty_Neutral>  (147) 
1.60453e-07

>  <r_epik_State_Penalty>  (147) 
0.210379

>  <r_epik_Charging_Adjusted_Penalty>  (147) 
0.212584

>  <i_epik_Tot_Q>  (147) 
1

>  <i_epik_Tot_abs_Q>  (147) 
1

>  <s_lp_Force_Field>  (147) 
OPLS3e

>  <r_lp_Energy>  (147) 
78.1991

>  <b_lp_Chiralities_Consistent>  (147) 
1

>  <s_lp_Variant>  (147) 
46:0-1

>  <s_i_glide_gridfile>  (147) 
pfpi4k_grid

>  <i_i_glide_lignum>  (147) 
32

>  <i_i_glide_rotatable_bonds>  (147) 
1

>  <r_i_docking_score>  (147) 
-3.58676

>  <r_i_glide_ligand_efficiency>  (147) 
-0.149448

>  <r_i_glide_ligand_efficiency_sa>  (147) 
-0.431084

>  <r_i_glide_ligand_efficiency_ln>  (147) 
-0.858476

>  <r_i_glide_gscore>  (147) 
-3.58676

>  <r_i_glide_lipo>  (147) 
-0.660208

>  <r_i_glide_hbond>  (147) 
-0.0652275

>  <r_i_glide_metal>  (147) 
-0

>  <r_i_glide_rewards>  (147) 
-1.2073

>  <r_i_glide_evdw>  (147) 
-18.0286

>  <r_i_glide_ecoul>  (147) 
-5.01727

>  <r_i_glide_erotb>  (147) 
0

>  <r_i_glide_esite>  (147) 
0

>  <r_i_glide_emodel>  (147) 
-27.8491

>  <r_i_glide_energy>  (147) 
-23.0459

>  <r_i_glide_einternal>  (147) 
0.486387

>  <r_i_glide_intrahb_reward>  (147) 
-0

>  <i_i_glide_confnum>  (147) 
1

>  <i_i_glide_posenum>  (147) 
1

>  <r_i_glide_eff_state_penalty>  (147) 
0

>  <ligand_id>  (147) 
46

>  <original_smiles>  (147) 
CN1CCC23c4ccccc4OC2C2CC(O)C4CCCCN2C413

>  <smiles>  (147) 
[H]OC1([H])C([H])([H])C2([H])C3([H])Oc4c([H])c([H])c([H])c([H])c4C34C([H])([H])C([H])([H])N(C([H])([H])[H])C43C1([H])C([H])([H])C([H])([H])C([H])([H])C([H])([H])[N+]23[H]

$$$$
46:0:1
     RDKit          3D

 51 56  0  0  1  0  0  0  0  0999 V2000
    2.3430   -4.5206    1.0720 C   0  0  0  0  0  0  0  0  0  0  0  0
    3.4774   -4.1683    1.9164 N   0  0  0  0  0  0  0  0  0  0  0  0
    4.7845   -4.7444    1.5198 C   0  0  0  0  0  0  0  0  0  0  0  0
    5.7668   -3.5754    1.2195 C   0  0  0  0  0  0  0  0  0  0  0  0
    4.7821   -2.4457    1.0257 C   0  0  2  0  0  0  0  0  0  0  0  0
    4.3744   -2.3782   -0.4633 C   0  0  0  0  0  0  0  0  0  0  0  0
    3.9766   -3.3893   -1.3645 C   0  0  0  0  0  0  0  0  0  0  0  0
    3.7432   -3.0633   -2.7239 C   0  0  0  0  0  0  0  0  0  0  0  0
    3.9644   -1.7535   -3.1942 C   0  0  0  0  0  0  0  0  0  0  0  0
    4.4242   -0.7613   -2.3098 C   0  0  0  0  0  0  0  0  0  0  0  0
    4.6131   -1.0971   -0.9515 C   0  0  0  0  0  0  0  0  0  0  0  0
    5.0874   -0.2594   -0.0043 O   0  0  0  0  0  0  0  0  0  0  0  0
    5.0333   -0.9283    1.2465 C   0  0  1  0  0  0  0  0  0  0  0  0
    3.7123   -0.4747    1.9588 C   0  0  2  0  0  0  0  0  0  0  0  0
    4.0447   -0.0903    3.4130 C   0  0  0  0  0  0  0  0  0  0  0  0
    4.8072   -1.2382    4.0925 C   0  0  1  0  0  0  0  0  0  0  0  0
    4.8953   -1.0049    5.4836 O   0  0  0  0  0  0  0  0  0  0  0  0
    4.2756   -2.6464    3.6833 C   0  0  1  0  0  0  0  0  0  0  0  0
    3.3017   -3.2262    4.7427 C   0  0  0  0  0  0  0  0  0  0  0  0
    1.9992   -2.4532    4.9454 C   0  0  0  0  0  0  0  0  0  0  0  0
    1.1002   -2.5303    3.7152 C   0  0  0  0  0  0  0  0  0  0  0  0
    1.4599   -1.5730    2.5529 C   0  0  0  0  0  0  0  0  0  0  0  0
    2.8014   -1.6701    1.8959 N   0  0  2  0  0  0  0  0  0  0  0  0
    3.7647   -2.7540    2.1643 C   0  0  2  0  0  0  0  0  0  0  0  0
    2.4695   -5.5053    0.6191 H   0  0  0  0  0  0  0  0  0  0  0  0
    2.1476   -3.7958    0.2833 H   0  0  0  0  0  0  0  0  0  0  0  0
    1.4461   -4.5868    1.6819 H   0  0  0  0  0  0  0  0  0  0  0  0
    5.1727   -5.3559    2.3355 H   0  0  0  0  0  0  0  0  0  0  0  0
    4.6847   -5.4063    0.6609 H   0  0  0  0  0  0  0  0  0  0  0  0
    6.4238   -3.3936    2.0689 H   0  0  0  0  0  0  0  0  0  0  0  0
    6.4066   -3.7522    0.3521 H   0  0  0  0  0  0  0  0  0  0  0  0
    3.8420   -4.4133   -1.0593 H   0  0  0  0  0  0  0  0  0  0  0  0
    3.4039   -3.8323   -3.4012 H   0  0  0  0  0  0  0  0  0  0  0  0
    3.7867   -1.5189   -4.2347 H   0  0  0  0  0  0  0  0  0  0  0  0
    4.6170    0.2370   -2.6697 H   0  0  0  0  0  0  0  0  0  0  0  0
    5.9553   -0.7067    1.7840 H   0  0  0  0  0  0  0  0  0  0  0  0
    3.2505    0.3737    1.4514 H   0  0  0  0  0  0  0  0  0  0  0  0
    4.6720    0.8013    3.4191 H   0  0  0  0  0  0  0  0  0  0  0  0
    3.1420    0.1842    3.9616 H   0  0  0  0  0  0  0  0  0  0  0  0
    5.8445   -1.1881    3.7780 H   0  0  0  0  0  0  0  0  0  0  0  0
    4.0238   -0.9929    5.8492 H   0  0  0  0  0  0  0  0  0  0  0  0
    5.1375   -3.2991    3.8048 H   0  0  0  0  0  0  0  0  0  0  0  0
    3.0797   -4.2685    4.5150 H   0  0  0  0  0  0  0  0  0  0  0  0
    3.8083   -3.2756    5.7052 H   0  0  0  0  0  0  0  0  0  0  0  0
    1.4677   -2.9124    5.7822 H   0  0  0  0  0  0  0  0  0  0  0  0
    2.1589   -1.4192    5.2383 H   0  0  0  0  0  0  0  0  0  0  0  0
    0.9992   -3.5681    3.4014 H   0  0  0  0  0  0  0  0  0  0  0  0
    0.0933   -2.2622    4.0331 H   0  0  0  0  0  0  0  0  0  0  0  0
    0.7647   -1.8053    1.7538 H   0  0  0  0  0  0  0  0  0  0  0  0
    1.2269   -0.5417    2.8144 H   0  0  0  0  0  0  0  0  0  0  0  0
    2.5800   -1.7566    0.9093 H   0  0  0  0  0  0  0  0  0  0  0  0
  1  2  1  0
  1 25  1  0
  1 26  1  0
  1 27  1  0
 24  2  1  6
  2  3  1  0
  3  4  1  0
  3 28  1  0
  3 29  1  0
  5  4  1  6
  4 30  1  0
  4 31  1  0
  5 13  1  0
  5 24  1  0
  5  6  1  0
  6 11  2  0
  6  7  1  0
  7  8  2  0
  7 32  1  0
  8  9  1  0
  8 33  1  0
  9 10  2  0
  9 34  1  0
 10 11  1  0
 10 35  1  0
 11 12  1  0
 12 13  1  0
 13 14  1  0
 13 36  1  1
 14 23  1  0
 14 15  1  0
 14 37  1  6
 15 16  1  0
 15 38  1  0
 15 39  1  0
 16 17  1  0
 16 18  1  0
 16 40  1  6
 17 41  1  0
 18 24  1  0
 18 19  1  0
 18 42  1  6
 19 20  1  0
 19 43  1  0
 19 44  1  0
 20 21  1  0
 20 45  1  0
 20 46  1  0
 21 22  1  0
 21 47  1  0
 21 48  1  0
 22 23  1  0
 22 49  1  0
 22 50  1  0
 23 24  1  0
 23 51  1  6
M  CHG  1  23   1
M  END
>  <i_m_ct_stereo_status>  (148) 
1

>  <s_m_source_file>  (148) 
/var/tmp/pbs.5076255.sched01/tmp1pob34vh/39rbzpz6sd.sdf

>  <i_m_source_file_index>  (148) 
32

>  <i_lp_mmshare_version>  (148) 
48012

>  <i_f3d_flags>  (148) 
0

>  <s_epik_input>  (148) 
W0NIMl0xW0NIMl1OKFtDSDNdKVtDQF0yKFtDQEBdMTM0KVtDQEhdNVtDQEhdKFtPSF0pW0NIMl1bQ0BIXShOMltDSDJdW0NIMl1bQ0gyXVtDSDJdNSlbQ0BASF00T2M2YzNbY0hdW2NIXVtjSF1bY0hdNg==

>  <s_epik_cmdline>  (148) 
J2VwaWtfcHl0aG9uJywgJy1waHQnLCAnMi4wJywgJy1waCcsICc3LjAnLCAnLXRuJywgJzgnLCAnLW1hJywgJzIwMCcsICctaW1hZScsICc8aW5maWxlLm1hZT4nLCAnLW9tYWUnLCAnPG91dGZpbGUubWFlPic=

>  <r_lp_tautomer_probability>  (148) 
1

>  <r_epik_Ionization_Penalty>  (148) 
0.00220486

>  <r_epik_Ionization_Penalty_Charging>  (148) 
0.0022047

>  <r_epik_Ionization_Penalty_Neutral>  (148) 
1.60453e-07

>  <r_epik_State_Penalty>  (148) 
0.210379

>  <r_epik_Charging_Adjusted_Penalty>  (148) 
0.212584

>  <i_epik_Tot_Q>  (148) 
1

>  <i_epik_Tot_abs_Q>  (148) 
1

>  <s_lp_Force_Field>  (148) 
OPLS3e

>  <r_lp_Energy>  (148) 
78.1991

>  <b_lp_Chiralities_Consistent>  (148) 
1

>  <s_lp_Variant>  (148) 
46:0-1

>  <s_i_glide_gridfile>  (148) 
pfpi4k_grid

>  <i_i_glide_lignum>  (148) 
32

>  <i_i_glide_rotatable_bonds>  (148) 
1

>  <r_i_docking_score>  (148) 
-3.17162

>  <r_i_glide_ligand_efficiency>  (148) 
-0.132151

>  <r_i_glide_ligand_efficiency_sa>  (148) 
-0.381189

>  <r_i_glide_ligand_efficiency_ln>  (148) 
-0.759114

>  <r_i_glide_gscore>  (148) 
-3.17162

>  <r_i_glide_lipo>  (148) 
-0.478137

>  <r_i_glide_hbond>  (148) 
0

>  <r_i_glide_metal>  (148) 
-0

>  <r_i_glide_rewards>  (148) 
-1.17654

>  <r_i_glide_evdw>  (148) 
-19.7307

>  <r_i_glide_ecoul>  (148) 
-3.35544

>  <r_i_glide_erotb>  (148) 
0

>  <r_i_glide_esite>  (148) 
-0.0270912

>  <r_i_glide_emodel>  (148) 
-27.5637

>  <r_i_glide_energy>  (148) 
-23.0861

>  <r_i_glide_einternal>  (148) 
0.000845712

>  <r_i_glide_intrahb_reward>  (148) 
-0

>  <i_i_glide_confnum>  (148) 
2

>  <i_i_glide_posenum>  (148) 
25

>  <r_i_glide_eff_state_penalty>  (148) 
0

>  <ligand_id>  (148) 
46

>  <original_smiles>  (148) 
CN1CCC23c4ccccc4OC2C2CC(O)C4CCCCN2C413

>  <smiles>  (148) 
[H]OC1([H])C([H])([H])C2([H])C3([H])Oc4c([H])c([H])c([H])c([H])c4C34C([H])([H])C([H])([H])N(C([H])([H])[H])C43C1([H])C([H])([H])C([H])([H])C([H])([H])C([H])([H])[N+]23[H]

$$$$
46:0:2
     RDKit          3D

 51 56  0  0  1  0  0  0  0  0999 V2000
    2.3731   -4.5218    1.0455 C   0  0  0  0  0  0  0  0  0  0  0  0
    3.5174   -4.1735    1.8819 N   0  0  0  0  0  0  0  0  0  0  0  0
    4.8192   -4.7510    1.4680 C   0  0  0  0  0  0  0  0  0  0  0  0
    5.8002   -3.5818    1.1604 C   0  0  0  0  0  0  0  0  0  0  0  0
    4.8171   -2.4487    0.9796 C   0  0  2  0  0  0  0  0  0  0  0  0
    4.3937   -2.3785   -0.5009 C   0  0  0  0  0  0  0  0  0  0  0  0
    3.9836   -3.3845   -1.4062 C   0  0  0  0  0  0  0  0  0  0  0  0
    3.7358   -3.0578   -2.7554 C   0  0  0  0  0  0  0  0  0  0  0  0
    3.9540   -1.7445   -3.2237 C   0  0  0  0  0  0  0  0  0  0  0  0
    4.4223   -0.7573   -2.3416 C   0  0  0  0  0  0  0  0  0  0  0  0
    4.6248   -1.0995   -0.9904 C   0  0  0  0  0  0  0  0  0  0  0  0
    5.1111   -0.2576   -0.0444 O   0  0  0  0  0  0  0  0  0  0  0  0
    5.0719   -0.9344    1.2018 C   0  0  1  0  0  0  0  0  0  0  0  0
    3.7582   -0.4806    1.9344 C   0  0  2  0  0  0  0  0  0  0  0  0
    4.1090   -0.1066    3.3845 C   0  0  0  0  0  0  0  0  0  0  0  0
    4.8848   -1.2557    4.0482 C   0  0  1  0  0  0  0  0  0  0  0  0
    4.9597   -1.0195    5.4408 O   0  0  0  0  0  0  0  0  0  0  0  0
    4.3408   -2.6604    3.6418 C   0  0  1  0  0  0  0  0  0  0  0  0
    3.3751   -3.2423    4.7086 C   0  0  0  0  0  0  0  0  0  0  0  0
    2.0743   -2.4667    4.9278 C   0  0  0  0  0  0  0  0  0  0  0  0
    1.1627   -2.5358    3.7076 C   0  0  0  0  0  0  0  0  0  0  0  0
    1.5145   -1.5739    2.5455 C   0  0  0  0  0  0  0  0  0  0  0  0
    2.8478   -1.6735    1.8742 N   0  0  2  0  0  0  0  0  0  0  0  0
    3.8096   -2.7597    2.1292 C   0  0  2  0  0  0  0  0  0  0  0  0
    2.4940   -5.5035    0.5883 H   0  0  0  0  0  0  0  0  0  0  0  0
    2.1709   -3.7914    0.2624 H   0  0  0  0  0  0  0  0  0  0  0  0
    1.4841   -4.5866    1.6652 H   0  0  0  0  0  0  0  0  0  0  0  0
    5.2146   -5.3676    2.2768 H   0  0  0  0  0  0  0  0  0  0  0  0
    4.7070   -5.4094    0.6057 H   0  0  0  0  0  0  0  0  0  0  0  0
    6.4676   -3.4035    2.0019 H   0  0  0  0  0  0  0  0  0  0  0  0
    6.4273   -3.7574    0.2861 H   0  0  0  0  0  0  0  0  0  0  0  0
    3.8505   -4.4079   -1.1019 H   0  0  0  0  0  0  0  0  0  0  0  0
    3.3899   -3.8203   -3.4350 H   0  0  0  0  0  0  0  0  0  0  0  0
    3.7655   -1.5046   -4.2591 H   0  0  0  0  0  0  0  0  0  0  0  0
    4.6138    0.2439   -2.6990 H   0  0  0  0  0  0  0  0  0  0  0  0
    5.9991   -0.7179    1.7325 H   0  0  0  0  0  0  0  0  0  0  0  0
    3.2951    0.3707    1.4340 H   0  0  0  0  0  0  0  0  0  0  0  0
    4.7339    0.7866    3.3893 H   0  0  0  0  0  0  0  0  0  0  0  0
    3.2162    0.1634    3.9481 H   0  0  0  0  0  0  0  0  0  0  0  0
    5.9180   -1.1989    3.7198 H   0  0  0  0  0  0  0  0  0  0  0  0
    5.5100   -1.6760    5.8406 H   0  0  0  0  0  0  0  0  0  0  0  0
    5.1991   -3.3188    3.7499 H   0  0  0  0  0  0  0  0  0  0  0  0
    3.1451   -4.2825    4.4795 H   0  0  0  0  0  0  0  0  0  0  0  0
    3.8870   -3.2944    5.6687 H   0  0  0  0  0  0  0  0  0  0  0  0
    1.5525   -2.9250    5.7693 H   0  0  0  0  0  0  0  0  0  0  0  0
    2.2487   -1.4334    5.2259 H   0  0  0  0  0  0  0  0  0  0  0  0
    1.0594   -3.5709    3.3901 H   0  0  0  0  0  0  0  0  0  0  0  0
    0.1605   -2.2651    4.0372 H   0  0  0  0  0  0  0  0  0  0  0  0
    0.8064   -1.8020    1.7520 H   0  0  0  0  0  0  0  0  0  0  0  0
    1.2884   -0.5410    2.8176 H   0  0  0  0  0  0  0  0  0  0  0  0
    2.6150   -1.7570    0.8927 H   0  0  0  0  0  0  0  0  0  0  0  0
  1  2  1  0
  1 25  1  0
  1 26  1  0
  1 27  1  0
 24  2  1  6
  2  3  1  0
  3  4  1  0
  3 28  1  0
  3 29  1  0
  5  4  1  6
  4 30  1  0
  4 31  1  0
  5 13  1  0
  5 24  1  0
  5  6  1  0
  6 11  2  0
  6  7  1  0
  7  8  2  0
  7 32  1  0
  8  9  1  0
  8 33  1  0
  9 10  2  0
  9 34  1  0
 10 11  1  0
 10 35  1  0
 11 12  1  0
 12 13  1  0
 13 14  1  0
 13 36  1  1
 14 23  1  0
 14 15  1  0
 14 37  1  6
 15 16  1  0
 15 38  1  0
 15 39  1  0
 16 17  1  0
 16 18  1  0
 16 40  1  6
 17 41  1  0
 18 24  1  0
 18 19  1  0
 18 42  1  6
 19 20  1  0
 19 43  1  0
 19 44  1  0
 20 21  1  0
 20 45  1  0
 20 46  1  0
 21 22  1  0
 21 47  1  0
 21 48  1  0
 22 23  1  0
 22 49  1  0
 22 50  1  0
 23 24  1  0
 23 51  1  6
M  CHG  1  23   1
M  END
>  <i_m_ct_stereo_status>  (149) 
1

>  <s_m_source_file>  (149) 
/var/tmp/pbs.5076255.sched01/tmp1pob34vh/39rbzpz6sd.sdf

>  <i_m_source_file_index>  (149) 
32

>  <i_lp_mmshare_version>  (149) 
48012

>  <i_f3d_flags>  (149) 
0

>  <s_epik_input>  (149) 
W0NIMl0xW0NIMl1OKFtDSDNdKVtDQF0yKFtDQEBdMTM0KVtDQEhdNVtDQEhdKFtPSF0pW0NIMl1bQ0BIXShOMltDSDJdW0NIMl1bQ0gyXVtDSDJdNSlbQ0BASF00T2M2YzNbY0hdW2NIXVtjSF1bY0hdNg==

>  <s_epik_cmdline>  (149) 
J2VwaWtfcHl0aG9uJywgJy1waHQnLCAnMi4wJywgJy1waCcsICc3LjAnLCAnLXRuJywgJzgnLCAnLW1hJywgJzIwMCcsICctaW1hZScsICc8aW5maWxlLm1hZT4nLCAnLW9tYWUnLCAnPG91dGZpbGUubWFlPic=

>  <r_lp_tautomer_probability>  (149) 
1

>  <r_epik_Ionization_Penalty>  (149) 
0.00220486

>  <r_epik_Ionization_Penalty_Charging>  (149) 
0.0022047

>  <r_epik_Ionization_Penalty_Neutral>  (149) 
1.60453e-07

>  <r_epik_State_Penalty>  (149) 
0.210379

>  <r_epik_Charging_Adjusted_Penalty>  (149) 
0.212584

>  <i_epik_Tot_Q>  (149) 
1

>  <i_epik_Tot_abs_Q>  (149) 
1

>  <s_lp_Force_Field>  (149) 
OPLS3e

>  <r_lp_Energy>  (149) 
78.1991

>  <b_lp_Chiralities_Consistent>  (149) 
1

>  <s_lp_Variant>  (149) 
46:0-1

>  <s_i_glide_gridfile>  (149) 
pfpi4k_grid

>  <i_i_glide_lignum>  (149) 
32

>  <i_i_glide_rotatable_bonds>  (149) 
1

>  <r_i_docking_score>  (149) 
-3.12335

>  <r_i_glide_ligand_efficiency>  (149) 
-0.130139

>  <r_i_glide_ligand_efficiency_sa>  (149) 
-0.375387

>  <r_i_glide_ligand_efficiency_ln>  (149) 
-0.74756

>  <r_i_glide_gscore>  (149) 
-3.12335

>  <r_i_glide_lipo>  (149) 
-0.507659

>  <r_i_glide_hbond>  (149) 
0

>  <r_i_glide_metal>  (149) 
-0

>  <r_i_glide_rewards>  (149) 
-1.17654

>  <r_i_glide_evdw>  (149) 
-19.5126

>  <r_i_glide_ecoul>  (149) 
-2.91587

>  <r_i_glide_erotb>  (149) 
0

>  <r_i_glide_esite>  (149) 
-0.0261346

>  <r_i_glide_emodel>  (149) 
-26.6852

>  <r_i_glide_energy>  (149) 
-22.4285

>  <r_i_glide_einternal>  (149) 
0.329246

>  <r_i_glide_intrahb_reward>  (149) 
-0

>  <i_i_glide_confnum>  (149) 
2

>  <i_i_glide_posenum>  (149) 
13

>  <r_i_glide_eff_state_penalty>  (149) 
0

>  <ligand_id>  (149) 
46

>  <original_smiles>  (149) 
CN1CCC23c4ccccc4OC2C2CC(O)C4CCCCN2C413

>  <smiles>  (149) 
[H]OC1([H])C([H])([H])C2([H])C3([H])Oc4c([H])c([H])c([H])c([H])c4C34C([H])([H])C([H])([H])N(C([H])([H])[H])C43C1([H])C([H])([H])C([H])([H])C([H])([H])C([H])([H])[N+]23[H]

$$$$
46:1:0
     RDKit          3D

 51 56  0  0  1  0  0  0  0  0999 V2000
    2.7653   -0.8307    1.5096 C   0  0  0  0  0  0  0  0  0  0  0  0
    3.3306   -2.1442    1.8738 N   0  0  2  0  0  0  0  0  0  0  0  0
    3.7606   -2.1816    3.3056 C   0  0  0  0  0  0  0  0  0  0  0  0
    4.7810   -3.3405    3.4360 C   0  0  0  0  0  0  0  0  0  0  0  0
    4.5659   -4.0315    2.0994 C   0  0  2  0  0  0  0  0  0  0  0  0
    3.3869   -5.0252    2.2264 C   0  0  0  0  0  0  0  0  0  0  0  0
    2.0445   -4.8252    2.6204 C   0  0  0  0  0  0  0  0  0  0  0  0
    1.1872   -5.9452    2.7172 C   0  0  0  0  0  0  0  0  0  0  0  0
    1.6583   -7.2419    2.4381 C   0  0  0  0  0  0  0  0  0  0  0  0
    2.9986   -7.4385    2.0516 C   0  0  0  0  0  0  0  0  0  0  0  0
    3.8320   -6.3121    1.9385 C   0  0  0  0  0  0  0  0  0  0  0  0
    5.1372   -6.3405    1.5637 O   0  0  0  0  0  0  0  0  0  0  0  0
    5.5718   -4.9853    1.4336 C   0  0  1  0  0  0  0  0  0  0  0  0
    5.4394   -4.5335   -0.0477 C   0  0  2  0  0  0  0  0  0  0  0  0
    6.7457   -3.8127   -0.4172 C   0  0  0  0  0  0  0  0  0  0  0  0
    7.0046   -2.6516    0.5545 C   0  0  1  0  0  0  0  0  0  0  0  0
    8.0597   -1.8503    0.0611 O   0  0  0  0  0  0  0  0  0  0  0  0
    5.7092   -1.8539    0.8795 C   0  0  1  0  0  0  0  0  0  0  0  0
    5.4925   -0.7065   -0.1508 C   0  0  0  0  0  0  0  0  0  0  0  0
    5.2244   -1.1001   -1.6120 C   0  0  0  0  0  0  0  0  0  0  0  0
    3.8629   -1.7581   -1.8306 C   0  0  0  0  0  0  0  0  0  0  0  0
    3.6101   -3.1779   -1.2754 C   0  0  0  0  0  0  0  0  0  0  0  0
    4.2576   -3.6266   -0.0379 N   0  0  0  0  0  0  0  0  0  0  0  0
    4.4449   -2.7968    1.1406 C   0  0  2  0  0  0  0  0  0  0  0  0
    3.4218   -0.0021    1.7609 H   0  0  0  0  0  0  0  0  0  0  0  0
    1.8532   -0.6798    2.0845 H   0  0  0  0  0  0  0  0  0  0  0  0
    2.4862   -0.7756    0.4727 H   0  0  0  0  0  0  0  0  0  0  0  0
    4.2440   -1.2463    3.5902 H   0  0  0  0  0  0  0  0  0  0  0  0
    2.9037   -2.3214    3.9672 H   0  0  0  0  0  0  0  0  0  0  0  0
    5.7966   -2.9399    3.4964 H   0  0  0  0  0  0  0  0  0  0  0  0
    4.6045   -3.9837    4.3035 H   0  0  0  0  0  0  0  0  0  0  0  0
    1.6459   -3.8549    2.8647 H   0  0  0  0  0  0  0  0  0  0  0  0
    0.1640   -5.8124    3.0330 H   0  0  0  0  0  0  0  0  0  0  0  0
    0.9926   -8.0901    2.5291 H   0  0  0  0  0  0  0  0  0  0  0  0
    3.3714   -8.4343    1.8558 H   0  0  0  0  0  0  0  0  0  0  0  0
    6.5768   -4.9123    1.8507 H   0  0  0  0  0  0  0  0  0  0  0  0
    5.2749   -5.3891   -0.7037 H   0  0  0  0  0  0  0  0  0  0  0  0
    7.5781   -4.5121   -0.3235 H   0  0  0  0  0  0  0  0  0  0  0  0
    6.7351   -3.5137   -1.4605 H   0  0  0  0  0  0  0  0  0  0  0  0
    7.3814   -3.0481    1.4953 H   0  0  0  0  0  0  0  0  0  0  0  0
    8.8451   -2.3700   -0.0413 H   0  0  0  0  0  0  0  0  0  0  0  0
    5.9379   -1.3193    1.8011 H   0  0  0  0  0  0  0  0  0  0  0  0
    4.7286   -0.0017    0.1529 H   0  0  0  0  0  0  0  0  0  0  0  0
    6.3784   -0.0764   -0.1277 H   0  0  0  0  0  0  0  0  0  0  0  0
    5.2122   -0.1828   -2.2003 H   0  0  0  0  0  0  0  0  0  0  0  0
    6.0284   -1.6810   -2.0521 H   0  0  0  0  0  0  0  0  0  0  0  0
    3.0884   -1.0823   -1.4795 H   0  0  0  0  0  0  0  0  0  0  0  0
    3.6856   -1.7968   -2.9062 H   0  0  0  0  0  0  0  0  0  0  0  0
    2.5350   -3.2388   -1.0878 H   0  0  0  0  0  0  0  0  0  0  0  0
    3.8104   -3.9127   -2.0536 H   0  0  0  0  0  0  0  0  0  0  0  0
    2.5865   -2.8148    1.7722 H   0  0  0  0  0  0  0  0  0  0  0  0
  1  2  1  0
  1 25  1  0
  1 26  1  0
  1 27  1  0
  2 24  1  0
  2  3  1  0
  2 51  1  1
  3  4  1  0
  3 28  1  0
  3 29  1  0
  5  4  1  1
  4 30  1  0
  4 31  1  0
  5 13  1  0
  5 24  1  0
  5  6  1  0
  6 11  2  0
  6  7  1  0
  7  8  2  0
  7 32  1  0
  8  9  1  0
  8 33  1  0
  9 10  2  0
  9 34  1  0
 10 11  1  0
 10 35  1  0
 11 12  1  0
 12 13  1  0
 13 14  1  0
 13 36  1  1
 14 23  1  0
 14 15  1  0
 14 37  1  6
 15 16  1  0
 15 38  1  0
 15 39  1  0
 16 17  1  0
 16 18  1  0
 16 40  1  1
 17 41  1  0
 18 24  1  0
 18 19  1  0
 18 42  1  1
 19 20  1  0
 19 43  1  0
 19 44  1  0
 20 21  1  0
 20 45  1  0
 20 46  1  0
 21 22  1  0
 21 47  1  0
 21 48  1  0
 22 23  1  0
 22 49  1  0
 22 50  1  0
 24 23  1  6
M  CHG  1   2   1
M  END
>  <i_m_ct_stereo_status>  (150) 
1

>  <s_m_source_file>  (150) 
/var/tmp/pbs.5076255.sched01/tmp1pob34vh/39rbzpz6sd.sdf

>  <i_m_source_file_index>  (150) 
33

>  <i_lp_mmshare_version>  (150) 
48012

>  <i_f3d_flags>  (150) 
0

>  <s_epik_input>  (150) 
W0NIMl0xW0NIMl1OKFtDSDNdKVtDQF0yKFtDQEBdMTM0KVtDQEhdNVtDQEhdKFtPSF0pW0NIMl1bQ0BIXShOMltDSDJdW0NIMl1bQ0gyXVtDSDJdNSlbQ0BASF00T2M2YzNbY0hdW2NIXVtjSF1bY0hdNg==

>  <s_epik_cmdline>  (150) 
J2VwaWtfcHl0aG9uJywgJy1waHQnLCAnMi4wJywgJy1waCcsICc3LjAnLCAnLXRuJywgJzgnLCAnLW1hJywgJzIwMCcsICctaW1hZScsICc8aW5maWxlLm1hZT4nLCAnLW9tYWUnLCAnPG91dGZpbGUubWFlPic=

>  <r_epik_Ionization_Penalty>  (150) 
0.00491911

>  <r_epik_Ionization_Penalty_Charging>  (150) 
0.00491837

>  <r_epik_Ionization_Penalty_Neutral>  (150) 
7.35541e-07

>  <r_epik_State_Penalty>  (150) 
0.719121

>  <r_epik_Charging_Adjusted_Penalty>  (150) 
0.724039

>  <i_epik_Tot_Q>  (150) 
1

>  <i_epik_Tot_abs_Q>  (150) 
1

>  <s_lp_Force_Field>  (150) 
OPLS3e

>  <r_lp_Energy>  (150) 
79.7555

>  <b_lp_Chiralities_Consistent>  (150) 
1

>  <s_lp_Variant>  (150) 
46:0-2

>  <s_i_glide_gridfile>  (150) 
pfpi4k_grid

>  <i_i_glide_lignum>  (150) 
33

>  <i_i_glide_rotatable_bonds>  (150) 
1

>  <r_i_docking_score>  (150) 
-3.50643

>  <r_i_glide_ligand_efficiency>  (150) 
-0.146101

>  <r_i_glide_ligand_efficiency_sa>  (150) 
-0.421429

>  <r_i_glide_ligand_efficiency_ln>  (150) 
-0.839249

>  <r_i_glide_gscore>  (150) 
-3.50643

>  <r_i_glide_lipo>  (150) 
-0.50013

>  <r_i_glide_hbond>  (150) 
-0.0786341

>  <r_i_glide_metal>  (150) 
-0

>  <r_i_glide_rewards>  (150) 
-1.19372

>  <r_i_glide_evdw>  (150) 
-20.0574

>  <r_i_glide_ecoul>  (150) 
-4.8195

>  <r_i_glide_erotb>  (150) 
0

>  <r_i_glide_esite>  (150) 
-0.00815627

>  <r_i_glide_emodel>  (150) 
-30.0597

>  <r_i_glide_energy>  (150) 
-24.8769

>  <r_i_glide_einternal>  (150) 
0.332459

>  <r_i_glide_intrahb_reward>  (150) 
-0

>  <i_i_glide_confnum>  (150) 
1

>  <i_i_glide_posenum>  (150) 
1

>  <r_i_glide_eff_state_penalty>  (150) 
0

>  <ligand_id>  (150) 
46

>  <original_smiles>  (150) 
CN1CCC23c4ccccc4OC2C2CC(O)C4CCCCN2C413

>  <smiles>  (150) 
[H]OC1([H])C([H])([H])C2([H])N3C([H])([H])C([H])([H])C([H])([H])C([H])([H])C1([H])C31C3(c4c([H])c([H])c([H])c([H])c4OC23[H])C([H])([H])C([H])([H])[N+]1([H])C([H])([H])[H]

$$$$
46:1:1
     RDKit          3D

 51 56  0  0  1  0  0  0  0  0999 V2000
    2.0566   -4.9841    2.2008 C   0  0  0  0  0  0  0  0  0  0  0  0
    3.0384   -4.1937    1.4260 N   0  0  2  0  0  0  0  0  0  0  0  0
    4.2546   -4.9965    1.0748 C   0  0  0  0  0  0  0  0  0  0  0  0
    5.3798   -3.9830    0.7645 C   0  0  0  0  0  0  0  0  0  0  0  0
    4.5670   -2.6996    0.6763 C   0  0  2  0  0  0  0  0  0  0  0  0
    4.0120   -2.5517   -0.7592 C   0  0  0  0  0  0  0  0  0  0  0  0
    3.1825   -3.4048   -1.5253 C   0  0  0  0  0  0  0  0  0  0  0  0
    2.8744   -3.0534   -2.8612 C   0  0  0  0  0  0  0  0  0  0  0  0
    3.3919   -1.8705   -3.4350 C   0  0  0  0  0  0  0  0  0  0  0  0
    4.2120   -1.0194   -2.6629 C   0  0  0  0  0  0  0  0  0  0  0  0
    4.4922   -1.3830   -1.3318 C   0  0  0  0  0  0  0  0  0  0  0  0
    5.2543   -0.6618   -0.4633 O   0  0  0  0  0  0  0  0  0  0  0  0
    5.1466   -1.2865    0.8195 C   0  0  1  0  0  0  0  0  0  0  0  0
    4.0206   -0.6099    1.6558 C   0  0  2  0  0  0  0  0  0  0  0  0
    4.5821   -0.3674    3.0633 C   0  0  0  0  0  0  0  0  0  0  0  0
    5.0746   -1.6946    3.6735 C   0  0  1  0  0  0  0  0  0  0  0  0
    5.3899   -1.5097    5.0387 O   0  0  0  0  0  0  0  0  0  0  0  0
    4.1193   -2.8819    3.3839 C   0  0  1  0  0  0  0  0  0  0  0  0
    3.0385   -2.9951    4.5044 C   0  0  0  0  0  0  0  0  0  0  0  0
    2.0350   -1.8416    4.6414 C   0  0  0  0  0  0  0  0  0  0  0  0
    1.0514   -1.7386    3.4766 C   0  0  0  0  0  0  0  0  0  0  0  0
    1.5658   -1.2824    2.0908 C   0  0  0  0  0  0  0  0  0  0  0  0
    2.9236   -1.6147    1.6477 N   0  0  0  0  0  0  0  0  0  0  0  0
    3.5819   -2.8835    1.8819 C   0  0  2  0  0  0  0  0  0  0  0  0
    2.5017   -5.4595    3.0721 H   0  0  0  0  0  0  0  0  0  0  0  0
    1.7120   -5.8026    1.5693 H   0  0  0  0  0  0  0  0  0  0  0  0
    1.1745   -4.4208    2.4871 H   0  0  0  0  0  0  0  0  0  0  0  0
    4.5518   -5.6255    1.9129 H   0  0  0  0  0  0  0  0  0  0  0  0
    4.0510   -5.6556    0.2276 H   0  0  0  0  0  0  0  0  0  0  0  0
    6.0754   -3.9290    1.6051 H   0  0  0  0  0  0  0  0  0  0  0  0
    5.9385   -4.2217   -0.1430 H   0  0  0  0  0  0  0  0  0  0  0  0
    2.7894   -4.3278   -1.1320 H   0  0  0  0  0  0  0  0  0  0  0  0
    2.2453   -3.7057   -3.4529 H   0  0  0  0  0  0  0  0  0  0  0  0
    3.1453   -1.6209   -4.4544 H   0  0  0  0  0  0  0  0  0  0  0  0
    4.6042   -0.1091   -3.0874 H   0  0  0  0  0  0  0  0  0  0  0  0
    6.1328   -1.2654    1.2820 H   0  0  0  0  0  0  0  0  0  0  0  0
    3.7028    0.3266    1.2019 H   0  0  0  0  0  0  0  0  0  0  0  0
    5.4358    0.3083    3.0037 H   0  0  0  0  0  0  0  0  0  0  0  0
    3.8562    0.1551    3.6788 H   0  0  0  0  0  0  0  0  0  0  0  0
    6.0293   -1.9598    3.2235 H   0  0  0  0  0  0  0  0  0  0  0  0
    4.6061   -1.2335    5.4908 H   0  0  0  0  0  0  0  0  0  0  0  0
    4.7321   -3.7727    3.5312 H   0  0  0  0  0  0  0  0  0  0  0  0
    2.4895   -3.9250    4.4596 H   0  0  0  0  0  0  0  0  0  0  0  0
    3.5470   -3.0924    5.4624 H   0  0  0  0  0  0  0  0  0  0  0  0
    1.4463   -2.0486    5.5365 H   0  0  0  0  0  0  0  0  0  0  0  0
    2.5060   -0.8863    4.8563 H   0  0  0  0  0  0  0  0  0  0  0  0
    0.5246   -2.6823    3.3840 H   0  0  0  0  0  0  0  0  0  0  0  0
    0.2633   -1.0445    3.7731 H   0  0  0  0  0  0  0  0  0  0  0  0
    0.9201   -1.7577    1.3542 H   0  0  0  0  0  0  0  0  0  0  0  0
    1.4054   -0.2141    1.9572 H   0  0  0  0  0  0  0  0  0  0  0  0
    2.6066   -3.9461    0.5458 H   0  0  0  0  0  0  0  0  0  0  0  0
  1  2  1  0
  1 25  1  0
  1 26  1  0
  1 27  1  0
  2 24  1  0
  2  3  1  0
  2 51  1  6
  3  4  1  0
  3 28  1  0
  3 29  1  0
  5  4  1  6
  4 30  1  0
  4 31  1  0
  5 13  1  0
  5 24  1  0
  5  6  1  0
  6 11  2  0
  6  7  1  0
  7  8  2  0
  7 32  1  0
  8  9  1  0
  8 33  1  0
  9 10  2  0
  9 34  1  0
 10 11  1  0
 10 35  1  0
 11 12  1  0
 12 13  1  0
 13 14  1  0
 13 36  1  1
 14 23  1  0
 14 15  1  0
 14 37  1  6
 15 16  1  0
 15 38  1  0
 15 39  1  0
 16 17  1  0
 16 18  1  0
 16 40  1  6
 17 41  1  0
 18 24  1  0
 18 19  1  0
 18 42  1  6
 19 20  1  0
 19 43  1  0
 19 44  1  0
 20 21  1  0
 20 45  1  0
 20 46  1  0
 21 22  1  0
 21 47  1  0
 21 48  1  0
 22 23  1  0
 22 49  1  0
 22 50  1  0
 24 23  1  1
M  CHG  1   2   1
M  END
>  <i_m_ct_stereo_status>  (151) 
1

>  <s_m_source_file>  (151) 
/var/tmp/pbs.5076255.sched01/tmp1pob34vh/39rbzpz6sd.sdf

>  <i_m_source_file_index>  (151) 
33

>  <i_lp_mmshare_version>  (151) 
48012

>  <i_f3d_flags>  (151) 
0

>  <s_epik_input>  (151) 
W0NIMl0xW0NIMl1OKFtDSDNdKVtDQF0yKFtDQEBdMTM0KVtDQEhdNVtDQEhdKFtPSF0pW0NIMl1bQ0BIXShOMltDSDJdW0NIMl1bQ0gyXVtDSDJdNSlbQ0BASF00T2M2YzNbY0hdW2NIXVtjSF1bY0hdNg==

>  <s_epik_cmdline>  (151) 
J2VwaWtfcHl0aG9uJywgJy1waHQnLCAnMi4wJywgJy1waCcsICc3LjAnLCAnLXRuJywgJzgnLCAnLW1hJywgJzIwMCcsICctaW1hZScsICc8aW5maWxlLm1hZT4nLCAnLW9tYWUnLCAnPG91dGZpbGUubWFlPic=

>  <r_epik_Ionization_Penalty>  (151) 
0.00491911

>  <r_epik_Ionization_Penalty_Charging>  (151) 
0.00491837

>  <r_epik_Ionization_Penalty_Neutral>  (151) 
7.35541e-07

>  <r_epik_State_Penalty>  (151) 
0.719121

>  <r_epik_Charging_Adjusted_Penalty>  (151) 
0.724039

>  <i_epik_Tot_Q>  (151) 
1

>  <i_epik_Tot_abs_Q>  (151) 
1

>  <s_lp_Force_Field>  (151) 
OPLS3e

>  <r_lp_Energy>  (151) 
79.7555

>  <b_lp_Chiralities_Consistent>  (151) 
1

>  <s_lp_Variant>  (151) 
46:0-2

>  <s_i_glide_gridfile>  (151) 
pfpi4k_grid

>  <i_i_glide_lignum>  (151) 
33

>  <i_i_glide_rotatable_bonds>  (151) 
1

>  <r_i_docking_score>  (151) 
-3.36021

>  <r_i_glide_ligand_efficiency>  (151) 
-0.140009

>  <r_i_glide_ligand_efficiency_sa>  (151) 
-0.403855

>  <r_i_glide_ligand_efficiency_ln>  (151) 
-0.804252

>  <r_i_glide_gscore>  (151) 
-3.36021

>  <r_i_glide_lipo>  (151) 
-0.680117

>  <r_i_glide_hbond>  (151) 
0

>  <r_i_glide_metal>  (151) 
-0

>  <r_i_glide_rewards>  (151) 
-1.17654

>  <r_i_glide_evdw>  (151) 
-21.7604

>  <r_i_glide_ecoul>  (151) 
-2.7466

>  <r_i_glide_erotb>  (151) 
0

>  <r_i_glide_esite>  (151) 
-0.0035367

>  <r_i_glide_emodel>  (151) 
-29.6132

>  <r_i_glide_energy>  (151) 
-24.507

>  <r_i_glide_einternal>  (151) 
0.000339261

>  <r_i_glide_intrahb_reward>  (151) 
-0

>  <i_i_glide_confnum>  (151) 
1

>  <i_i_glide_posenum>  (151) 
31

>  <r_i_glide_eff_state_penalty>  (151) 
0

>  <ligand_id>  (151) 
46

>  <original_smiles>  (151) 
CN1CCC23c4ccccc4OC2C2CC(O)C4CCCCN2C413

>  <smiles>  (151) 
[H]OC1([H])C([H])([H])C2([H])N3C([H])([H])C([H])([H])C([H])([H])C([H])([H])C1([H])C31C3(c4c([H])c([H])c([H])c([H])c4OC23[H])C([H])([H])C([H])([H])[N+]1([H])C([H])([H])[H]

$$$$
46:1:2
     RDKit          3D

 51 56  0  0  1  0  0  0  0  0999 V2000
    2.0474   -5.0131    2.1977 C   0  0  0  0  0  0  0  0  0  0  0  0
    3.0293   -4.2153    1.4328 N   0  0  2  0  0  0  0  0  0  0  0  0
    4.2413   -5.0112    1.0685 C   0  0  0  0  0  0  0  0  0  0  0  0
    5.3686   -3.9962    0.7673 C   0  0  0  0  0  0  0  0  0  0  0  0
    4.5543   -2.7092    0.6943 C   0  0  2  0  0  0  0  0  0  0  0  0
    3.9978   -2.5492   -0.7383 C   0  0  0  0  0  0  0  0  0  0  0  0
    3.1679   -3.3973   -1.5119 C   0  0  0  0  0  0  0  0  0  0  0  0
    2.8596   -3.0343   -2.8430 C   0  0  0  0  0  0  0  0  0  0  0  0
    3.3744   -1.8416   -3.3994 C   0  0  0  0  0  0  0  0  0  0  0  0
    4.1969   -0.9990   -2.6207 C   0  0  0  0  0  0  0  0  0  0  0  0
    4.4796   -1.3749   -1.2961 C   0  0  0  0  0  0  0  0  0  0  0  0
    5.2402   -0.6633   -0.4232 O   0  0  0  0  0  0  0  0  0  0  0  0
    5.1348   -1.2989    0.8529 C   0  0  1  0  0  0  0  0  0  0  0  0
    4.0098   -0.6321    1.6973 C   0  0  2  0  0  0  0  0  0  0  0  0
    4.5766   -0.4075    3.1086 C   0  0  0  0  0  0  0  0  0  0  0  0
    5.0750   -1.7393    3.6971 C   0  0  1  0  0  0  0  0  0  0  0  0
    5.3695   -1.5611    5.0701 O   0  0  0  0  0  0  0  0  0  0  0  0
    4.1175   -2.9213    3.4014 C   0  0  1  0  0  0  0  0  0  0  0  0
    3.0396   -3.0523    4.5231 C   0  0  0  0  0  0  0  0  0  0  0  0
    2.0346   -1.9032    4.6788 C   0  0  0  0  0  0  0  0  0  0  0  0
    1.0474   -1.7843    3.5185 C   0  0  0  0  0  0  0  0  0  0  0  0
    1.5574   -1.3089    2.1368 C   0  0  0  0  0  0  0  0  0  0  0  0
    2.9128   -1.6383    1.6802 N   0  0  0  0  0  0  0  0  0  0  0  0
    3.5699   -2.9100    1.9016 C   0  0  2  0  0  0  0  0  0  0  0  0
    2.4937   -5.4972    3.0632 H   0  0  0  0  0  0  0  0  0  0  0  0
    1.7036   -5.8239    1.5565 H   0  0  0  0  0  0  0  0  0  0  0  0
    1.1667   -4.4522    2.4863 H   0  0  0  0  0  0  0  0  0  0  0  0
    4.5439   -5.6510    1.8965 H   0  0  0  0  0  0  0  0  0  0  0  0
    4.0378   -5.6584    0.2122 H   0  0  0  0  0  0  0  0  0  0  0  0
    6.0669   -3.9502    1.6061 H   0  0  0  0  0  0  0  0  0  0  0  0
    5.9246   -4.2193   -0.1453 H   0  0  0  0  0  0  0  0  0  0  0  0
    2.7712   -4.3224   -1.1277 H   0  0  0  0  0  0  0  0  0  0  0  0
    2.2260   -3.6760   -3.4412 H   0  0  0  0  0  0  0  0  0  0  0  0
    3.1184   -1.5703   -4.4144 H   0  0  0  0  0  0  0  0  0  0  0  0
    4.5801   -0.0776   -3.0318 H   0  0  0  0  0  0  0  0  0  0  0  0
    6.1215   -1.2833    1.3137 H   0  0  0  0  0  0  0  0  0  0  0  0
    3.6916    0.3118    1.2608 H   0  0  0  0  0  0  0  0  0  0  0  0
    5.4249    0.2766    3.0526 H   0  0  0  0  0  0  0  0  0  0  0  0
    3.8515    0.1000    3.7374 H   0  0  0  0  0  0  0  0  0  0  0  0
    6.0310   -1.9993    3.2450 H   0  0  0  0  0  0  0  0  0  0  0  0
    5.9589   -0.8305    5.1679 H   0  0  0  0  0  0  0  0  0  0  0  0
    4.7276   -3.8160    3.5370 H   0  0  0  0  0  0  0  0  0  0  0  0
    2.4919   -3.9817    4.4723 H   0  0  0  0  0  0  0  0  0  0  0  0
    3.5527   -3.1528    5.4793 H   0  0  0  0  0  0  0  0  0  0  0  0
    1.4488   -2.1211    5.5741 H   0  0  0  0  0  0  0  0  0  0  0  0
    2.5104   -0.9533    4.9077 H   0  0  0  0  0  0  0  0  0  0  0  0
    0.5199   -2.7272    3.4156 H   0  0  0  0  0  0  0  0  0  0  0  0
    0.2601   -1.0937    3.8267 H   0  0  0  0  0  0  0  0  0  0  0  0
    0.9069   -1.7743    1.3983 H   0  0  0  0  0  0  0  0  0  0  0  0
    1.3965   -0.2385    2.0190 H   0  0  0  0  0  0  0  0  0  0  0  0
    2.5945   -3.9535    0.5553 H   0  0  0  0  0  0  0  0  0  0  0  0
  1  2  1  0
  1 25  1  0
  1 26  1  0
  1 27  1  0
  2 24  1  0
  2  3  1  0
  2 51  1  6
  3  4  1  0
  3 28  1  0
  3 29  1  0
  5  4  1  6
  4 30  1  0
  4 31  1  0
  5 13  1  0
  5 24  1  0
  5  6  1  0
  6 11  2  0
  6  7  1  0
  7  8  2  0
  7 32  1  0
  8  9  1  0
  8 33  1  0
  9 10  2  0
  9 34  1  0
 10 11  1  0
 10 35  1  0
 11 12  1  0
 12 13  1  0
 13 14  1  0
 13 36  1  1
 14 23  1  0
 14 15  1  0
 14 37  1  6
 15 16  1  0
 15 38  1  0
 15 39  1  0
 16 17  1  0
 16 18  1  0
 16 40  1  6
 17 41  1  0
 18 24  1  0
 18 19  1  0
 18 42  1  6
 19 20  1  0
 19 43  1  0
 19 44  1  0
 20 21  1  0
 20 45  1  0
 20 46  1  0
 21 22  1  0
 21 47  1  0
 21 48  1  0
 22 23  1  0
 22 49  1  0
 22 50  1  0
 24 23  1  1
M  CHG  1   2   1
M  END
>  <i_m_ct_stereo_status>  (152) 
1

>  <s_m_source_file>  (152) 
/var/tmp/pbs.5076255.sched01/tmp1pob34vh/39rbzpz6sd.sdf

>  <i_m_source_file_index>  (152) 
33

>  <i_lp_mmshare_version>  (152) 
48012

>  <i_f3d_flags>  (152) 
0

>  <s_epik_input>  (152) 
W0NIMl0xW0NIMl1OKFtDSDNdKVtDQF0yKFtDQEBdMTM0KVtDQEhdNVtDQEhdKFtPSF0pW0NIMl1bQ0BIXShOMltDSDJdW0NIMl1bQ0gyXVtDSDJdNSlbQ0BASF00T2M2YzNbY0hdW2NIXVtjSF1bY0hdNg==

>  <s_epik_cmdline>  (152) 
J2VwaWtfcHl0aG9uJywgJy1waHQnLCAnMi4wJywgJy1waCcsICc3LjAnLCAnLXRuJywgJzgnLCAnLW1hJywgJzIwMCcsICctaW1hZScsICc8aW5maWxlLm1hZT4nLCAnLW9tYWUnLCAnPG91dGZpbGUubWFlPic=

>  <r_epik_Ionization_Penalty>  (152) 
0.00491911

>  <r_epik_Ionization_Penalty_Charging>  (152) 
0.00491837

>  <r_epik_Ionization_Penalty_Neutral>  (152) 
7.35541e-07

>  <r_epik_State_Penalty>  (152) 
0.719121

>  <r_epik_Charging_Adjusted_Penalty>  (152) 
0.724039

>  <i_epik_Tot_Q>  (152) 
1

>  <i_epik_Tot_abs_Q>  (152) 
1

>  <s_lp_Force_Field>  (152) 
OPLS3e

>  <r_lp_Energy>  (152) 
79.7555

>  <b_lp_Chiralities_Consistent>  (152) 
1

>  <s_lp_Variant>  (152) 
46:0-2

>  <s_i_glide_gridfile>  (152) 
pfpi4k_grid

>  <i_i_glide_lignum>  (152) 
33

>  <i_i_glide_rotatable_bonds>  (152) 
1

>  <r_i_docking_score>  (152) 
-3.26005

>  <r_i_glide_ligand_efficiency>  (152) 
-0.135836

>  <r_i_glide_ligand_efficiency_sa>  (152) 
-0.391818

>  <r_i_glide_ligand_efficiency_ln>  (152) 
-0.780281

>  <r_i_glide_gscore>  (152) 
-3.26005

>  <r_i_glide_lipo>  (152) 
-0.657379

>  <r_i_glide_hbond>  (152) 
0

>  <r_i_glide_metal>  (152) 
-0

>  <r_i_glide_rewards>  (152) 
-1.17654

>  <r_i_glide_evdw>  (152) 
-21.7287

>  <r_i_glide_ecoul>  (152) 
-2.23997

>  <r_i_glide_erotb>  (152) 
0

>  <r_i_glide_esite>  (152) 
-0.00370478

>  <r_i_glide_emodel>  (152) 
-28.7332

>  <r_i_glide_energy>  (152) 
-23.9686

>  <r_i_glide_einternal>  (152) 
0.377255

>  <r_i_glide_intrahb_reward>  (152) 
-0

>  <i_i_glide_confnum>  (152) 
1

>  <i_i_glide_posenum>  (152) 
2

>  <r_i_glide_eff_state_penalty>  (152) 
0

>  <ligand_id>  (152) 
46

>  <original_smiles>  (152) 
CN1CCC23c4ccccc4OC2C2CC(O)C4CCCCN2C413

>  <smiles>  (152) 
[H]OC1([H])C([H])([H])C2([H])N3C([H])([H])C([H])([H])C([H])([H])C([H])([H])C1([H])C31C3(c4c([H])c([H])c([H])c([H])c4OC23[H])C([H])([H])C([H])([H])[N+]1([H])C([H])([H])[H]

$$$$
47:0:0
     RDKit          3D

 69 76  0  0  1  0  0  0  0  0999 V2000
    8.4825   -5.8231    0.7872 C   0  0  0  0  0  0  0  0  0  0  0  0
    7.7918   -5.0645    1.9424 C   0  0  0  0  0  0  0  0  0  0  0  0
    8.2692   -5.7203    3.2796 C   0  0  0  0  0  0  0  0  0  0  0  0
    6.2241   -4.7625    1.8085 C   0  0  2  0  0  0  0  0  0  0  0  0
    5.7916   -4.3241    3.1031 O   0  0  0  0  0  0  0  0  0  0  0  0
    4.3659   -4.3698    3.1821 C   0  0  1  0  0  0  0  0  0  0  0  0
    3.8595   -3.0806    2.5807 C   0  0  0  0  0  0  0  0  0  0  0  0
    4.3020   -2.9693    1.1312 C   0  0  2  0  0  0  0  0  0  0  0  0
    3.1709   -3.1278    0.0449 C   0  0  2  0  0  0  0  0  0  0  0  0
    2.3402   -4.4566    0.0168 C   0  0  0  0  0  0  0  0  0  0  0  0
    1.8546   -5.1310    1.3389 C   0  0  0  0  0  0  0  0  0  0  0  0
    2.7515   -6.1784    1.9816 C   0  0  2  0  0  0  0  0  0  0  0  0
    2.7095   -7.4333    1.3109 O   0  0  0  0  0  0  0  0  0  0  0  0
    2.1987   -7.4587    2.6309 C   0  0  1  0  0  0  0  0  0  0  0  0
    2.8806   -8.5505    3.4711 C   0  0  2  0  0  0  0  0  0  0  0  0
    3.8152   -8.0793    4.4589 O   0  0  0  0  0  0  0  0  0  0  0  0
    4.3462   -9.0070    3.5105 C   0  0  1  0  0  0  0  0  0  0  0  0
    4.6648  -10.3718    4.0817 C   0  0  0  0  0  0  0  0  0  0  0  0
    5.4028   -8.5257    2.5052 C   0  0  0  0  0  0  0  0  0  0  0  0
    5.9225   -9.3267    1.7386 O   0  0  0  0  0  0  0  0  0  0  0  0
    5.8281   -7.1972    2.5725 O   0  0  0  0  0  0  0  0  0  0  0  0
    5.3507   -6.1049    1.7183 C   0  0  2  0  0  0  0  0  0  0  0  0
    5.2334   -6.6020    0.2646 C   0  0  0  0  0  0  0  0  0  0  0  0
    4.0974   -5.6911    2.4777 C   0  0  1  0  0  0  0  0  0  0  0  0
    3.7979   -2.7484   -1.3168 C   0  0  2  0  0  0  0  0  0  0  0  0
    4.0709   -1.2439   -1.4002 C   0  0  0  0  0  0  0  0  0  0  0  0
    3.4728   -3.2667   -2.7282 C   0  0  0  0  0  0  0  0  0  0  0  0
    4.8983   -3.5369   -2.9401 O   0  0  0  0  0  0  0  0  0  0  0  0
    4.9662   -3.6830   -1.5139 C   0  0  1  0  0  0  0  0  0  0  0  0
    6.1933   -3.4763   -0.6610 C   0  0  1  0  0  0  0  0  0  0  0  0
    6.9091   -2.3579   -1.1840 O   0  0  0  0  0  0  0  0  0  0  0  0
    5.8259   -3.4335    0.8946 C   0  0  2  0  0  0  0  0  0  0  0  0
    6.6283   -2.2133    1.4606 C   0  0  0  0  0  0  0  0  0  0  0  0
    8.0820   -6.8286    0.6653 H   0  0  0  0  0  0  0  0  0  0  0  0
    9.5370   -5.9249    1.0259 H   0  0  0  0  0  0  0  0  0  0  0  0
    8.4917   -5.3141   -0.1729 H   0  0  0  0  0  0  0  0  0  0  0  0
    8.3035   -4.1183    1.9470 H   0  0  0  0  0  0  0  0  0  0  0  0
    7.9705   -6.7525    3.4213 H   0  0  0  0  0  0  0  0  0  0  0  0
    7.9616   -5.1925    4.1824 H   0  0  0  0  0  0  0  0  0  0  0  0
    9.3573   -5.7415    3.2966 H   0  0  0  0  0  0  0  0  0  0  0  0
    4.0507   -4.4052    4.2261 H   0  0  0  0  0  0  0  0  0  0  0  0
    2.7869   -2.9556    2.6907 H   0  0  0  0  0  0  0  0  0  0  0  0
    4.2875   -2.2579    3.1637 H   0  0  0  0  0  0  0  0  0  0  0  0
    4.3374   -1.8896    1.1007 H   0  0  0  0  0  0  0  0  0  0  0  0
    2.4302   -2.3612    0.2919 H   0  0  0  0  0  0  0  0  0  0  0  0
    1.4506   -4.2103   -0.5621 H   0  0  0  0  0  0  0  0  0  0  0  0
    2.7695   -5.2100   -0.6179 H   0  0  0  0  0  0  0  0  0  0  0  0
    1.5076   -4.4288    2.0907 H   0  0  0  0  0  0  0  0  0  0  0  0
    0.9708   -5.7140    1.0771 H   0  0  0  0  0  0  0  0  0  0  0  0
    1.1107   -7.5528    2.6436 H   0  0  0  0  0  0  0  0  0  0  0  0
    2.1880   -9.2769    3.8744 H   0  0  0  0  0  0  0  0  0  0  0  0
    4.3801  -11.1440    3.3665 H   0  0  0  0  0  0  0  0  0  0  0  0
    4.0847  -10.5323    4.9887 H   0  0  0  0  0  0  0  0  0  0  0  0
    5.7214  -10.4797    4.3269 H   0  0  0  0  0  0  0  0  0  0  0  0
    4.3010   -6.4008   -0.2255 H   0  0  0  0  0  0  0  0  0  0  0  0
    5.3256   -7.6683    0.1287 H   0  0  0  0  0  0  0  0  0  0  0  0
    6.0319   -6.1624   -0.3068 H   0  0  0  0  0  0  0  0  0  0  0  0
    4.1415   -6.1920    3.4192 H   0  0  0  0  0  0  0  0  0  0  0  0
    4.5347   -0.9933   -2.3600 H   0  0  0  0  0  0  0  0  0  0  0  0
    4.7733   -0.8849   -0.6519 H   0  0  0  0  0  0  0  0  0  0  0  0
    3.1508   -0.6622   -1.3281 H   0  0  0  0  0  0  0  0  0  0  0  0
    2.8341   -4.1404   -2.7637 H   0  0  0  0  0  0  0  0  0  0  0  0
    3.0838   -2.5053   -3.4008 H   0  0  0  0  0  0  0  0  0  0  0  0
    4.6507   -4.6909   -1.3214 H   0  0  0  0  0  0  0  0  0  0  0  0
    6.8933   -4.2595   -0.8416 H   0  0  0  0  0  0  0  0  0  0  0  0
    7.2301   -2.6409   -2.0275 H   0  0  0  0  0  0  0  0  0  0  0  0
    6.3215   -1.2454    1.0620 H   0  0  0  0  0  0  0  0  0  0  0  0
    7.6848   -2.2761    1.2164 H   0  0  0  0  0  0  0  0  0  0  0  0
    6.5294   -2.1142    2.5335 H   0  0  0  0  0  0  0  0  0  0  0  0
  1  2  1  0
  1 34  1  0
  1 35  1  0
  1 36  1  0
  2  3  1  0
  4  2  1  1
  2 37  1  0
  3 38  1  0
  3 39  1  0
  3 40  1  0
  4 22  1  0
  4 32  1  0
  4  5  1  0
  5  6  1  0
  6 24  1  0
  6  7  1  0
  6 41  1  1
  7  8  1  0
  7 42  1  0
  7 43  1  0
  8 32  1  0
  8  9  1  0
  8 44  1  1
  9 10  1  0
  9 25  1  0
  9 45  1  1
 10 11  1  0
 10 46  1  0
 10 47  1  0
 11 12  1  0
 11 48  1  0
 11 49  1  0
 12 14  1  0
 12 24  1  0
 12 13  1  6
 13 14  1  0
 14 15  1  0
 14 50  1  6
 15 17  1  0
 15 16  1  0
 15 51  1  1
 16 17  1  0
 17 18  1  1
 17 19  1  0
 18 52  1  0
 18 53  1  0
 18 54  1  0
 19 20  2  0
 19 21  1  0
 21 22  1  0
 22 23  1  6
 22 24  1  0
 23 55  1  0
 23 56  1  0
 23 57  1  0
 24 58  1  1
 25 29  1  0
 25 26  1  6
 25 27  1  0
 26 59  1  0
 26 60  1  0
 26 61  1  0
 27 28  1  0
 27 62  1  0
 27 63  1  0
 28 29  1  0
 29 30  1  0
 29 64  1  6
 30 31  1  0
 30 32  1  0
 30 65  1  1
 31 66  1  0
 32 33  1  1
 33 67  1  0
 33 68  1  0
 33 69  1  0
M  END
>  <i_m_ct_stereo_status>  (153) 
1

>  <s_m_source_file>  (153) 
/var/tmp/pbs.5076255.sched01/tmp1pob34vh/39rbzpz6sd.sdf

>  <i_m_source_file_index>  (153) 
34

>  <i_lp_mmshare_version>  (153) 
48012

>  <i_f3d_flags>  (153) 
0

>  <s_epik_input>  (153) 
W0NIMl0xT1tDQEBIXShbQ0BIXTJbT0hdKVtDQF0xKFtDSDNdKVtDQEBIXShbQ0gyXVtDSDJdMylbQ0BASF0oW0NIMl1bQ0BIXShPNClbQ0BASF01NilbQ0BAXTIoW0NIM10pW0NAXTQoW0NIXShbQ0gzXSlbQ0gzXSlbQ0BAXTYoW0NIM10pT0MoPU8pW0NAXShPNykoW0NIM10pW0NAQEhdN1tDQEBIXShbQ0BAXTM1OClPOA==

>  <s_epik_cmdline>  (153) 
J2VwaWtfcHl0aG9uJywgJy1waHQnLCAnMi4wJywgJy1waCcsICc3LjAnLCAnLXRuJywgJzgnLCAnLW1hJywgJzIwMCcsICctaW1hZScsICc8aW5maWxlLm1hZT4nLCAnLW9tYWUnLCAnPG91dGZpbGUubWFlPic=

>  <r_lp_tautomer_probability>  (153) 
1

>  <r_epik_Ionization_Penalty>  (153) 
4.83168e-08

>  <r_epik_Ionization_Penalty_Charging>  (153) 
0

>  <r_epik_Ionization_Penalty_Neutral>  (153) 
4.83168e-08

>  <r_epik_State_Penalty>  (153) 
-0

>  <r_epik_Charging_Adjusted_Penalty>  (153) 
0

>  <i_epik_Tot_Q>  (153) 
0

>  <i_epik_Tot_abs_Q>  (153) 
0

>  <s_epik_Chemistry_Notes>  (153) 
This compound has an ester and may undergo hydrolysis at high or low pH.

>  <s_lp_Force_Field>  (153) 
OPLS3e

>  <r_lp_Energy>  (153) 
163.511

>  <b_lp_Chiralities_Consistent>  (153) 
1

>  <s_lp_Variant>  (153) 
47:0-1

>  <s_i_glide_gridfile>  (153) 
pfpi4k_grid

>  <i_i_glide_lignum>  (153) 
34

>  <i_i_glide_rotatable_bonds>  (153) 
2

>  <r_i_docking_score>  (153) 
-2.25786

>  <r_i_glide_ligand_efficiency>  (153) 
-0.06842

>  <r_i_glide_ligand_efficiency_sa>  (153) 
-0.21946

>  <r_i_glide_ligand_efficiency_ln>  (153) 
-0.502137

>  <r_i_glide_gscore>  (153) 
-2.25786

>  <r_i_glide_lipo>  (153) 
-0.508482

>  <r_i_glide_hbond>  (153) 
0

>  <r_i_glide_metal>  (153) 
-0

>  <r_i_glide_rewards>  (153) 
-0.26891

>  <r_i_glide_evdw>  (153) 
-15.6469

>  <r_i_glide_ecoul>  (153) 
-4.64911

>  <r_i_glide_erotb>  (153) 
0

>  <r_i_glide_esite>  (153) 
-0.0007586

>  <r_i_glide_emodel>  (153) 
-20.7764

>  <r_i_glide_energy>  (153) 
-20.296

>  <r_i_glide_einternal>  (153) 
1.13701

>  <r_i_glide_intrahb_reward>  (153) 
-0

>  <i_i_glide_confnum>  (153) 
1

>  <i_i_glide_posenum>  (153) 
17

>  <r_i_glide_eff_state_penalty>  (153) 
0

>  <ligand_id>  (153) 
47

>  <original_smiles>  (153) 
CC(C)C12OC3CC4C(CCC56OC5C5OC5(C)C(=O)OC1(C)C36)C1(C)COC1C(O)C42C

>  <smiles>  (153) 
[H]OC1([H])C2([H])OC([H])([H])C2(C([H])([H])[H])C2([H])C([H])([H])C([H])([H])C34OC3([H])C3([H])OC3(C([H])([H])[H])C(=O)OC3(C([H])([H])[H])C4([H])C4([H])OC3(C([H])(C([H])([H])[H])C([H])([H])[H])C1(C([H])([H])[H])C2([H])C4([H])[H]

$$$$
47:0:1
     RDKit          3D

 69 76  0  0  1  0  0  0  0  0999 V2000
    8.4412   -5.8404    0.7938 C   0  0  0  0  0  0  0  0  0  0  0  0
    7.7372   -5.1086    1.9532 C   0  0  0  0  0  0  0  0  0  0  0  0
    8.1939   -5.8018    3.2742 C   0  0  0  0  0  0  0  0  0  0  0  0
    6.1776   -4.7773    1.7953 C   0  0  2  0  0  0  0  0  0  0  0  0
    5.7476   -4.3029    3.0834 O   0  0  0  0  0  0  0  0  0  0  0  0
    4.3197   -4.3193    3.1456 C   0  0  1  0  0  0  0  0  0  0  0  0
    3.8389   -3.0251    2.5198 C   0  0  0  0  0  0  0  0  0  0  0  0
    4.2976   -2.9473    1.0706 C   0  0  2  0  0  0  0  0  0  0  0  0
    3.1669   -3.0940   -0.0181 C   0  0  2  0  0  0  0  0  0  0  0  0
    2.3223   -4.4074   -0.0429 C   0  0  0  0  0  0  0  0  0  0  0  0
    1.8286   -5.0538    1.2896 C   0  0  0  0  0  0  0  0  0  0  0  0
    2.6844   -6.1154    1.9482 C   0  0  2  0  0  0  0  0  0  0  0  0
    2.6039   -7.3736    1.2844 O   0  0  0  0  0  0  0  0  0  0  0  0
    2.0886   -7.3680    2.6113 C   0  0  1  0  0  0  0  0  0  0  0  0
    2.7341   -8.4701    3.4841 C   0  0  2  0  0  0  0  0  0  0  0  0
    3.6705   -8.0066    4.4676 O   0  0  0  0  0  0  0  0  0  0  0  0
    4.1823   -8.9548    3.5381 C   0  0  1  0  0  0  0  0  0  0  0  0
    4.4868  -10.3115    4.1319 C   0  0  0  0  0  0  0  0  0  0  0  0
    5.2613   -8.5095    2.5379 C   0  0  0  0  0  0  0  0  0  0  0  0
    5.7665   -9.3179    1.7786 O   0  0  0  0  0  0  0  0  0  0  0  0
    5.7215   -7.1830    2.5995 O   0  0  0  0  0  0  0  0  0  0  0  0
    5.2753   -6.1032    1.7167 C   0  0  2  0  0  0  0  0  0  0  0  0
    5.1503   -6.6153    0.2708 C   0  0  0  0  0  0  0  0  0  0  0  0
    4.0246   -5.6485    2.4620 C   0  0  1  0  0  0  0  0  0  0  0  0
    3.8073   -2.7480   -1.3777 C   0  0  2  0  0  0  0  0  0  0  0  0
    4.0943   -1.2493   -1.4859 C   0  0  0  0  0  0  0  0  0  0  0  0
    3.4880   -3.2763   -2.7858 C   0  0  0  0  0  0  0  0  0  0  0  0
    4.9093   -3.5704   -2.9761 O   0  0  0  0  0  0  0  0  0  0  0  0
    4.9633   -3.7032   -1.5536 C   0  0  1  0  0  0  0  0  0  0  0  0
    6.1911   -3.4947   -0.6953 C   0  0  1  0  0  0  0  0  0  0  0  0
    6.8173   -2.3089   -1.1773 O   0  0  0  0  0  0  0  0  0  0  0  0
    5.8068   -3.4503    0.8577 C   0  0  2  0  0  0  0  0  0  0  0  0
    6.6276   -2.2483    1.4220 C   0  0  0  0  0  0  0  0  0  0  0  0
    8.0201   -6.8316    0.6294 H   0  0  0  0  0  0  0  0  0  0  0  0
    9.4771   -5.9976    1.0762 H   0  0  0  0  0  0  0  0  0  0  0  0
    8.5060   -5.3052   -0.1516 H   0  0  0  0  0  0  0  0  0  0  0  0
    8.2531   -4.1653    1.9919 H   0  0  0  0  0  0  0  0  0  0  0  0
    7.9255   -6.8480    3.3661 H   0  0  0  0  0  0  0  0  0  0  0  0
    7.8550   -5.3173    4.1850 H   0  0  0  0  0  0  0  0  0  0  0  0
    9.2803   -5.7809    3.3136 H   0  0  0  0  0  0  0  0  0  0  0  0
    3.9902   -4.3308    4.1844 H   0  0  0  0  0  0  0  0  0  0  0  0
    2.7634   -2.8796    2.6210 H   0  0  0  0  0  0  0  0  0  0  0  0
    4.2750   -2.1944    3.0898 H   0  0  0  0  0  0  0  0  0  0  0  0
    4.3479   -1.8659    1.0270 H   0  0  0  0  0  0  0  0  0  0  0  0
    2.4370   -2.3141    0.2172 H   0  0  0  0  0  0  0  0  0  0  0  0
    1.4297   -4.1667   -0.6297 H   0  0  0  0  0  0  0  0  0  0  0  0
    2.7513   -5.1710   -0.6656 H   0  0  0  0  0  0  0  0  0  0  0  0
    1.4961   -4.3461    2.0508 H   0  0  0  0  0  0  0  0  0  0  0  0
    0.9541   -5.6484    1.0217 H   0  0  0  0  0  0  0  0  0  0  0  0
    0.9982   -7.4163    2.6471 H   0  0  0  0  0  0  0  0  0  0  0  0
    2.0186   -9.1781    3.8778 H   0  0  0  0  0  0  0  0  0  0  0  0
    4.2019  -11.0961    3.4317 H   0  0  0  0  0  0  0  0  0  0  0  0
    3.9020  -10.4453    5.0375 H   0  0  0  0  0  0  0  0  0  0  0  0
    5.5376  -10.4195    4.3843 H   0  0  0  0  0  0  0  0  0  0  0  0
    4.2356   -6.4040   -0.2372 H   0  0  0  0  0  0  0  0  0  0  0  0
    5.2125   -7.6810    0.1484 H   0  0  0  0  0  0  0  0  0  0  0  0
    5.9627   -6.1887   -0.2858 H   0  0  0  0  0  0  0  0  0  0  0  0
    4.0456   -6.1302    3.4194 H   0  0  0  0  0  0  0  0  0  0  0  0
    4.5755   -1.0222   -2.4487 H   0  0  0  0  0  0  0  0  0  0  0  0
    4.7819   -0.8829   -0.7254 H   0  0  0  0  0  0  0  0  0  0  0  0
    3.1822   -0.6745   -1.4348 H   0  0  0  0  0  0  0  0  0  0  0  0
    2.8423   -4.1453   -2.8215 H   0  0  0  0  0  0  0  0  0  0  0  0
    3.1207   -2.5181   -3.4850 H   0  0  0  0  0  0  0  0  0  0  0  0
    4.6289   -4.7011   -1.3473 H   0  0  0  0  0  0  0  0  0  0  0  0
    6.9442   -4.2482   -0.8603 H   0  0  0  0  0  0  0  0  0  0  0  0
    6.1165   -1.6988   -1.3456 H   0  0  0  0  0  0  0  0  0  0  0  0
    6.3511   -1.2754    1.0060 H   0  0  0  0  0  0  0  0  0  0  0  0
    7.6785   -2.3611    1.1741 H   0  0  0  0  0  0  0  0  0  0  0  0
    6.5273   -2.1268    2.4923 H   0  0  0  0  0  0  0  0  0  0  0  0
  1  2  1  0
  1 34  1  0
  1 35  1  0
  1 36  1  0
  2  3  1  0
  4  2  1  1
  2 37  1  0
  3 38  1  0
  3 39  1  0
  3 40  1  0
  4 22  1  0
  4 32  1  0
  4  5  1  0
  5  6  1  0
  6 24  1  0
  6  7  1  0
  6 41  1  1
  7  8  1  0
  7 42  1  0
  7 43  1  0
  8 32  1  0
  8  9  1  0
  8 44  1  1
  9 10  1  0
  9 25  1  0
  9 45  1  1
 10 11  1  0
 10 46  1  0
 10 47  1  0
 11 12  1  0
 11 48  1  0
 11 49  1  0
 12 14  1  0
 12 24  1  0
 12 13  1  6
 13 14  1  0
 14 15  1  0
 14 50  1  6
 15 17  1  0
 15 16  1  0
 15 51  1  1
 16 17  1  0
 17 18  1  1
 17 19  1  0
 18 52  1  0
 18 53  1  0
 18 54  1  0
 19 20  2  0
 19 21  1  0
 21 22  1  0
 22 23  1  6
 22 24  1  0
 23 55  1  0
 23 56  1  0
 23 57  1  0
 24 58  1  1
 25 29  1  0
 25 26  1  6
 25 27  1  0
 26 59  1  0
 26 60  1  0
 26 61  1  0
 27 28  1  0
 27 62  1  0
 27 63  1  0
 28 29  1  0
 29 30  1  0
 29 64  1  6
 30 31  1  0
 30 32  1  0
 30 65  1  1
 31 66  1  0
 32 33  1  1
 33 67  1  0
 33 68  1  0
 33 69  1  0
M  END
>  <i_m_ct_stereo_status>  (154) 
1

>  <s_m_source_file>  (154) 
/var/tmp/pbs.5076255.sched01/tmp1pob34vh/39rbzpz6sd.sdf

>  <i_m_source_file_index>  (154) 
34

>  <i_lp_mmshare_version>  (154) 
48012

>  <i_f3d_flags>  (154) 
0

>  <s_epik_input>  (154) 
W0NIMl0xT1tDQEBIXShbQ0BIXTJbT0hdKVtDQF0xKFtDSDNdKVtDQEBIXShbQ0gyXVtDSDJdMylbQ0BASF0oW0NIMl1bQ0BIXShPNClbQ0BASF01NilbQ0BAXTIoW0NIM10pW0NAXTQoW0NIXShbQ0gzXSlbQ0gzXSlbQ0BAXTYoW0NIM10pT0MoPU8pW0NAXShPNykoW0NIM10pW0NAQEhdN1tDQEBIXShbQ0BAXTM1OClPOA==

>  <s_epik_cmdline>  (154) 
J2VwaWtfcHl0aG9uJywgJy1waHQnLCAnMi4wJywgJy1waCcsICc3LjAnLCAnLXRuJywgJzgnLCAnLW1hJywgJzIwMCcsICctaW1hZScsICc8aW5maWxlLm1hZT4nLCAnLW9tYWUnLCAnPG91dGZpbGUubWFlPic=

>  <r_lp_tautomer_probability>  (154) 
1

>  <r_epik_Ionization_Penalty>  (154) 
4.83168e-08

>  <r_epik_Ionization_Penalty_Charging>  (154) 
0

>  <r_epik_Ionization_Penalty_Neutral>  (154) 
4.83168e-08

>  <r_epik_State_Penalty>  (154) 
-0

>  <r_epik_Charging_Adjusted_Penalty>  (154) 
0

>  <i_epik_Tot_Q>  (154) 
0

>  <i_epik_Tot_abs_Q>  (154) 
0

>  <s_epik_Chemistry_Notes>  (154) 
This compound has an ester and may undergo hydrolysis at high or low pH.

>  <s_lp_Force_Field>  (154) 
OPLS3e

>  <r_lp_Energy>  (154) 
163.511

>  <b_lp_Chiralities_Consistent>  (154) 
1

>  <s_lp_Variant>  (154) 
47:0-1

>  <s_i_glide_gridfile>  (154) 
pfpi4k_grid

>  <i_i_glide_lignum>  (154) 
34

>  <i_i_glide_rotatable_bonds>  (154) 
2

>  <r_i_docking_score>  (154) 
-2.19046

>  <r_i_glide_ligand_efficiency>  (154) 
-0.0663776

>  <r_i_glide_ligand_efficiency_sa>  (154) 
-0.212908

>  <r_i_glide_ligand_efficiency_ln>  (154) 
-0.487147

>  <r_i_glide_gscore>  (154) 
-2.19046

>  <r_i_glide_lipo>  (154) 
-0.507728

>  <r_i_glide_hbond>  (154) 
0

>  <r_i_glide_metal>  (154) 
-0

>  <r_i_glide_rewards>  (154) 
-0.26891

>  <r_i_glide_evdw>  (154) 
-17.8107

>  <r_i_glide_ecoul>  (154) 
-3.47736

>  <r_i_glide_erotb>  (154) 
0

>  <r_i_glide_esite>  (154) 
-0.00168407

>  <r_i_glide_emodel>  (154) 
-20.876

>  <r_i_glide_energy>  (154) 
-21.288

>  <r_i_glide_einternal>  (154) 
1.36636

>  <r_i_glide_intrahb_reward>  (154) 
-0

>  <i_i_glide_confnum>  (154) 
1

>  <i_i_glide_posenum>  (154) 
38

>  <r_i_glide_eff_state_penalty>  (154) 
0

>  <ligand_id>  (154) 
47

>  <original_smiles>  (154) 
CC(C)C12OC3CC4C(CCC56OC5C5OC5(C)C(=O)OC1(C)C36)C1(C)COC1C(O)C42C

>  <smiles>  (154) 
[H]OC1([H])C2([H])OC([H])([H])C2(C([H])([H])[H])C2([H])C([H])([H])C([H])([H])C34OC3([H])C3([H])OC3(C([H])([H])[H])C(=O)OC3(C([H])([H])[H])C4([H])C4([H])OC3(C([H])(C([H])([H])[H])C([H])([H])[H])C1(C([H])([H])[H])C2([H])C4([H])[H]

$$$$
47:0:2
     RDKit          3D

 69 76  0  0  1  0  0  0  0  0999 V2000
    5.3186   -3.1268    6.1324 C   0  0  0  0  0  0  0  0  0  0  0  0
    3.9736   -2.5851    5.6035 C   0  0  0  0  0  0  0  0  0  0  0  0
    2.8709   -2.8872    6.6477 C   0  0  0  0  0  0  0  0  0  0  0  0
    3.5919   -2.9483    4.1035 C   0  0  2  0  0  0  0  0  0  0  0  0
    2.1681   -2.7905    4.0019 O   0  0  0  0  0  0  0  0  0  0  0  0
    1.7011   -3.3929    2.8002 C   0  0  1  0  0  0  0  0  0  0  0  0
    1.9037   -2.3732    1.6998 C   0  0  0  0  0  0  0  0  0  0  0  0
    3.3648   -2.0304    1.5642 C   0  0  2  0  0  0  0  0  0  0  0  0
    4.0748   -2.6041    0.2715 C   0  0  2  0  0  0  0  0  0  0  0  0
    4.0849   -4.1510    0.0103 C   0  0  0  0  0  0  0  0  0  0  0  0
    2.8180   -5.0058    0.2836 C   0  0  0  0  0  0  0  0  0  0  0  0
    2.6743   -5.6379    1.6581 C   0  0  2  0  0  0  0  0  0  0  0  0
    3.5217   -6.7803    1.8433 O   0  0  0  0  0  0  0  0  0  0  0  0
    2.1262   -7.0720    1.8472 C   0  0  1  0  0  0  0  0  0  0  0  0
    1.7029   -7.8194    3.1229 C   0  0  2  0  0  0  0  0  0  0  0  0
    0.9465   -7.0547    4.0834 O   0  0  0  0  0  0  0  0  0  0  0  0
    2.1511   -7.6467    4.5739 C   0  0  1  0  0  0  0  0  0  0  0  0
    1.9446   -8.8134    5.5275 C   0  0  0  0  0  0  0  0  0  0  0  0
    3.3333   -6.7454    4.9864 C   0  0  0  0  0  0  0  0  0  0  0  0
    4.3411   -7.2594    5.4644 O   0  0  0  0  0  0  0  0  0  0  0  0
    3.1878   -5.3582    4.9143 O   0  0  0  0  0  0  0  0  0  0  0  0
    3.6819   -4.5196    3.8178 C   0  0  2  0  0  0  0  0  0  0  0  0
    5.1217   -4.9731    3.4247 C   0  0  0  0  0  0  0  0  0  0  0  0
    2.5259   -4.6803    2.8204 C   0  0  1  0  0  0  0  0  0  0  0  0
    5.4711   -1.9617    0.2165 C   0  0  2  0  0  0  0  0  0  0  0  0
    5.3797   -0.4627   -0.1060 C   0  0  0  0  0  0  0  0  0  0  0  0
    6.7716   -2.5456   -0.3613 C   0  0  0  0  0  0  0  0  0  0  0  0
    7.4394   -2.1652    0.8792 O   0  0  0  0  0  0  0  0  0  0  0  0
    6.1568   -2.3415    1.5071 C   0  0  1  0  0  0  0  0  0  0  0  0
    5.6752   -1.7135    2.8066 C   0  0  1  0  0  0  0  0  0  0  0  0
    6.1294   -0.3708    2.8350 O   0  0  0  0  0  0  0  0  0  0  0  0
    4.0961   -1.8483    2.9855 C   0  0  2  0  0  0  0  0  0  0  0  0
    3.5713   -0.4355    3.4652 C   0  0  0  0  0  0  0  0  0  0  0  0
    5.3374   -4.2149    6.1570 H   0  0  0  0  0  0  0  0  0  0  0  0
    5.4861   -2.7772    7.1502 H   0  0  0  0  0  0  0  0  0  0  0  0
    6.1857   -2.7851    5.5792 H   0  0  0  0  0  0  0  0  0  0  0  0
    4.0644   -1.5116    5.6928 H   0  0  0  0  0  0  0  0  0  0  0  0
    2.6469   -3.9460    6.7549 H   0  0  0  0  0  0  0  0  0  0  0  0
    1.9394   -2.3672    6.4179 H   0  0  0  0  0  0  0  0  0  0  0  0
    3.1838   -2.5450    7.6346 H   0  0  0  0  0  0  0  0  0  0  0  0
    0.6334   -3.5974    2.8875 H   0  0  0  0  0  0  0  0  0  0  0  0
    1.5198   -2.6504    0.7289 H   0  0  0  0  0  0  0  0  0  0  0  0
    1.3340   -1.4815    1.9743 H   0  0  0  0  0  0  0  0  0  0  0  0
    3.2182   -1.0220    1.1926 H   0  0  0  0  0  0  0  0  0  0  0  0
    3.5021   -2.2077   -0.5721 H   0  0  0  0  0  0  0  0  0  0  0  0
    4.2766   -4.2505   -1.0601 H   0  0  0  0  0  0  0  0  0  0  0  0
    4.9475   -4.6561    0.4258 H   0  0  0  0  0  0  0  0  0  0  0  0
    1.8987   -4.5240   -0.0365 H   0  0  0  0  0  0  0  0  0  0  0  0
    2.9015   -5.8724   -0.3578 H   0  0  0  0  0  0  0  0  0  0  0  0
    1.8138   -7.5859    0.9414 H   0  0  0  0  0  0  0  0  0  0  0  0
    1.2408   -8.7828    2.9092 H   0  0  0  0  0  0  0  0  0  0  0  0
    2.6700   -9.6004    5.3150 H   0  0  0  0  0  0  0  0  0  0  0  0
    0.9523   -9.2423    5.3803 H   0  0  0  0  0  0  0  0  0  0  0  0
    2.0387   -8.5184    6.5737 H   0  0  0  0  0  0  0  0  0  0  0  0
    5.2438   -5.1470    2.3708 H   0  0  0  0  0  0  0  0  0  0  0  0
    5.4711   -5.8964    3.8697 H   0  0  0  0  0  0  0  0  0  0  0  0
    5.8653   -4.2577    3.7398 H   0  0  0  0  0  0  0  0  0  0  0  0
    1.7366   -5.1641    3.3548 H   0  0  0  0  0  0  0  0  0  0  0  0
    6.3748   -0.0108   -0.0774 H   0  0  0  0  0  0  0  0  0  0  0  0
    4.8131    0.1179    0.6202 H   0  0  0  0  0  0  0  0  0  0  0  0
    4.9544   -0.2815   -1.0979 H   0  0  0  0  0  0  0  0  0  0  0  0
    6.7823   -3.6256   -0.5292 H   0  0  0  0  0  0  0  0  0  0  0  0
    7.1584   -2.0091   -1.2342 H   0  0  0  0  0  0  0  0  0  0  0  0
    6.0806   -3.4047    1.6573 H   0  0  0  0  0  0  0  0  0  0  0  0
    6.1746   -2.1934    3.6271 H   0  0  0  0  0  0  0  0  0  0  0  0
    7.0211   -0.3506    2.5121 H   0  0  0  0  0  0  0  0  0  0  0  0
    3.6802    0.3408    2.7033 H   0  0  0  0  0  0  0  0  0  0  0  0
    4.1101   -0.0253    4.3173 H   0  0  0  0  0  0  0  0  0  0  0  0
    2.5134   -0.4331    3.7261 H   0  0  0  0  0  0  0  0  0  0  0  0
  1  2  1  0
  1 34  1  0
  1 35  1  0
  1 36  1  0
  2  3  1  0
  4  2  1  1
  2 37  1  0
  3 38  1  0
  3 39  1  0
  3 40  1  0
  4 22  1  0
  4 32  1  0
  4  5  1  0
  5  6  1  0
  6 24  1  0
  6  7  1  0
  6 41  1  1
  7  8  1  0
  7 42  1  0
  7 43  1  0
  8 32  1  0
  8  9  1  0
  8 44  1  6
  9 10  1  0
  9 25  1  0
  9 45  1  6
 10 11  1  0
 10 46  1  0
 10 47  1  0
 11 12  1  0
 11 48  1  0
 11 49  1  0
 12 14  1  0
 12 24  1  0
 12 13  1  1
 13 14  1  0
 14 15  1  0
 14 50  1  6
 15 17  1  0
 15 16  1  0
 15 51  1  6
 16 17  1  0
 17 18  1  1
 17 19  1  0
 18 52  1  0
 18 53  1  0
 18 54  1  0
 19 20  2  0
 19 21  1  0
 21 22  1  0
 22 23  1  6
 22 24  1  0
 23 55  1  0
 23 56  1  0
 23 57  1  0
 24 58  1  1
 25 29  1  0
 25 26  1  1
 25 27  1  0
 26 59  1  0
 26 60  1  0
 26 61  1  0
 27 28  1  0
 27 62  1  0
 27 63  1  0
 28 29  1  0
 29 30  1  0
 29 64  1  1
 30 31  1  0
 30 32  1  0
 30 65  1  1
 31 66  1  0
 32 33  1  1
 33 67  1  0
 33 68  1  0
 33 69  1  0
M  END
>  <i_m_ct_stereo_status>  (155) 
1

>  <s_m_source_file>  (155) 
/var/tmp/pbs.5076255.sched01/tmp1pob34vh/39rbzpz6sd.sdf

>  <i_m_source_file_index>  (155) 
34

>  <i_lp_mmshare_version>  (155) 
48012

>  <i_f3d_flags>  (155) 
0

>  <s_epik_input>  (155) 
W0NIMl0xT1tDQEBIXShbQ0BIXTJbT0hdKVtDQF0xKFtDSDNdKVtDQEBIXShbQ0gyXVtDSDJdMylbQ0BASF0oW0NIMl1bQ0BIXShPNClbQ0BASF01NilbQ0BAXTIoW0NIM10pW0NAXTQoW0NIXShbQ0gzXSlbQ0gzXSlbQ0BAXTYoW0NIM10pT0MoPU8pW0NAXShPNykoW0NIM10pW0NAQEhdN1tDQEBIXShbQ0BAXTM1OClPOA==

>  <s_epik_cmdline>  (155) 
J2VwaWtfcHl0aG9uJywgJy1waHQnLCAnMi4wJywgJy1waCcsICc3LjAnLCAnLXRuJywgJzgnLCAnLW1hJywgJzIwMCcsICctaW1hZScsICc8aW5maWxlLm1hZT4nLCAnLW9tYWUnLCAnPG91dGZpbGUubWFlPic=

>  <r_lp_tautomer_probability>  (155) 
1

>  <r_epik_Ionization_Penalty>  (155) 
4.83168e-08

>  <r_epik_Ionization_Penalty_Charging>  (155) 
0

>  <r_epik_Ionization_Penalty_Neutral>  (155) 
4.83168e-08

>  <r_epik_State_Penalty>  (155) 
-0

>  <r_epik_Charging_Adjusted_Penalty>  (155) 
0

>  <i_epik_Tot_Q>  (155) 
0

>  <i_epik_Tot_abs_Q>  (155) 
0

>  <s_epik_Chemistry_Notes>  (155) 
This compound has an ester and may undergo hydrolysis at high or low pH.

>  <s_lp_Force_Field>  (155) 
OPLS3e

>  <r_lp_Energy>  (155) 
163.511

>  <b_lp_Chiralities_Consistent>  (155) 
1

>  <s_lp_Variant>  (155) 
47:0-1

>  <s_i_glide_gridfile>  (155) 
pfpi4k_grid

>  <i_i_glide_lignum>  (155) 
34

>  <i_i_glide_rotatable_bonds>  (155) 
2

>  <r_i_docking_score>  (155) 
-1.64289

>  <r_i_glide_ligand_efficiency>  (155) 
-0.0497845

>  <r_i_glide_ligand_efficiency_sa>  (155) 
-0.159685

>  <r_i_glide_ligand_efficiency_ln>  (155) 
-0.36537

>  <r_i_glide_gscore>  (155) 
-1.64289

>  <r_i_glide_lipo>  (155) 
-0.234105

>  <r_i_glide_hbond>  (155) 
0

>  <r_i_glide_metal>  (155) 
-0

>  <r_i_glide_rewards>  (155) 
-0.26891

>  <r_i_glide_evdw>  (155) 
-13.257

>  <r_i_glide_ecoul>  (155) 
-3.18015

>  <r_i_glide_erotb>  (155) 
0

>  <r_i_glide_esite>  (155) 
0

>  <r_i_glide_emodel>  (155) 
-16.9678

>  <r_i_glide_energy>  (155) 
-16.4372

>  <r_i_glide_einternal>  (155) 
0.547673

>  <r_i_glide_intrahb_reward>  (155) 
-0

>  <i_i_glide_confnum>  (155) 
2

>  <i_i_glide_posenum>  (155) 
18

>  <r_i_glide_eff_state_penalty>  (155) 
0

>  <ligand_id>  (155) 
47

>  <original_smiles>  (155) 
CC(C)C12OC3CC4C(CCC56OC5C5OC5(C)C(=O)OC1(C)C36)C1(C)COC1C(O)C42C

>  <smiles>  (155) 
[H]OC1([H])C2([H])OC([H])([H])C2(C([H])([H])[H])C2([H])C([H])([H])C([H])([H])C34OC3([H])C3([H])OC3(C([H])([H])[H])C(=O)OC3(C([H])([H])[H])C4([H])C4([H])OC3(C([H])(C([H])([H])[H])C([H])([H])[H])C1(C([H])([H])[H])C2([H])C4([H])[H]

$$$$
48:0:0
     RDKit          3D

 35 37  0  0  1  0  0  0  0  0999 V2000
    1.0112   -0.3884    2.3847 C   0  0  0  0  0  0  0  0  0  0  0  0
    2.1606   -1.1912    2.1685 O   0  0  0  0  0  0  0  0  0  0  0  0
    3.2779   -0.6471    1.6255 C   0  0  0  0  0  0  0  0  0  0  0  0
    3.3615    0.5307    1.2752 O   0  0  0  0  0  0  0  0  0  0  0  0
    4.3970   -1.6157    1.4728 C   0  0  0  0  0  0  0  0  0  0  0  0
    4.7180   -2.5338    2.4582 C   0  0  0  0  0  0  0  0  0  0  0  0
    4.0583   -2.6872    3.8208 C   0  0  0  0  0  0  0  0  0  0  0  0
    5.7380   -3.4716    2.3159 O   0  0  0  0  0  0  0  0  0  0  0  0
    6.1437   -3.8071    0.9871 C   0  0  2  0  0  0  0  0  0  0  0  0
    7.6279   -3.9868    0.6753 C   0  0  0  0  0  0  0  0  0  0  0  0
    7.4501   -2.8040   -0.2911 C   0  0  0  0  0  0  0  0  0  0  0  0
    8.1523   -2.2516   -1.1183 O   0  0  0  0  0  0  0  0  0  0  0  0
    6.1635   -2.6093    0.1768 N   0  0  0  0  0  0  0  0  0  0  0  0
    5.1126   -1.5947    0.1106 C   0  0  1  0  0  0  0  0  0  0  0  0
    4.2254   -1.9183   -1.0905 C   0  0  0  0  0  0  0  0  0  0  0  0
    4.2756   -1.2033   -2.2285 N   0  0  0  0  0  0  0  0  0  0  0  0
    3.3530   -1.8140   -3.0638 C   0  0  0  0  0  0  0  0  0  0  0  0
    2.8305   -2.9191   -2.4358 C   0  0  0  0  0  0  0  0  0  0  0  0
    3.3681   -2.9758   -1.1476 N   0  0  0  0  0  0  0  0  0  0  0  0
    3.0368   -4.0150   -0.1640 C   0  0  0  0  0  0  0  0  0  0  0  0
    0.2342   -0.9863    2.8585 H   0  0  0  0  0  0  0  0  0  0  0  0
    0.6167   -0.0060    1.4438 H   0  0  0  0  0  0  0  0  0  0  0  0
    1.2284    0.4530    3.0440 H   0  0  0  0  0  0  0  0  0  0  0  0
    3.5523   -1.7849    4.1625 H   0  0  0  0  0  0  0  0  0  0  0  0
    4.8480   -2.9188    4.5325 H   0  0  0  0  0  0  0  0  0  0  0  0
    3.3540   -3.5242    3.8241 H   0  0  0  0  0  0  0  0  0  0  0  0
    5.7024   -4.6710    0.5387 H   0  0  0  0  0  0  0  0  0  0  0  0
    8.2848   -3.8913    1.5668 H   0  0  0  0  0  0  0  0  0  0  0  0
    7.7529   -4.9411    0.1691 H   0  0  0  0  0  0  0  0  0  0  0  0
    5.5418   -0.5862   -0.0204 H   0  0  0  0  0  0  0  0  0  0  0  0
    3.1018   -1.4457   -4.0469 H   0  0  0  0  0  0  0  0  0  0  0  0
    2.1069   -3.6654   -2.7382 H   0  0  0  0  0  0  0  0  0  0  0  0
    2.1767   -4.5967   -0.5370 H   0  0  0  0  0  0  0  0  0  0  0  0
    2.7669   -3.5406    0.7833 H   0  0  0  0  0  0  0  0  0  0  0  0
    3.8336   -4.7151   -0.0975 H   0  0  0  0  0  0  0  0  0  0  0  0
  1  2  1  0
  1 21  1  0
  1 22  1  0
  1 23  1  0
  2  3  1  0
  3  4  2  0
  3  5  1  0
  5 14  1  0
  5  6  2  0
  6  7  1  0
  6  8  1  0
  7 24  1  0
  7 25  1  0
  7 26  1  0
  8  9  1  0
  9 13  1  0
  9 10  1  0
  9 27  1  6
 10 11  1  0
 10 28  1  0
 10 29  1  0
 11 12  2  0
 11 13  1  0
 13 14  1  0
 14 15  1  0
 14 30  1  6
 15 19  1  0
 15 16  2  0
 16 17  1  0
 17 18  2  0
 17 31  1  0
 18 19  1  0
 18 32  1  0
 19 20  1  0
 20 33  1  0
 20 34  1  0
 20 35  1  0
M  END
>  <i_m_ct_stereo_status>  (156) 
1

>  <s_m_source_file>  (156) 
/var/tmp/pbs.5076255.sched01/tmp1pob34vh/39rbzpz6sd.sdf

>  <i_m_source_file_index>  (156) 
35

>  <i_lp_mmshare_version>  (156) 
48012

>  <i_f3d_flags>  (156) 
0

>  <s_epik_input>  (156) 
W0NIM11PQyg9TylDKD1DKE8xKVtDSDNdKVtDQEBIXShOKFtDQEhdMTIpQyg9TylbQ0gyXTIpYzNuW2NIXVtjSF1uM1tDSDNd

>  <s_epik_cmdline>  (156) 
J2VwaWtfcHl0aG9uJywgJy1waHQnLCAnMi4wJywgJy1waCcsICc3LjAnLCAnLXRuJywgJzgnLCAnLW1hJywgJzIwMCcsICctaW1hZScsICc8aW5maWxlLm1hZT4nLCAnLW9tYWUnLCAnPG91dGZpbGUubWFlPic=

>  <r_lp_tautomer_probability>  (156) 
1

>  <r_epik_Ionization_Penalty>  (156) 
0.167921

>  <r_epik_Ionization_Penalty_Charging>  (156) 
0.167921

>  <r_epik_Ionization_Penalty_Neutral>  (156) 
1.34584e-13

>  <r_epik_State_Penalty>  (156) 
0.157281

>  <r_epik_Charging_Adjusted_Penalty>  (156) 
0.325203

>  <i_epik_Tot_Q>  (156) 
0

>  <i_epik_Tot_abs_Q>  (156) 
0

>  <s_epik_Chemistry_Notes>  (156) 
This compound has an ester and may undergo hydrolysis at high or low pH. This compound contains an acetal/aminal-like group ( X-CH(R)-Y where X, Y are N, S, or O) that may be acid/base labile, releasing an aldehyde.

>  <s_lp_Force_Field>  (156) 
OPLS3e

>  <r_lp_Energy>  (156) 
18.0514

>  <b_lp_Chiralities_Consistent>  (156) 
1

>  <s_lp_Variant>  (156) 
48:0-1

>  <s_i_glide_gridfile>  (156) 
pfpi4k_grid

>  <i_i_glide_lignum>  (156) 
35

>  <i_i_glide_rotatable_bonds>  (156) 
3

>  <r_i_docking_score>  (156) 
-3.5214

>  <r_i_glide_ligand_efficiency>  (156) 
-0.17607

>  <r_i_glide_ligand_efficiency_sa>  (156) 
-0.477927

>  <r_i_glide_ligand_efficiency_ln>  (156) 
-0.88129

>  <r_i_glide_gscore>  (156) 
-3.5214

>  <r_i_glide_lipo>  (156) 
-0.239142

>  <r_i_glide_hbond>  (156) 
-0.16

>  <r_i_glide_metal>  (156) 
-0

>  <r_i_glide_rewards>  (156) 
-1.76333

>  <r_i_glide_evdw>  (156) 
-25.9601

>  <r_i_glide_ecoul>  (156) 
-3.10688

>  <r_i_glide_erotb>  (156) 
0.468409

>  <r_i_glide_esite>  (156) 
-0.063298

>  <r_i_glide_emodel>  (156) 
-32.1889

>  <r_i_glide_energy>  (156) 
-29.067

>  <r_i_glide_einternal>  (156) 
2.14105

>  <r_i_glide_intrahb_reward>  (156) 
-0

>  <i_i_glide_confnum>  (156) 
4

>  <i_i_glide_posenum>  (156) 
18

>  <r_i_glide_eff_state_penalty>  (156) 
0

>  <ligand_id>  (156) 
48

>  <original_smiles>  (156) 
COC(=O)C1=C(C)OC2CC(=O)N2C1c1nccn1C

>  <smiles>  (156) 
[H]c1nc(C2([H])C(C(=O)OC([H])([H])[H])=C(C([H])([H])[H])OC3([H])N2C(=O)C3([H])[H])n(C([H])([H])[H])c1[H]

$$$$
48:0:1
     RDKit          3D

 35 37  0  0  1  0  0  0  0  0999 V2000
    0.9025   -0.5633    2.5893 C   0  0  0  0  0  0  0  0  0  0  0  0
    1.9913   -1.4219    2.3019 O   0  0  0  0  0  0  0  0  0  0  0  0
    3.0512   -0.9577    1.6096 C   0  0  0  0  0  0  0  0  0  0  0  0
    3.1354    0.1976    1.1787 O   0  0  0  0  0  0  0  0  0  0  0  0
    4.1214   -1.9591    1.4258 C   0  0  0  0  0  0  0  0  0  0  0  0
    4.5053   -2.8197    2.4262 C   0  0  0  0  0  0  0  0  0  0  0  0
    3.9585   -2.8947    3.8467 C   0  0  0  0  0  0  0  0  0  0  0  0
    5.4725   -3.7857    2.2445 O   0  0  0  0  0  0  0  0  0  0  0  0
    5.7582   -4.1630    0.8914 C   0  0  2  0  0  0  0  0  0  0  0  0
    7.2308   -4.4010    0.5418 C   0  0  0  0  0  0  0  0  0  0  0  0
    7.0763   -3.1853   -0.3882 C   0  0  0  0  0  0  0  0  0  0  0  0
    7.7402   -2.5836   -1.2114 O   0  0  0  0  0  0  0  0  0  0  0  0
    5.8021   -2.9729    0.0672 N   0  0  0  0  0  0  0  0  0  0  0  0
    4.7898   -1.9460    0.0365 C   0  0  1  0  0  0  0  0  0  0  0  0
    3.8774   -2.2855   -1.0985 C   0  0  0  0  0  0  0  0  0  0  0  0
    3.0870   -3.3601   -1.0890 N   0  0  0  0  0  0  0  0  0  0  0  0
    2.4471   -3.3297   -2.3122 C   0  0  0  0  0  0  0  0  0  0  0  0
    2.8753   -2.2537   -3.0416 C   0  0  0  0  0  0  0  0  0  0  0  0
    3.7981   -1.5908   -2.2496 N   0  0  0  0  0  0  0  0  0  0  0  0
    4.5020   -0.3960   -2.6284 C   0  0  0  0  0  0  0  0  0  0  0  0
    0.1783   -1.1032    3.1989 H   0  0  0  0  0  0  0  0  0  0  0  0
    0.4042   -0.2404    1.6732 H   0  0  0  0  0  0  0  0  0  0  0  0
    1.2120    0.3232    3.1524 H   0  0  0  0  0  0  0  0  0  0  0  0
    3.4950   -1.9756    4.1979 H   0  0  0  0  0  0  0  0  0  0  0  0
    4.7688   -3.1192    4.5367 H   0  0  0  0  0  0  0  0  0  0  0  0
    3.2255   -3.6983    3.9320 H   0  0  0  0  0  0  0  0  0  0  0  0
    5.0922   -4.9387    0.4817 H   0  0  0  0  0  0  0  0  0  0  0  0
    7.9034   -4.2483    1.3864 H   0  0  0  0  0  0  0  0  0  0  0  0
    7.3833   -5.3829    0.0883 H   0  0  0  0  0  0  0  0  0  0  0  0
    5.2705   -0.9679   -0.0916 H   0  0  0  0  0  0  0  0  0  0  0  0
    1.7243   -4.0742   -2.5850 H   0  0  0  0  0  0  0  0  0  0  0  0
    2.5889   -1.8995   -4.0219 H   0  0  0  0  0  0  0  0  0  0  0  0
    4.2496   -0.1153   -3.6607 H   0  0  0  0  0  0  0  0  0  0  0  0
    5.5779   -0.5582   -2.5185 H   0  0  0  0  0  0  0  0  0  0  0  0
    4.2203    0.4087   -1.9707 H   0  0  0  0  0  0  0  0  0  0  0  0
  1  2  1  0
  1 21  1  0
  1 22  1  0
  1 23  1  0
  2  3  1  0
  3  4  2  0
  3  5  1  0
  5 14  1  0
  5  6  2  0
  6  7  1  0
  6  8  1  0
  7 24  1  0
  7 25  1  0
  7 26  1  0
  8  9  1  0
  9 13  1  0
  9 10  1  0
  9 27  1  6
 10 11  1  0
 10 28  1  0
 10 29  1  0
 11 12  2  0
 11 13  1  0
 13 14  1  0
 14 15  1  0
 14 30  1  6
 15 19  1  0
 15 16  2  0
 16 17  1  0
 17 18  2  0
 17 31  1  0
 18 19  1  0
 18 32  1  0
 19 20  1  0
 20 33  1  0
 20 34  1  0
 20 35  1  0
M  END
>  <i_m_ct_stereo_status>  (157) 
1

>  <s_m_source_file>  (157) 
/var/tmp/pbs.5076255.sched01/tmp1pob34vh/39rbzpz6sd.sdf

>  <i_m_source_file_index>  (157) 
35

>  <i_lp_mmshare_version>  (157) 
48012

>  <i_f3d_flags>  (157) 
0

>  <s_epik_input>  (157) 
W0NIM11PQyg9TylDKD1DKE8xKVtDSDNdKVtDQEBIXShOKFtDQEhdMTIpQyg9TylbQ0gyXTIpYzNuW2NIXVtjSF1uM1tDSDNd

>  <s_epik_cmdline>  (157) 
J2VwaWtfcHl0aG9uJywgJy1waHQnLCAnMi4wJywgJy1waCcsICc3LjAnLCAnLXRuJywgJzgnLCAnLW1hJywgJzIwMCcsICctaW1hZScsICc8aW5maWxlLm1hZT4nLCAnLW9tYWUnLCAnPG91dGZpbGUubWFlPic=

>  <r_lp_tautomer_probability>  (157) 
1

>  <r_epik_Ionization_Penalty>  (157) 
0.167921

>  <r_epik_Ionization_Penalty_Charging>  (157) 
0.167921

>  <r_epik_Ionization_Penalty_Neutral>  (157) 
1.34584e-13

>  <r_epik_State_Penalty>  (157) 
0.157281

>  <r_epik_Charging_Adjusted_Penalty>  (157) 
0.325203

>  <i_epik_Tot_Q>  (157) 
0

>  <i_epik_Tot_abs_Q>  (157) 
0

>  <s_epik_Chemistry_Notes>  (157) 
This compound has an ester and may undergo hydrolysis at high or low pH. This compound contains an acetal/aminal-like group ( X-CH(R)-Y where X, Y are N, S, or O) that may be acid/base labile, releasing an aldehyde.

>  <s_lp_Force_Field>  (157) 
OPLS3e

>  <r_lp_Energy>  (157) 
18.0514

>  <b_lp_Chiralities_Consistent>  (157) 
1

>  <s_lp_Variant>  (157) 
48:0-1

>  <s_i_glide_gridfile>  (157) 
pfpi4k_grid

>  <i_i_glide_lignum>  (157) 
35

>  <i_i_glide_rotatable_bonds>  (157) 
3

>  <r_i_docking_score>  (157) 
-3.34704

>  <r_i_glide_ligand_efficiency>  (157) 
-0.167352

>  <r_i_glide_ligand_efficiency_sa>  (157) 
-0.454264

>  <r_i_glide_ligand_efficiency_ln>  (157) 
-0.837655

>  <r_i_glide_gscore>  (157) 
-3.34704

>  <r_i_glide_lipo>  (157) 
-0.396321

>  <r_i_glide_hbond>  (157) 
-0.16

>  <r_i_glide_metal>  (157) 
-0

>  <r_i_glide_rewards>  (157) 
-1.83844

>  <r_i_glide_evdw>  (157) 
-22.5464

>  <r_i_glide_ecoul>  (157) 
-1.16674

>  <r_i_glide_erotb>  (157) 
0.468409

>  <r_i_glide_esite>  (157) 
-0.118355

>  <r_i_glide_emodel>  (157) 
-28.6237

>  <r_i_glide_energy>  (157) 
-23.7132

>  <r_i_glide_einternal>  (157) 
0.884787

>  <r_i_glide_intrahb_reward>  (157) 
-0

>  <i_i_glide_confnum>  (157) 
4

>  <i_i_glide_posenum>  (157) 
1

>  <r_i_glide_eff_state_penalty>  (157) 
0

>  <ligand_id>  (157) 
48

>  <original_smiles>  (157) 
COC(=O)C1=C(C)OC2CC(=O)N2C1c1nccn1C

>  <smiles>  (157) 
[H]c1nc(C2([H])C(C(=O)OC([H])([H])[H])=C(C([H])([H])[H])OC3([H])N2C(=O)C3([H])[H])n(C([H])([H])[H])c1[H]

$$$$
48:0:2
     RDKit          3D

 35 37  0  0  1  0  0  0  0  0999 V2000
    2.9174   -7.7184    1.7626 C   0  0  0  0  0  0  0  0  0  0  0  0
    3.4255   -6.5074    1.2290 O   0  0  0  0  0  0  0  0  0  0  0  0
    2.6030   -5.6607    0.5843 C   0  0  0  0  0  0  0  0  0  0  0  0
    1.3971   -5.8716    0.4551 O   0  0  0  0  0  0  0  0  0  0  0  0
    3.3148   -4.4348    0.1026 C   0  0  0  0  0  0  0  0  0  0  0  0
    2.8129   -3.6506   -0.9089 C   0  0  0  0  0  0  0  0  0  0  0  0
    1.5438   -3.8557   -1.7280 C   0  0  0  0  0  0  0  0  0  0  0  0
    3.4464   -2.4957   -1.3415 O   0  0  0  0  0  0  0  0  0  0  0  0
    4.3627   -1.8922   -0.4287 C   0  0  2  0  0  0  0  0  0  0  0  0
    5.6412   -1.2956   -1.0188 C   0  0  0  0  0  0  0  0  0  0  0  0
    6.3621   -2.3593   -0.1880 C   0  0  0  0  0  0  0  0  0  0  0  0
    7.5163   -2.6466    0.0638 O   0  0  0  0  0  0  0  0  0  0  0  0
    5.1734   -2.9101    0.1974 N   0  0  0  0  0  0  0  0  0  0  0  0
    4.6576   -4.1191    0.7931 C   0  0  1  0  0  0  0  0  0  0  0  0
    4.5325   -3.8231    2.2631 C   0  0  0  0  0  0  0  0  0  0  0  0
    3.7012   -2.9013    2.7474 N   0  0  0  0  0  0  0  0  0  0  0  0
    3.8919   -2.9300    4.1257 C   0  0  0  0  0  0  0  0  0  0  0  0
    4.8355   -3.8744    4.4257 C   0  0  0  0  0  0  0  0  0  0  0  0
    5.2433   -4.4395    3.2211 N   0  0  0  0  0  0  0  0  0  0  0  0
    6.2395   -5.4850    3.0831 C   0  0  0  0  0  0  0  0  0  0  0  0
    3.7140   -8.2517    2.2794 H   0  0  0  0  0  0  0  0  0  0  0  0
    2.5362   -8.3632    0.9706 H   0  0  0  0  0  0  0  0  0  0  0  0
    2.1153   -7.5316    2.4778 H   0  0  0  0  0  0  0  0  0  0  0  0
    1.1760   -4.8780   -1.7575 H   0  0  0  0  0  0  0  0  0  0  0  0
    1.7455   -3.5726   -2.7576 H   0  0  0  0  0  0  0  0  0  0  0  0
    0.7320   -3.2167   -1.3917 H   0  0  0  0  0  0  0  0  0  0  0  0
    3.8832   -1.2503    0.3165 H   0  0  0  0  0  0  0  0  0  0  0  0
    5.7148   -1.4157   -2.0992 H   0  0  0  0  0  0  0  0  0  0  0  0
    5.7889   -0.2594   -0.7117 H   0  0  0  0  0  0  0  0  0  0  0  0
    5.3562   -4.9393    0.6043 H   0  0  0  0  0  0  0  0  0  0  0  0
    3.3338   -2.2763    4.7840 H   0  0  0  0  0  0  0  0  0  0  0  0
    5.2385   -4.1866    5.3790 H   0  0  0  0  0  0  0  0  0  0  0  0
    6.6782   -5.7128    4.0565 H   0  0  0  0  0  0  0  0  0  0  0  0
    7.0352   -5.1605    2.4083 H   0  0  0  0  0  0  0  0  0  0  0  0
    5.7760   -6.3922    2.6895 H   0  0  0  0  0  0  0  0  0  0  0  0
  1  2  1  0
  1 21  1  0
  1 22  1  0
  1 23  1  0
  2  3  1  0
  3  4  2  0
  3  5  1  0
  5 14  1  0
  5  6  2  0
  6  7  1  0
  6  8  1  0
  7 24  1  0
  7 25  1  0
  7 26  1  0
  8  9  1  0
  9 13  1  0
  9 10  1  0
  9 27  1  1
 10 11  1  0
 10 28  1  0
 10 29  1  0
 11 12  2  0
 11 13  1  0
 13 14  1  0
 14 15  1  0
 14 30  1  1
 15 19  1  0
 15 16  2  0
 16 17  1  0
 17 18  2  0
 17 31  1  0
 18 19  1  0
 18 32  1  0
 19 20  1  0
 20 33  1  0
 20 34  1  0
 20 35  1  0
M  END
>  <i_m_ct_stereo_status>  (158) 
1

>  <s_m_source_file>  (158) 
/var/tmp/pbs.5076255.sched01/tmp1pob34vh/39rbzpz6sd.sdf

>  <i_m_source_file_index>  (158) 
35

>  <i_lp_mmshare_version>  (158) 
48012

>  <i_f3d_flags>  (158) 
0

>  <s_epik_input>  (158) 
W0NIM11PQyg9TylDKD1DKE8xKVtDSDNdKVtDQEBIXShOKFtDQEhdMTIpQyg9TylbQ0gyXTIpYzNuW2NIXVtjSF1uM1tDSDNd

>  <s_epik_cmdline>  (158) 
J2VwaWtfcHl0aG9uJywgJy1waHQnLCAnMi4wJywgJy1waCcsICc3LjAnLCAnLXRuJywgJzgnLCAnLW1hJywgJzIwMCcsICctaW1hZScsICc8aW5maWxlLm1hZT4nLCAnLW9tYWUnLCAnPG91dGZpbGUubWFlPic=

>  <r_lp_tautomer_probability>  (158) 
1

>  <r_epik_Ionization_Penalty>  (158) 
0.167921

>  <r_epik_Ionization_Penalty_Charging>  (158) 
0.167921

>  <r_epik_Ionization_Penalty_Neutral>  (158) 
1.34584e-13

>  <r_epik_State_Penalty>  (158) 
0.157281

>  <r_epik_Charging_Adjusted_Penalty>  (158) 
0.325203

>  <i_epik_Tot_Q>  (158) 
0

>  <i_epik_Tot_abs_Q>  (158) 
0

>  <s_epik_Chemistry_Notes>  (158) 
This compound has an ester and may undergo hydrolysis at high or low pH. This compound contains an acetal/aminal-like group ( X-CH(R)-Y where X, Y are N, S, or O) that may be acid/base labile, releasing an aldehyde.

>  <s_lp_Force_Field>  (158) 
OPLS3e

>  <r_lp_Energy>  (158) 
18.0514

>  <b_lp_Chiralities_Consistent>  (158) 
1

>  <s_lp_Variant>  (158) 
48:0-1

>  <s_i_glide_gridfile>  (158) 
pfpi4k_grid

>  <i_i_glide_lignum>  (158) 
35

>  <i_i_glide_rotatable_bonds>  (158) 
3

>  <r_i_docking_score>  (158) 
-2.71234

>  <r_i_glide_ligand_efficiency>  (158) 
-0.135617

>  <r_i_glide_ligand_efficiency_sa>  (158) 
-0.368121

>  <r_i_glide_ligand_efficiency_ln>  (158) 
-0.678808

>  <r_i_glide_gscore>  (158) 
-2.71234

>  <r_i_glide_lipo>  (158) 
-0.0598898

>  <r_i_glide_hbond>  (158) 
-0.157558

>  <r_i_glide_metal>  (158) 
-0

>  <r_i_glide_rewards>  (158) 
-1.59712

>  <r_i_glide_evdw>  (158) 
-19.1252

>  <r_i_glide_ecoul>  (158) 
-2.27098

>  <r_i_glide_erotb>  (158) 
0.468409

>  <r_i_glide_esite>  (158) 
-0.0692725

>  <r_i_glide_emodel>  (158) 
-25.1132

>  <r_i_glide_energy>  (158) 
-21.3962

>  <r_i_glide_einternal>  (158) 
1.1483

>  <r_i_glide_intrahb_reward>  (158) 
-0

>  <i_i_glide_confnum>  (158) 
2

>  <i_i_glide_posenum>  (158) 
3

>  <r_i_glide_eff_state_penalty>  (158) 
0

>  <ligand_id>  (158) 
48

>  <original_smiles>  (158) 
COC(=O)C1=C(C)OC2CC(=O)N2C1c1nccn1C

>  <smiles>  (158) 
[H]c1nc(C2([H])C(C(=O)OC([H])([H])[H])=C(C([H])([H])[H])OC3([H])N2C(=O)C3([H])[H])n(C([H])([H])[H])c1[H]

$$$$
48:1:0
     RDKit          3D

 36 38  0  0  1  0  0  0  0  0999 V2000
    1.1942    0.0878    2.1369 C   0  0  0  0  0  0  0  0  0  0  0  0
    2.1679   -0.9181    1.9525 O   0  0  0  0  0  0  0  0  0  0  0  0
    3.4017   -0.6257    1.4861 C   0  0  0  0  0  0  0  0  0  0  0  0
    3.7626    0.4938    1.1324 O   0  0  0  0  0  0  0  0  0  0  0  0
    4.2898   -1.8257    1.4371 C   0  0  0  0  0  0  0  0  0  0  0  0
    4.1610   -2.8680    2.3414 C   0  0  0  0  0  0  0  0  0  0  0  0
    3.1782   -3.0499    3.4763 C   0  0  0  0  0  0  0  0  0  0  0  0
    5.0507   -3.9470    2.3883 O   0  0  0  0  0  0  0  0  0  0  0  0
    5.7274   -4.2139    1.1843 C   0  0  2  0  0  0  0  0  0  0  0  0
    7.1767   -4.7168    1.1306 C   0  0  0  0  0  0  0  0  0  0  0  0
    7.5369   -3.3823    0.4391 C   0  0  0  0  0  0  0  0  0  0  0  0
    8.5087   -2.8926   -0.0807 O   0  0  0  0  0  0  0  0  0  0  0  0
    6.2150   -2.9546    0.6263 N   0  0  0  0  0  0  0  0  0  0  0  0
    5.4073   -1.7646    0.3698 C   0  0  1  0  0  0  0  0  0  0  0  0
    4.9044   -1.7783   -1.1118 C   0  0  0  0  0  0  0  0  0  0  0  0
    4.4697   -0.7017   -1.7800 N   0  0  0  0  0  0  0  0  0  0  0  0
    4.0337   -1.0382   -3.0280 C   0  0  0  0  0  0  0  0  0  0  0  0
    4.2324   -2.3749   -3.1453 C   0  0  0  0  0  0  0  0  0  0  0  0
    4.7672   -2.7949   -1.9812 N   0  0  0  0  0  0  0  0  0  0  0  0
    5.0318   -4.2367   -1.7810 C   0  0  0  0  0  0  0  0  0  0  0  0
    0.3074   -0.3658    2.5879 H   0  0  0  0  0  0  0  0  0  0  0  0
    0.9193    0.5001    1.1649 H   0  0  0  0  0  0  0  0  0  0  0  0
    1.5406    0.8864    2.8015 H   0  0  0  0  0  0  0  0  0  0  0  0
    2.7598   -2.1314    3.8547 H   0  0  0  0  0  0  0  0  0  0  0  0
    3.7226   -3.4793    4.3145 H   0  0  0  0  0  0  0  0  0  0  0  0
    2.3854   -3.7373    3.1791 H   0  0  0  0  0  0  0  0  0  0  0  0
    5.1188   -4.8364    0.6417 H   0  0  0  0  0  0  0  0  0  0  0  0
    7.5733   -4.9059    2.1663 H   0  0  0  0  0  0  0  0  0  0  0  0
    7.2496   -5.5973    0.5076 H   0  0  0  0  0  0  0  0  0  0  0  0
    6.0169   -0.8665    0.4946 H   0  0  0  0  0  0  0  0  0  0  0  0
    3.6249   -0.3463   -3.7415 H   0  0  0  0  0  0  0  0  0  0  0  0
    4.0276   -3.1023   -3.9386 H   0  0  0  0  0  0  0  0  0  0  0  0
    5.0053   -4.8163   -2.6653 H   0  0  0  0  0  0  0  0  0  0  0  0
    4.2404   -4.5802   -1.1306 H   0  0  0  0  0  0  0  0  0  0  0  0
    6.0475   -4.3238   -1.4323 H   0  0  0  0  0  0  0  0  0  0  0  0
    4.4232    0.2559   -1.4069 H   0  0  0  0  0  0  0  0  0  0  0  0
  1  2  1  0
  1 21  1  0
  1 22  1  0
  1 23  1  0
  2  3  1  0
  3  4  2  0
  3  5  1  0
  5 14  1  0
  5  6  2  0
  6  7  1  0
  6  8  1  0
  7 24  1  0
  7 25  1  0
  7 26  1  0
  8  9  1  0
  9 13  1  0
  9 10  1  0
  9 27  1  6
 10 11  1  0
 10 28  1  0
 10 29  1  0
 11 12  2  0
 11 13  1  0
 13 14  1  0
 14 15  1  0
 14 30  1  1
 15 19  1  0
 15 16  2  0
 16 17  1  0
 16 36  1  0
 17 18  2  0
 17 31  1  0
 18 19  1  0
 18 32  1  0
 19 20  1  0
 20 33  1  0
 20 34  1  0
 20 35  1  0
M  CHG  1  16   1
M  END
>  <i_m_ct_stereo_status>  (159) 
1

>  <s_m_source_file>  (159) 
/var/tmp/pbs.5076255.sched01/tmp1pob34vh/39rbzpz6sd.sdf

>  <i_m_source_file_index>  (159) 
36

>  <i_lp_mmshare_version>  (159) 
48012

>  <i_f3d_flags>  (159) 
0

>  <s_epik_input>  (159) 
W0NIM11PQyg9TylDKD1DKE8xKVtDSDNdKVtDQEBIXShOKFtDQEhdMTIpQyg9TylbQ0gyXTIpYzNuW2NIXVtjSF1uM1tDSDNd

>  <s_epik_cmdline>  (159) 
J2VwaWtfcHl0aG9uJywgJy1waHQnLCAnMi4wJywgJy1waCcsICc3LjAnLCAnLXRuJywgJzgnLCAnLW1hJywgJzIwMCcsICctaW1hZScsICc8aW5maWxlLm1hZT4nLCAnLW9tYWUnLCAnPG91dGZpbGUubWFlPic=

>  <r_lp_tautomer_probability>  (159) 
1

>  <r_epik_Ionization_Penalty>  (159) 
0.829004

>  <r_epik_Ionization_Penalty_Charging>  (159) 
0

>  <r_epik_Ionization_Penalty_Neutral>  (159) 
0.829004

>  <r_epik_State_Penalty>  (159) 
0.86271

>  <r_epik_Charging_Adjusted_Penalty>  (159) 
0.86271

>  <i_epik_Tot_Q>  (159) 
1

>  <i_epik_Tot_abs_Q>  (159) 
1

>  <s_epik_Chemistry_Notes>  (159) 
This compound has an ester and may undergo hydrolysis at high or low pH. This compound contains an acetal/aminal-like group ( X-CH(R)-Y where X, Y are N, S, or O) that may be acid/base labile, releasing an aldehyde.

>  <s_lp_Force_Field>  (159) 
OPLS3e

>  <r_lp_Energy>  (159) 
22.6843

>  <b_lp_Chiralities_Consistent>  (159) 
1

>  <s_lp_Variant>  (159) 
48:0-2

>  <s_i_glide_gridfile>  (159) 
pfpi4k_grid

>  <i_i_glide_lignum>  (159) 
36

>  <i_i_glide_rotatable_bonds>  (159) 
3

>  <r_i_docking_score>  (159) 
-3.73218

>  <r_i_glide_ligand_efficiency>  (159) 
-0.186609

>  <r_i_glide_ligand_efficiency_sa>  (159) 
-0.506535

>  <r_i_glide_ligand_efficiency_ln>  (159) 
-0.934042

>  <r_i_glide_gscore>  (159) 
-3.73218

>  <r_i_glide_lipo>  (159) 
-0.409024

>  <r_i_glide_hbond>  (159) 
0

>  <r_i_glide_metal>  (159) 
-0

>  <r_i_glide_rewards>  (159) 
-1.9902

>  <r_i_glide_evdw>  (159) 
-24.7725

>  <r_i_glide_ecoul>  (159) 
-3.17295

>  <r_i_glide_erotb>  (159) 
0.465469

>  <r_i_glide_esite>  (159) 
-0.0855344

>  <r_i_glide_emodel>  (159) 
-28.8477

>  <r_i_glide_energy>  (159) 
-27.9455

>  <r_i_glide_einternal>  (159) 
5.34599

>  <r_i_glide_intrahb_reward>  (159) 
-0

>  <i_i_glide_confnum>  (159) 
5

>  <i_i_glide_posenum>  (159) 
23

>  <r_i_glide_eff_state_penalty>  (159) 
0

>  <ligand_id>  (159) 
48

>  <original_smiles>  (159) 
COC(=O)C1=C(C)OC2CC(=O)N2C1c1nccn1C

>  <smiles>  (159) 
[H]c1c([H])[n+]([H])c(C2([H])C(C(=O)OC([H])([H])[H])=C(C([H])([H])[H])OC3([H])N2C(=O)C3([H])[H])n1C([H])([H])[H]

$$$$
48:1:1
     RDKit          3D

 36 38  0  0  1  0  0  0  0  0999 V2000
    1.8526    0.9360    1.6787 C   0  0  0  0  0  0  0  0  0  0  0  0
    2.8488   -0.0621    1.5172 O   0  0  0  0  0  0  0  0  0  0  0  0
    2.6188   -1.3099    1.9584 C   0  0  0  0  0  0  0  0  0  0  0  0
    1.5466   -1.6563    2.4670 O   0  0  0  0  0  0  0  0  0  0  0  0
    3.7809   -2.2255    1.7028 C   0  0  0  0  0  0  0  0  0  0  0  0
    4.0431   -3.3015    2.5085 C   0  0  0  0  0  0  0  0  0  0  0  0
    3.2808   -3.7444    3.7573 C   0  0  0  0  0  0  0  0  0  0  0  0
    5.0966   -4.1908    2.2784 O   0  0  0  0  0  0  0  0  0  0  0  0
    5.6437   -4.2382    0.9524 C   0  0  2  0  0  0  0  0  0  0  0  0
    7.1566   -4.3281    0.7787 C   0  0  0  0  0  0  0  0  0  0  0  0
    7.0366   -2.9556    0.0780 C   0  0  0  0  0  0  0  0  0  0  0  0
    7.7854   -2.1884   -0.5076 O   0  0  0  0  0  0  0  0  0  0  0  0
    5.6995   -2.8960    0.4016 N   0  0  0  0  0  0  0  0  0  0  0  0
    4.6287   -1.9083    0.4536 C   0  0  1  0  0  0  0  0  0  0  0  0
    3.8833   -1.9889   -0.8758 C   0  0  0  0  0  0  0  0  0  0  0  0
    4.0101   -1.1019   -1.8820 N   0  0  0  0  0  0  0  0  0  0  0  0
    3.2261   -1.4879   -2.9369 C   0  0  0  0  0  0  0  0  0  0  0  0
    2.6290   -2.6522   -2.5662 C   0  0  0  0  0  0  0  0  0  0  0  0
    3.0211   -2.9348   -1.2913 N   0  0  0  0  0  0  0  0  0  0  0  0
    2.5560   -4.1125   -0.5051 C   0  0  0  0  0  0  0  0  0  0  0  0
    2.2111    1.8807    1.2817 H   0  0  0  0  0  0  0  0  0  0  0  0
    1.6203    1.0849    2.7333 H   0  0  0  0  0  0  0  0  0  0  0  0
    0.9371    0.6737    1.1496 H   0  0  0  0  0  0  0  0  0  0  0  0
    2.6756   -2.9628    4.2195 H   0  0  0  0  0  0  0  0  0  0  0  0
    4.0072   -4.0592    4.5042 H   0  0  0  0  0  0  0  0  0  0  0  0
    2.6400   -4.6058    3.5476 H   0  0  0  0  0  0  0  0  0  0  0  0
    5.2393   -4.9875    0.2896 H   0  0  0  0  0  0  0  0  0  0  0  0
    7.7102   -4.4112    1.7344 H   0  0  0  0  0  0  0  0  0  0  0  0
    7.3728   -5.1647    0.1148 H   0  0  0  0  0  0  0  0  0  0  0  0
    5.0473   -0.9044    0.5514 H   0  0  0  0  0  0  0  0  0  0  0  0
    3.1169   -0.8926   -3.8434 H   0  0  0  0  0  0  0  0  0  0  0  0
    1.9156   -3.2815   -3.0992 H   0  0  0  0  0  0  0  0  0  0  0  0
    1.8859   -4.6902   -1.1466 H   0  0  0  0  0  0  0  0  0  0  0  0
    2.0025   -3.7433    0.3608 H   0  0  0  0  0  0  0  0  0  0  0  0
    3.3710   -4.7257   -0.2501 H   0  0  0  0  0  0  0  0  0  0  0  0
    4.5528   -0.2335   -1.8434 H   0  0  0  0  0  0  0  0  0  0  0  0
  1  2  1  0
  1 21  1  0
  1 22  1  0
  1 23  1  0
  2  3  1  0
  3  4  2  0
  3  5  1  0
  5 14  1  0
  5  6  2  0
  6  7  1  0
  6  8  1  0
  7 24  1  0
  7 25  1  0
  7 26  1  0
  8  9  1  0
  9 13  1  0
  9 10  1  0
  9 27  1  6
 10 11  1  0
 10 28  1  0
 10 29  1  0
 11 12  2  0
 11 13  1  0
 13 14  1  0
 14 15  1  0
 14 30  1  1
 15 19  1  0
 15 16  2  0
 16 17  1  0
 16 36  1  0
 17 18  2  0
 17 31  1  0
 18 19  1  0
 18 32  1  0
 19 20  1  0
 20 33  1  0
 20 34  1  0
 20 35  1  0
M  CHG  1  16   1
M  END
>  <i_m_ct_stereo_status>  (160) 
1

>  <s_m_source_file>  (160) 
/var/tmp/pbs.5076255.sched01/tmp1pob34vh/39rbzpz6sd.sdf

>  <i_m_source_file_index>  (160) 
36

>  <i_lp_mmshare_version>  (160) 
48012

>  <i_f3d_flags>  (160) 
0

>  <s_epik_input>  (160) 
W0NIM11PQyg9TylDKD1DKE8xKVtDSDNdKVtDQEBIXShOKFtDQEhdMTIpQyg9TylbQ0gyXTIpYzNuW2NIXVtjSF1uM1tDSDNd

>  <s_epik_cmdline>  (160) 
J2VwaWtfcHl0aG9uJywgJy1waHQnLCAnMi4wJywgJy1waCcsICc3LjAnLCAnLXRuJywgJzgnLCAnLW1hJywgJzIwMCcsICctaW1hZScsICc8aW5maWxlLm1hZT4nLCAnLW9tYWUnLCAnPG91dGZpbGUubWFlPic=

>  <r_lp_tautomer_probability>  (160) 
1

>  <r_epik_Ionization_Penalty>  (160) 
0.829004

>  <r_epik_Ionization_Penalty_Charging>  (160) 
0

>  <r_epik_Ionization_Penalty_Neutral>  (160) 
0.829004

>  <r_epik_State_Penalty>  (160) 
0.86271

>  <r_epik_Charging_Adjusted_Penalty>  (160) 
0.86271

>  <i_epik_Tot_Q>  (160) 
1

>  <i_epik_Tot_abs_Q>  (160) 
1

>  <s_epik_Chemistry_Notes>  (160) 
This compound has an ester and may undergo hydrolysis at high or low pH. This compound contains an acetal/aminal-like group ( X-CH(R)-Y where X, Y are N, S, or O) that may be acid/base labile, releasing an aldehyde.

>  <s_lp_Force_Field>  (160) 
OPLS3e

>  <r_lp_Energy>  (160) 
22.6843

>  <b_lp_Chiralities_Consistent>  (160) 
1

>  <s_lp_Variant>  (160) 
48:0-2

>  <s_i_glide_gridfile>  (160) 
pfpi4k_grid

>  <i_i_glide_lignum>  (160) 
36

>  <i_i_glide_rotatable_bonds>  (160) 
3

>  <r_i_docking_score>  (160) 
-3.70626

>  <r_i_glide_ligand_efficiency>  (160) 
-0.185313

>  <r_i_glide_ligand_efficiency_sa>  (160) 
-0.503017

>  <r_i_glide_ligand_efficiency_ln>  (160) 
-0.927556

>  <r_i_glide_gscore>  (160) 
-3.70626

>  <r_i_glide_lipo>  (160) 
-0.136583

>  <r_i_glide_hbond>  (160) 
-0.16

>  <r_i_glide_metal>  (160) 
-0

>  <r_i_glide_rewards>  (160) 
-1.80929

>  <r_i_glide_evdw>  (160) 
-23.0739

>  <r_i_glide_ecoul>  (160) 
-5.15214

>  <r_i_glide_erotb>  (160) 
0.465469

>  <r_i_glide_esite>  (160) 
-0.139344

>  <r_i_glide_emodel>  (160) 
-32.7844

>  <r_i_glide_energy>  (160) 
-28.226

>  <r_i_glide_einternal>  (160) 
2.14255

>  <r_i_glide_intrahb_reward>  (160) 
-0

>  <i_i_glide_confnum>  (160) 
5

>  <i_i_glide_posenum>  (160) 
19

>  <r_i_glide_eff_state_penalty>  (160) 
0

>  <ligand_id>  (160) 
48

>  <original_smiles>  (160) 
COC(=O)C1=C(C)OC2CC(=O)N2C1c1nccn1C

>  <smiles>  (160) 
[H]c1c([H])[n+]([H])c(C2([H])C(C(=O)OC([H])([H])[H])=C(C([H])([H])[H])OC3([H])N2C(=O)C3([H])[H])n1C([H])([H])[H]

$$$$
48:1:2
     RDKit          3D

 36 38  0  0  1  0  0  0  0  0999 V2000
    8.6391   -3.5068   -1.5561 C   0  0  0  0  0  0  0  0  0  0  0  0
    7.4623   -3.2563   -0.8129 O   0  0  0  0  0  0  0  0  0  0  0  0
    6.3530   -2.8925   -1.4555 C   0  0  0  0  0  0  0  0  0  0  0  0
    6.1728   -3.0795   -2.6574 O   0  0  0  0  0  0  0  0  0  0  0  0
    5.4050   -2.2160   -0.5207 C   0  0  0  0  0  0  0  0  0  0  0  0
    4.5363   -1.2627   -0.9618 C   0  0  0  0  0  0  0  0  0  0  0  0
    4.3498   -0.7190   -2.3777 C   0  0  0  0  0  0  0  0  0  0  0  0
    3.6411   -0.6342   -0.1116 O   0  0  0  0  0  0  0  0  0  0  0  0
    3.2998   -1.2385    1.1296 C   0  0  2  0  0  0  0  0  0  0  0  0
    3.1878   -0.3834    2.3861 C   0  0  0  0  0  0  0  0  0  0  0  0
    4.3726   -1.2227    2.9073 C   0  0  0  0  0  0  0  0  0  0  0  0
    5.0182   -1.3032    3.9453 O   0  0  0  0  0  0  0  0  0  0  0  0
    4.4795   -1.8654    1.6946 N   0  0  0  0  0  0  0  0  0  0  0  0
    5.4542   -2.6518    0.9540 C   0  0  1  0  0  0  0  0  0  0  0  0
    5.1085   -4.1189    1.1798 C   0  0  0  0  0  0  0  0  0  0  0  0
    5.7976   -4.9450    1.9833 N   0  0  0  0  0  0  0  0  0  0  0  0
    5.2170   -6.1808    1.9920 C   0  0  0  0  0  0  0  0  0  0  0  0
    4.1253   -6.0887    1.1748 C   0  0  0  0  0  0  0  0  0  0  0  0
    4.0967   -4.8261    0.6635 N   0  0  0  0  0  0  0  0  0  0  0  0
    3.0609   -4.3496   -0.2955 C   0  0  0  0  0  0  0  0  0  0  0  0
    9.4211   -3.8705   -0.8938 H   0  0  0  0  0  0  0  0  0  0  0  0
    8.9853   -2.5807   -2.0048 H   0  0  0  0  0  0  0  0  0  0  0  0
    8.5349   -4.2165   -2.3713 H   0  0  0  0  0  0  0  0  0  0  0  0
    5.1956   -0.8827   -3.0390 H   0  0  0  0  0  0  0  0  0  0  0  0
    4.2220    0.3602   -2.3344 H   0  0  0  0  0  0  0  0  0  0  0  0
    3.4575   -1.1375   -2.8564 H   0  0  0  0  0  0  0  0  0  0  0  0
    2.3874   -1.7993    1.1472 H   0  0  0  0  0  0  0  0  0  0  0  0
    3.2988    0.6995    2.2002 H   0  0  0  0  0  0  0  0  0  0  0  0
    2.2265   -0.6225    2.8489 H   0  0  0  0  0  0  0  0  0  0  0  0
    6.4619   -2.4687    1.3455 H   0  0  0  0  0  0  0  0  0  0  0  0
    5.6046   -7.0286    2.5444 H   0  0  0  0  0  0  0  0  0  0  0  0
    3.3920   -6.8358    0.9058 H   0  0  0  0  0  0  0  0  0  0  0  0
    2.3431   -5.1613   -0.4388 H   0  0  0  0  0  0  0  0  0  0  0  0
    3.5606   -4.0742   -1.2318 H   0  0  0  0  0  0  0  0  0  0  0  0
    2.5090   -3.5575    0.1295 H   0  0  0  0  0  0  0  0  0  0  0  0
    6.6543   -4.7089    2.4959 H   0  0  0  0  0  0  0  0  0  0  0  0
  1  2  1  0
  1 21  1  0
  1 22  1  0
  1 23  1  0
  2  3  1  0
  3  4  2  0
  3  5  1  0
  5 14  1  0
  5  6  2  0
  6  7  1  0
  6  8  1  0
  7 24  1  0
  7 25  1  0
  7 26  1  0
  8  9  1  0
  9 13  1  0
  9 10  1  0
  9 27  1  6
 10 11  1  0
 10 28  1  0
 10 29  1  0
 11 12  2  0
 11 13  1  0
 13 14  1  0
 14 15  1  0
 14 30  1  1
 15 19  1  0
 15 16  2  0
 16 17  1  0
 16 36  1  0
 17 18  2  0
 17 31  1  0
 18 19  1  0
 18 32  1  0
 19 20  1  0
 20 33  1  0
 20 34  1  0
 20 35  1  0
M  CHG  1  16   1
M  END
>  <i_m_ct_stereo_status>  (161) 
1

>  <s_m_source_file>  (161) 
/var/tmp/pbs.5076255.sched01/tmp1pob34vh/39rbzpz6sd.sdf

>  <i_m_source_file_index>  (161) 
36

>  <i_lp_mmshare_version>  (161) 
48012

>  <i_f3d_flags>  (161) 
0

>  <s_epik_input>  (161) 
W0NIM11PQyg9TylDKD1DKE8xKVtDSDNdKVtDQEBIXShOKFtDQEhdMTIpQyg9TylbQ0gyXTIpYzNuW2NIXVtjSF1uM1tDSDNd

>  <s_epik_cmdline>  (161) 
J2VwaWtfcHl0aG9uJywgJy1waHQnLCAnMi4wJywgJy1waCcsICc3LjAnLCAnLXRuJywgJzgnLCAnLW1hJywgJzIwMCcsICctaW1hZScsICc8aW5maWxlLm1hZT4nLCAnLW9tYWUnLCAnPG91dGZpbGUubWFlPic=

>  <r_lp_tautomer_probability>  (161) 
1

>  <r_epik_Ionization_Penalty>  (161) 
0.829004

>  <r_epik_Ionization_Penalty_Charging>  (161) 
0

>  <r_epik_Ionization_Penalty_Neutral>  (161) 
0.829004

>  <r_epik_State_Penalty>  (161) 
0.86271

>  <r_epik_Charging_Adjusted_Penalty>  (161) 
0.86271

>  <i_epik_Tot_Q>  (161) 
1

>  <i_epik_Tot_abs_Q>  (161) 
1

>  <s_epik_Chemistry_Notes>  (161) 
This compound has an ester and may undergo hydrolysis at high or low pH. This compound contains an acetal/aminal-like group ( X-CH(R)-Y where X, Y are N, S, or O) that may be acid/base labile, releasing an aldehyde.

>  <s_lp_Force_Field>  (161) 
OPLS3e

>  <r_lp_Energy>  (161) 
22.6843

>  <b_lp_Chiralities_Consistent>  (161) 
1

>  <s_lp_Variant>  (161) 
48:0-2

>  <s_i_glide_gridfile>  (161) 
pfpi4k_grid

>  <i_i_glide_lignum>  (161) 
36

>  <i_i_glide_rotatable_bonds>  (161) 
3

>  <r_i_docking_score>  (161) 
-2.97034

>  <r_i_glide_ligand_efficiency>  (161) 
-0.148517

>  <r_i_glide_ligand_efficiency_sa>  (161) 
-0.403137

>  <r_i_glide_ligand_efficiency_ln>  (161) 
-0.743378

>  <r_i_glide_gscore>  (161) 
-2.97034

>  <r_i_glide_lipo>  (161) 
-0.154084

>  <r_i_glide_hbond>  (161) 
0

>  <r_i_glide_metal>  (161) 
-0

>  <r_i_glide_rewards>  (161) 
-1.68228

>  <r_i_glide_evdw>  (161) 
-21.9569

>  <r_i_glide_ecoul>  (161) 
-3.05825

>  <r_i_glide_erotb>  (161) 
0.465469

>  <r_i_glide_esite>  (161) 
-0.042866

>  <r_i_glide_emodel>  (161) 
-27.7068

>  <r_i_glide_energy>  (161) 
-25.0151

>  <r_i_glide_einternal>  (161) 
3.69413

>  <r_i_glide_intrahb_reward>  (161) 
-0

>  <i_i_glide_confnum>  (161) 
2

>  <i_i_glide_posenum>  (161) 
32

>  <r_i_glide_eff_state_penalty>  (161) 
0

>  <ligand_id>  (161) 
48

>  <original_smiles>  (161) 
COC(=O)C1=C(C)OC2CC(=O)N2C1c1nccn1C

>  <smiles>  (161) 
[H]c1c([H])[n+]([H])c(C2([H])C(C(=O)OC([H])([H])[H])=C(C([H])([H])[H])OC3([H])N2C(=O)C3([H])[H])n1C([H])([H])[H]

$$$$
50:0:0
     RDKit          3D

 28 29  0  0  1  0  0  0  0  0999 V2000
    3.4770    0.0287   -3.7062 C   0  0  0  0  0  0  0  0  0  0  0  0
    3.9654   -1.4135   -3.6359 C   0  0  0  0  0  0  0  0  0  0  0  0
    3.8157   -2.0984   -4.6408 O   0  0  0  0  0  0  0  0  0  0  0  0
    4.5660   -1.8890   -2.5191 N   0  0  0  0  0  0  0  0  0  0  0  0
    5.1823   -3.2250   -2.4736 C   0  0  0  0  0  0  0  0  0  0  0  0
    4.6161   -4.0470   -1.3032 C   0  0  0  0  0  0  0  0  0  0  0  0
    4.7799   -3.2863    0.0209 C   0  0  0  0  0  0  0  0  0  0  0  0
    4.1833   -1.8711   -0.0696 C   0  0  0  0  0  0  0  0  0  0  0  0
    4.7551   -1.1144   -1.2810 C   0  0  0  0  0  0  0  0  0  0  0  0
    6.1328   -3.1983    0.3306 O   0  0  0  0  0  0  0  0  0  0  0  0
    6.3523   -4.1700    1.3243 C   0  0  0  0  0  0  0  0  0  0  0  0
    5.0374   -4.1188    2.0807 C   0  0  0  0  0  0  0  0  0  0  0  0
    4.1158   -3.9901    1.0241 O   0  0  0  0  0  0  0  0  0  0  0  0
    4.2285    0.7370   -3.3602 H   0  0  0  0  0  0  0  0  0  0  0  0
    2.5788    0.1437   -3.1015 H   0  0  0  0  0  0  0  0  0  0  0  0
    3.2150    0.3007   -4.7291 H   0  0  0  0  0  0  0  0  0  0  0  0
    5.0240   -3.7940   -3.3910 H   0  0  0  0  0  0  0  0  0  0  0  0
    6.2613   -3.1242   -2.3837 H   0  0  0  0  0  0  0  0  0  0  0  0
    3.5551   -4.2351   -1.4641 H   0  0  0  0  0  0  0  0  0  0  0  0
    5.0991   -5.0195   -1.2294 H   0  0  0  0  0  0  0  0  0  0  0  0
    3.0980   -1.9609   -0.1729 H   0  0  0  0  0  0  0  0  0  0  0  0
    4.3860   -1.3357    0.8573 H   0  0  0  0  0  0  0  0  0  0  0  0
    5.8187   -0.9095   -1.1526 H   0  0  0  0  0  0  0  0  0  0  0  0
    4.2448   -0.1551   -1.2946 H   0  0  0  0  0  0  0  0  0  0  0  0
    6.5074   -5.1496    0.8695 H   0  0  0  0  0  0  0  0  0  0  0  0
    7.2103   -3.9320    1.9467 H   0  0  0  0  0  0  0  0  0  0  0  0
    4.8458   -5.0065    2.6797 H   0  0  0  0  0  0  0  0  0  0  0  0
    4.9902   -3.2370    2.7202 H   0  0  0  0  0  0  0  0  0  0  0  0
  1  2  1  0
  1 14  1  0
  1 15  1  0
  1 16  1  0
  2  3  2  0
  2  4  1  0
  4  9  1  0
  4  5  1  0
  5  6  1  0
  5 17  1  0
  5 18  1  0
  6  7  1  0
  6 19  1  0
  6 20  1  0
  7 13  1  0
  7  8  1  0
  7 10  1  0
  8  9  1  0
  8 21  1  0
  8 22  1  0
  9 23  1  0
  9 24  1  0
 10 11  1  0
 11 12  1  0
 11 25  1  0
 11 26  1  0
 12 13  1  0
 12 27  1  0
 12 28  1  0
M  END
>  <i_m_ct_stereo_status>  (162) 
1

>  <s_m_source_file>  (162) 
/var/tmp/pbs.5076255.sched01/tmp1pob34vh/39rbzpz6sd.sdf

>  <i_m_source_file_index>  (162) 
38

>  <i_lp_mmshare_version>  (162) 
48012

>  <i_f3d_flags>  (162) 
0

>  <s_epik_input>  (162) 
W0NIM11DKD1PKU4oW0NIMl1bQ0gyXTEpW0NIMl1bQ0gyXUMxMk9bQ0gyXVtDSDJdTzI=

>  <s_epik_cmdline>  (162) 
J2VwaWtfcHl0aG9uJywgJy1waHQnLCAnMi4wJywgJy1waCcsICc3LjAnLCAnLXRuJywgJzgnLCAnLW1hJywgJzIwMCcsICctaW1hZScsICc8aW5maWxlLm1hZT4nLCAnLW9tYWUnLCAnPG91dGZpbGUubWFlPic=

>  <r_lp_tautomer_probability>  (162) 
1

>  <r_epik_Ionization_Penalty>  (162) 
3.76039e-07

>  <r_epik_Ionization_Penalty_Charging>  (162) 
0

>  <r_epik_Ionization_Penalty_Neutral>  (162) 
3.76039e-07

>  <r_epik_State_Penalty>  (162) 
-0

>  <r_epik_Charging_Adjusted_Penalty>  (162) 
0

>  <i_epik_Tot_Q>  (162) 
0

>  <i_epik_Tot_abs_Q>  (162) 
0

>  <s_lp_Force_Field>  (162) 
OPLS3e

>  <r_lp_Energy>  (162) 
6.78577

>  <b_lp_Chiralities_Consistent>  (162) 
1

>  <s_lp_Variant>  (162) 
50:0-1

>  <s_i_glide_gridfile>  (162) 
pfpi4k_grid

>  <i_i_glide_lignum>  (162) 
38

>  <i_i_glide_rotatable_bonds>  (162) 
1

>  <r_i_docking_score>  (162) 
-4.72966

>  <r_i_glide_ligand_efficiency>  (162) 
-0.36382

>  <r_i_glide_ligand_efficiency_sa>  (162) 
-0.855462

>  <r_i_glide_ligand_efficiency_ln>  (162) 
-1.32671

>  <r_i_glide_gscore>  (162) 
-4.72966

>  <r_i_glide_lipo>  (162) 
-0.385895

>  <r_i_glide_hbond>  (162) 
-0.32

>  <r_i_glide_metal>  (162) 
-0

>  <r_i_glide_rewards>  (162) 
-2.50302

>  <r_i_glide_evdw>  (162) 
-16.0337

>  <r_i_glide_ecoul>  (162) 
-4.7937

>  <r_i_glide_erotb>  (162) 
0

>  <r_i_glide_esite>  (162) 
0

>  <r_i_glide_emodel>  (162) 
-27.9158

>  <r_i_glide_energy>  (162) 
-20.8274

>  <r_i_glide_einternal>  (162) 
0.0140479

>  <r_i_glide_intrahb_reward>  (162) 
-0

>  <i_i_glide_confnum>  (162) 
6

>  <i_i_glide_posenum>  (162) 
2

>  <r_i_glide_eff_state_penalty>  (162) 
0

>  <ligand_id>  (162) 
50

>  <original_smiles>  (162) 
CC(=O)N1CCC2(CC1)OCCO2

>  <smiles>  (162) 
[H]C([H])([H])C(=O)N1C([H])([H])C([H])([H])C2(OC([H])([H])C([H])([H])O2)C([H])([H])C1([H])[H]

$$$$
50:0:1
     RDKit          3D

 28 29  0  0  1  0  0  0  0  0999 V2000
    4.5743   -6.2327    0.9602 C   0  0  0  0  0  0  0  0  0  0  0  0
    3.4350   -5.3358    0.4814 C   0  0  0  0  0  0  0  0  0  0  0  0
    2.2859   -5.6423    0.8097 O   0  0  0  0  0  0  0  0  0  0  0  0
    3.7116   -4.2472   -0.2738 N   0  0  0  0  0  0  0  0  0  0  0  0
    2.6597   -3.2891   -0.6361 C   0  0  0  0  0  0  0  0  0  0  0  0
    2.6099   -3.0580   -2.1468 C   0  0  0  0  0  0  0  0  0  0  0  0
    4.0006   -2.6136   -2.6666 C   0  0  0  0  0  0  0  0  0  0  0  0
    5.1058   -3.5799   -2.2162 C   0  0  0  0  0  0  0  0  0  0  0  0
    5.0557   -3.8080   -0.6897 C   0  0  0  0  0  0  0  0  0  0  0  0
    4.2938   -1.3445   -2.2005 O   0  0  0  0  0  0  0  0  0  0  0  0
    3.8102   -0.4415   -3.1712 C   0  0  0  0  0  0  0  0  0  0  0  0
    3.3761   -1.3213   -4.3274 C   0  0  0  0  0  0  0  0  0  0  0  0
    3.9795   -2.5612   -4.0499 O   0  0  0  0  0  0  0  0  0  0  0  0
    5.3562   -5.6480    1.4385 H   0  0  0  0  0  0  0  0  0  0  0  0
    4.9942   -6.7766    0.1178 H   0  0  0  0  0  0  0  0  0  0  0  0
    4.2123   -6.9572    1.6889 H   0  0  0  0  0  0  0  0  0  0  0  0
    1.6703   -3.6291   -0.3455 H   0  0  0  0  0  0  0  0  0  0  0  0
    2.8188   -2.3428   -0.1198 H   0  0  0  0  0  0  0  0  0  0  0  0
    2.3105   -3.9555   -2.6726 H   0  0  0  0  0  0  0  0  0  0  0  0
    1.8368   -2.3127   -2.3619 H   0  0  0  0  0  0  0  0  0  0  0  0
    4.9634   -4.5297   -2.7317 H   0  0  0  0  0  0  0  0  0  0  0  0
    6.0723   -3.1833   -2.5231 H   0  0  0  0  0  0  0  0  0  0  0  0
    5.2916   -2.8903   -0.1461 H   0  0  0  0  0  0  0  0  0  0  0  0
    5.8493   -4.5198   -0.4558 H   0  0  0  0  0  0  0  0  0  0  0  0
    2.9599    0.1269   -2.7883 H   0  0  0  0  0  0  0  0  0  0  0  0
    4.6031    0.2500   -3.4585 H   0  0  0  0  0  0  0  0  0  0  0  0
    2.2918   -1.4416   -4.3245 H   0  0  0  0  0  0  0  0  0  0  0  0
    3.6664   -0.9225   -5.2970 H   0  0  0  0  0  0  0  0  0  0  0  0
  1  2  1  0
  1 14  1  0
  1 15  1  0
  1 16  1  0
  2  3  2  0
  2  4  1  0
  4  9  1  0
  4  5  1  0
  5  6  1  0
  5 17  1  0
  5 18  1  0
  6  7  1  0
  6 19  1  0
  6 20  1  0
  7 13  1  0
  7  8  1  0
  7 10  1  0
  8  9  1  0
  8 21  1  0
  8 22  1  0
  9 23  1  0
  9 24  1  0
 10 11  1  0
 11 12  1  0
 11 25  1  0
 11 26  1  0
 12 13  1  0
 12 27  1  0
 12 28  1  0
M  END
>  <i_m_ct_stereo_status>  (163) 
1

>  <s_m_source_file>  (163) 
/var/tmp/pbs.5076255.sched01/tmp1pob34vh/39rbzpz6sd.sdf

>  <i_m_source_file_index>  (163) 
38

>  <i_lp_mmshare_version>  (163) 
48012

>  <i_f3d_flags>  (163) 
0

>  <s_epik_input>  (163) 
W0NIM11DKD1PKU4oW0NIMl1bQ0gyXTEpW0NIMl1bQ0gyXUMxMk9bQ0gyXVtDSDJdTzI=

>  <s_epik_cmdline>  (163) 
J2VwaWtfcHl0aG9uJywgJy1waHQnLCAnMi4wJywgJy1waCcsICc3LjAnLCAnLXRuJywgJzgnLCAnLW1hJywgJzIwMCcsICctaW1hZScsICc8aW5maWxlLm1hZT4nLCAnLW9tYWUnLCAnPG91dGZpbGUubWFlPic=

>  <r_lp_tautomer_probability>  (163) 
1

>  <r_epik_Ionization_Penalty>  (163) 
3.76039e-07

>  <r_epik_Ionization_Penalty_Charging>  (163) 
0

>  <r_epik_Ionization_Penalty_Neutral>  (163) 
3.76039e-07

>  <r_epik_State_Penalty>  (163) 
-0

>  <r_epik_Charging_Adjusted_Penalty>  (163) 
0

>  <i_epik_Tot_Q>  (163) 
0

>  <i_epik_Tot_abs_Q>  (163) 
0

>  <s_lp_Force_Field>  (163) 
OPLS3e

>  <r_lp_Energy>  (163) 
6.78577

>  <b_lp_Chiralities_Consistent>  (163) 
1

>  <s_lp_Variant>  (163) 
50:0-1

>  <s_i_glide_gridfile>  (163) 
pfpi4k_grid

>  <i_i_glide_lignum>  (163) 
38

>  <i_i_glide_rotatable_bonds>  (163) 
1

>  <r_i_docking_score>  (163) 
-4.46227

>  <r_i_glide_ligand_efficiency>  (163) 
-0.343252

>  <r_i_glide_ligand_efficiency_sa>  (163) 
-0.8071

>  <r_i_glide_ligand_efficiency_ln>  (163) 
-1.25171

>  <r_i_glide_gscore>  (163) 
-4.46227

>  <r_i_glide_lipo>  (163) 
-0.432993

>  <r_i_glide_hbond>  (163) 
-0.264483

>  <r_i_glide_metal>  (163) 
-0

>  <r_i_glide_rewards>  (163) 
-2.19906

>  <r_i_glide_evdw>  (163) 
-20.9801

>  <r_i_glide_ecoul>  (163) 
-3.216

>  <r_i_glide_erotb>  (163) 
0

>  <r_i_glide_esite>  (163) 
-0.0343293

>  <r_i_glide_emodel>  (163) 
-30.7267

>  <r_i_glide_energy>  (163) 
-24.1961

>  <r_i_glide_einternal>  (163) 
0.0273439

>  <r_i_glide_intrahb_reward>  (163) 
-0

>  <i_i_glide_confnum>  (163) 
2

>  <i_i_glide_posenum>  (163) 
10

>  <r_i_glide_eff_state_penalty>  (163) 
0

>  <ligand_id>  (163) 
50

>  <original_smiles>  (163) 
CC(=O)N1CCC2(CC1)OCCO2

>  <smiles>  (163) 
[H]C([H])([H])C(=O)N1C([H])([H])C([H])([H])C2(OC([H])([H])C([H])([H])O2)C([H])([H])C1([H])[H]

$$$$
50:0:2
     RDKit          3D

 28 29  0  0  1  0  0  0  0  0999 V2000
    3.5761   -1.0967   -4.1880 C   0  0  0  0  0  0  0  0  0  0  0  0
    4.1956   -2.3264   -3.5191 C   0  0  0  0  0  0  0  0  0  0  0  0
    4.2405   -3.3712   -4.1675 O   0  0  0  0  0  0  0  0  0  0  0  0
    4.7266   -2.2005   -2.2798 N   0  0  0  0  0  0  0  0  0  0  0  0
    4.5425   -1.0109   -1.4409 C   0  0  0  0  0  0  0  0  0  0  0  0
    3.9168   -1.4015   -0.0968 C   0  0  0  0  0  0  0  0  0  0  0  0
    4.8372   -2.4193    0.6098 C   0  0  0  0  0  0  0  0  0  0  0  0
    5.0665   -3.6534   -0.2899 C   0  0  0  0  0  0  0  0  0  0  0  0
    5.5949   -3.2212   -1.6740 C   0  0  0  0  0  0  0  0  0  0  0  0
    4.2456   -2.8135    1.7950 O   0  0  0  0  0  0  0  0  0  0  0  0
    4.7703   -1.9821    2.8102 C   0  0  0  0  0  0  0  0  0  0  0  0
    5.8115   -1.1100    2.1109 C   0  0  0  0  0  0  0  0  0  0  0  0
    6.0548   -1.8229    0.9158 O   0  0  0  0  0  0  0  0  0  0  0  0
    4.2265   -0.2274   -4.1002 H   0  0  0  0  0  0  0  0  0  0  0  0
    2.6155   -0.8592   -3.7322 H   0  0  0  0  0  0  0  0  0  0  0  0
    3.4117   -1.2709   -5.2490 H   0  0  0  0  0  0  0  0  0  0  0  0
    5.5061   -0.5261   -1.2967 H   0  0  0  0  0  0  0  0  0  0  0  0
    3.8938   -0.2557   -1.8797 H   0  0  0  0  0  0  0  0  0  0  0  0
    3.7566   -0.5117    0.5173 H   0  0  0  0  0  0  0  0  0  0  0  0
    2.9415   -1.8674   -0.2608 H   0  0  0  0  0  0  0  0  0  0  0  0
    5.7532   -4.3435    0.1980 H   0  0  0  0  0  0  0  0  0  0  0  0
    4.1206   -4.1826   -0.4102 H   0  0  0  0  0  0  0  0  0  0  0  0
    5.7032   -4.0981   -2.3120 H   0  0  0  0  0  0  0  0  0  0  0  0
    6.5945   -2.8015   -1.5723 H   0  0  0  0  0  0  0  0  0  0  0  0
    3.9779   -1.3855    3.2594 H   0  0  0  0  0  0  0  0  0  0  0  0
    5.2153   -2.6027    3.5855 H   0  0  0  0  0  0  0  0  0  0  0  0
    5.4121   -0.1232    1.8683 H   0  0  0  0  0  0  0  0  0  0  0  0
    6.7120   -0.9647    2.7140 H   0  0  0  0  0  0  0  0  0  0  0  0
  1  2  1  0
  1 14  1  0
  1 15  1  0
  1 16  1  0
  2  3  2  0
  2  4  1  0
  4  9  1  0
  4  5  1  0
  5  6  1  0
  5 17  1  0
  5 18  1  0
  6  7  1  0
  6 19  1  0
  6 20  1  0
  7 13  1  0
  7  8  1  0
  7 10  1  0
  8  9  1  0
  8 21  1  0
  8 22  1  0
  9 23  1  0
  9 24  1  0
 10 11  1  0
 11 12  1  0
 11 25  1  0
 11 26  1  0
 12 13  1  0
 12 27  1  0
 12 28  1  0
M  END
>  <i_m_ct_stereo_status>  (164) 
1

>  <s_m_source_file>  (164) 
/var/tmp/pbs.5076255.sched01/tmp1pob34vh/39rbzpz6sd.sdf

>  <i_m_source_file_index>  (164) 
38

>  <i_lp_mmshare_version>  (164) 
48012

>  <i_f3d_flags>  (164) 
0

>  <s_epik_input>  (164) 
W0NIM11DKD1PKU4oW0NIMl1bQ0gyXTEpW0NIMl1bQ0gyXUMxMk9bQ0gyXVtDSDJdTzI=

>  <s_epik_cmdline>  (164) 
J2VwaWtfcHl0aG9uJywgJy1waHQnLCAnMi4wJywgJy1waCcsICc3LjAnLCAnLXRuJywgJzgnLCAnLW1hJywgJzIwMCcsICctaW1hZScsICc8aW5maWxlLm1hZT4nLCAnLW9tYWUnLCAnPG91dGZpbGUubWFlPic=

>  <r_lp_tautomer_probability>  (164) 
1

>  <r_epik_Ionization_Penalty>  (164) 
3.76039e-07

>  <r_epik_Ionization_Penalty_Charging>  (164) 
0

>  <r_epik_Ionization_Penalty_Neutral>  (164) 
3.76039e-07

>  <r_epik_State_Penalty>  (164) 
-0

>  <r_epik_Charging_Adjusted_Penalty>  (164) 
0

>  <i_epik_Tot_Q>  (164) 
0

>  <i_epik_Tot_abs_Q>  (164) 
0

>  <s_lp_Force_Field>  (164) 
OPLS3e

>  <r_lp_Energy>  (164) 
6.78577

>  <b_lp_Chiralities_Consistent>  (164) 
1

>  <s_lp_Variant>  (164) 
50:0-1

>  <s_i_glide_gridfile>  (164) 
pfpi4k_grid

>  <i_i_glide_lignum>  (164) 
38

>  <i_i_glide_rotatable_bonds>  (164) 
1

>  <r_i_docking_score>  (164) 
-4.23713

>  <r_i_glide_ligand_efficiency>  (164) 
-0.325933

>  <r_i_glide_ligand_efficiency_sa>  (164) 
-0.766377

>  <r_i_glide_ligand_efficiency_ln>  (164) 
-1.18855

>  <r_i_glide_gscore>  (164) 
-4.23713

>  <r_i_glide_lipo>  (164) 
-0.386895

>  <r_i_glide_hbond>  (164) 
-0.119284

>  <r_i_glide_metal>  (164) 
-0

>  <r_i_glide_rewards>  (164) 
-2.47099

>  <r_i_glide_evdw>  (164) 
-21.571

>  <r_i_glide_ecoul>  (164) 
-1.20941

>  <r_i_glide_erotb>  (164) 
0

>  <r_i_glide_esite>  (164) 
0

>  <r_i_glide_emodel>  (164) 
-28.7282

>  <r_i_glide_energy>  (164) 
-22.7804

>  <r_i_glide_einternal>  (164) 
0.482322

>  <r_i_glide_intrahb_reward>  (164) 
-0

>  <i_i_glide_confnum>  (164) 
1

>  <i_i_glide_posenum>  (164) 
34

>  <r_i_glide_eff_state_penalty>  (164) 
0

>  <ligand_id>  (164) 
50

>  <original_smiles>  (164) 
CC(=O)N1CCC2(CC1)OCCO2

>  <smiles>  (164) 
[H]C([H])([H])C(=O)N1C([H])([H])C([H])([H])C2(OC([H])([H])C([H])([H])O2)C([H])([H])C1([H])[H]

$$$$
51:0:0
     RDKit          3D

 53 57  0  0  1  0  0  0  0  0999 V2000
    2.0807   -6.2039    2.7294 C   0  0  0  0  0  0  0  0  0  0  0  0
    2.5293   -5.2668    1.5890 C   0  0  2  0  0  0  0  0  0  0  0  0
    3.7459   -5.7962    0.8141 C   0  0  0  0  0  0  0  0  0  0  0  0
    4.6880   -4.5941    0.5715 C   0  0  1  0  0  0  0  0  0  0  0  0
    5.2375   -4.6610   -0.7167 O   0  0  0  0  0  0  0  0  0  0  0  0
    3.9049   -3.2887    0.9318 C   0  0  1  0  0  0  0  0  0  0  0  0
    3.0178   -3.8977    2.0579 C   0  0  1  0  0  0  0  0  0  0  0  0
    1.9957   -2.9331    2.6937 C   0  0  0  0  0  0  0  0  0  0  0  0
    2.7238   -1.7015    3.2300 C   0  0  1  0  0  0  0  0  0  0  0  0
    3.2893   -2.0803    4.4698 O   0  0  0  0  0  0  0  0  0  0  0  0
    3.7298   -1.0897    2.2307 C   0  0  1  0  0  0  0  0  0  0  0  0
    3.3586    0.2509    1.6300 C   0  0  0  0  0  0  0  0  0  0  0  0
    4.2843    0.1375    2.7110 O   0  0  0  0  0  0  0  0  0  0  0  0
    4.7217   -2.0968    1.5552 C   0  0  1  0  0  0  0  0  0  0  0  0
    5.7148   -2.5278    2.6300 C   0  0  0  0  0  0  0  0  0  0  0  0
    5.6448   -1.4210    0.4948 C   0  0  0  0  0  0  0  0  0  0  0  0
    5.2155   -1.5091   -0.9780 C   0  0  0  0  0  0  0  0  0  0  0  0
    3.7071   -1.6367   -1.1742 C   0  0  1  0  0  0  0  0  0  0  0  0
    3.2357   -1.9760   -2.6008 C   0  0  1  0  0  0  0  0  0  0  0  0
    4.2070   -1.7368   -3.7523 C   0  0  0  0  0  0  0  0  0  0  0  0
    2.9388   -3.3476   -2.5255 O   0  0  0  0  0  0  0  0  0  0  0  0
    2.3283   -3.5843   -1.2709 C   0  0  0  0  0  0  0  0  0  0  0  0
    3.0614   -2.6939   -0.2623 C   0  0  1  0  0  0  0  0  0  0  0  0
    2.8733   -6.3545    3.4650 H   0  0  0  0  0  0  0  0  0  0  0  0
    1.8068   -7.1840    2.3362 H   0  0  0  0  0  0  0  0  0  0  0  0
    1.2152   -5.8055    3.2600 H   0  0  0  0  0  0  0  0  0  0  0  0
    1.6891   -5.1345    0.9132 H   0  0  0  0  0  0  0  0  0  0  0  0
    4.2825   -6.5522    1.3921 H   0  0  0  0  0  0  0  0  0  0  0  0
    3.4350   -6.2823   -0.1124 H   0  0  0  0  0  0  0  0  0  0  0  0
    5.5150   -4.7360    1.2642 H   0  0  0  0  0  0  0  0  0  0  0  0
    4.5335   -4.7573   -1.3584 H   0  0  0  0  0  0  0  0  0  0  0  0
    3.6640   -4.1701    2.8869 H   0  0  0  0  0  0  0  0  0  0  0  0
    1.2611   -2.5814    1.9798 H   0  0  0  0  0  0  0  0  0  0  0  0
    1.4170   -3.4274    3.4800 H   0  0  0  0  0  0  0  0  0  0  0  0
    1.9681   -0.9391    3.4573 H   0  0  0  0  0  0  0  0  0  0  0  0
    2.5921   -2.3301    5.0675 H   0  0  0  0  0  0  0  0  0  0  0  0
    3.8183    0.6670    0.7520 H   0  0  0  0  0  0  0  0  0  0  0  0
    2.4054    0.7030    1.8999 H   0  0  0  0  0  0  0  0  0  0  0  0
    6.1568   -1.6267    3.0405 H   0  0  0  0  0  0  0  0  0  0  0  0
    6.5317   -3.1179    2.2153 H   0  0  0  0  0  0  0  0  0  0  0  0
    5.3301   -3.0903    3.4696 H   0  0  0  0  0  0  0  0  0  0  0  0
    5.8046   -0.3781    0.7517 H   0  0  0  0  0  0  0  0  0  0  0  0
    6.6569   -1.8281    0.5291 H   0  0  0  0  0  0  0  0  0  0  0  0
    5.5788   -0.6247   -1.5107 H   0  0  0  0  0  0  0  0  0  0  0  0
    5.7087   -2.3582   -1.4409 H   0  0  0  0  0  0  0  0  0  0  0  0
    3.2693   -0.6592   -0.9589 H   0  0  0  0  0  0  0  0  0  0  0  0
    2.2995   -1.4438   -2.7862 H   0  0  0  0  0  0  0  0  0  0  0  0
    4.5253   -0.6991   -3.8174 H   0  0  0  0  0  0  0  0  0  0  0  0
    3.7478   -2.0112   -4.6957 H   0  0  0  0  0  0  0  0  0  0  0  0
    5.0900   -2.3638   -3.6288 H   0  0  0  0  0  0  0  0  0  0  0  0
    1.2706   -3.3242   -1.3328 H   0  0  0  0  0  0  0  0  0  0  0  0
    2.3785   -4.6414   -1.0732 H   0  0  0  0  0  0  0  0  0  0  0  0
    2.2906   -2.1320    0.2317 H   0  0  0  0  0  0  0  0  0  0  0  0
  1  2  1  0
  1 24  1  0
  1 25  1  0
  1 26  1  0
  2  7  1  0
  2  3  1  0
  2 27  1  6
  3  4  1  0
  3 28  1  0
  3 29  1  0
  4  5  1  0
  4  6  1  0
  4 30  1  1
  5 31  1  0
  6 14  1  1
  6 23  1  0
  6  7  1  0
  7  8  1  0
  7 32  1  1
  8  9  1  0
  8 33  1  0
  8 34  1  0
  9 10  1  0
  9 11  1  0
  9 35  1  1
 10 36  1  0
 11 13  1  1
 11 12  1  0
 11 14  1  0
 12 13  1  0
 12 37  1  0
 12 38  1  0
 14 15  1  1
 14 16  1  0
 15 39  1  0
 15 40  1  0
 15 41  1  0
 16 17  1  0
 16 42  1  0
 16 43  1  0
 17 18  1  0
 17 44  1  0
 17 45  1  0
 18 23  1  0
 18 19  1  0
 18 46  1  1
 19 20  1  0
 19 21  1  0
 19 47  1  6
 20 48  1  0
 20 49  1  0
 20 50  1  0
 21 22  1  0
 22 23  1  0
 22 51  1  0
 22 52  1  0
 23 53  1  1
M  END
>  <i_m_ct_stereo_status>  (165) 
1

>  <s_m_source_file>  (165) 
/var/tmp/pbs.5076255.sched01/tmp1pob34vh/39rbzpz6sd.sdf

>  <i_m_source_file_index>  (165) 
39

>  <i_lp_mmshare_version>  (165) 
48012

>  <i_f3d_flags>  (165) 
0

>  <s_epik_input>  (165) 
W09IXVtDQEBIXTFbQ0gyXVtDQEBIXShbQ0gzXSlbQ0BASF0oW0NAXTEyMylbQ0gyXVtDQEBIXShbT0hdKVtDQF00KFtDSDJdTzQpW0NAXTIoW0NIM10pW0NIMl1bQ0gyXVtDQEBIXTVbQ0BIXTNbQ0gyXU9bQ0BASF01W0NIM10=

>  <s_epik_cmdline>  (165) 
J2VwaWtfcHl0aG9uJywgJy1waHQnLCAnMi4wJywgJy1waCcsICc3LjAnLCAnLXRuJywgJzgnLCAnLW1hJywgJzIwMCcsICctaW1hZScsICc8aW5maWxlLm1hZT4nLCAnLW9tYWUnLCAnPG91dGZpbGUubWFlPic=

>  <r_lp_tautomer_probability>  (165) 
1

>  <r_epik_Ionization_Penalty>  (165) 
1.01691e-06

>  <r_epik_Ionization_Penalty_Charging>  (165) 
0

>  <r_epik_Ionization_Penalty_Neutral>  (165) 
1.01691e-06

>  <r_epik_State_Penalty>  (165) 
-0

>  <r_epik_Charging_Adjusted_Penalty>  (165) 
0

>  <i_epik_Tot_Q>  (165) 
0

>  <i_epik_Tot_abs_Q>  (165) 
0

>  <s_lp_Force_Field>  (165) 
OPLS3e

>  <r_lp_Energy>  (165) 
49.3841

>  <b_lp_Chiralities_Consistent>  (165) 
1

>  <s_lp_Variant>  (165) 
51:0-1

>  <s_i_glide_gridfile>  (165) 
pfpi4k_grid

>  <i_i_glide_lignum>  (165) 
39

>  <i_i_glide_rotatable_bonds>  (165) 
2

>  <r_i_docking_score>  (165) 
-2.99079

>  <r_i_glide_ligand_efficiency>  (165) 
-0.130034

>  <r_i_glide_ligand_efficiency_sa>  (165) 
-0.369801

>  <r_i_glide_ligand_efficiency_ln>  (165) 
-0.723201

>  <r_i_glide_gscore>  (165) 
-2.99079

>  <r_i_glide_lipo>  (165) 
-0.426014

>  <r_i_glide_hbond>  (165) 
0

>  <r_i_glide_metal>  (165) 
-0

>  <r_i_glide_rewards>  (165) 
-1.21064

>  <r_i_glide_evdw>  (165) 
-22.1496

>  <r_i_glide_ecoul>  (165) 
-1.64438

>  <r_i_glide_erotb>  (165) 
0

>  <r_i_glide_esite>  (165) 
0

>  <r_i_glide_emodel>  (165) 
-26.9767

>  <r_i_glide_energy>  (165) 
-23.794

>  <r_i_glide_einternal>  (165) 
0.461412

>  <r_i_glide_intrahb_reward>  (165) 
-0

>  <i_i_glide_confnum>  (165) 
2

>  <i_i_glide_posenum>  (165) 
14

>  <r_i_glide_eff_state_penalty>  (165) 
0

>  <ligand_id>  (165) 
51

>  <original_smiles>  (165) 
CC1CC(O)C23C1CC(O)C1(CO1)C2(C)CCC1C(C)OCC13

>  <smiles>  (165) 
[H]OC1([H])C([H])([H])C2([H])C([H])(C([H])([H])[H])C([H])([H])C([H])(O[H])C23C2([H])C([H])([H])OC([H])(C([H])([H])[H])C2([H])C([H])([H])C([H])([H])C3(C([H])([H])[H])C12OC2([H])[H]

$$$$
51:0:1
     RDKit          3D

 53 57  0  0  1  0  0  0  0  0999 V2000
    2.3347   -6.1702    3.0015 C   0  0  0  0  0  0  0  0  0  0  0  0
    2.7084   -5.2428    1.8289 C   0  0  2  0  0  0  0  0  0  0  0  0
    3.9658   -5.7101    1.0744 C   0  0  0  0  0  0  0  0  0  0  0  0
    4.8112   -4.4469    0.7921 C   0  0  1  0  0  0  0  0  0  0  0  0
    5.3788   -4.5179   -0.4948 O   0  0  0  0  0  0  0  0  0  0  0  0
    3.9412   -3.1901    1.1115 C   0  0  1  0  0  0  0  0  0  0  0  0
    3.0926   -3.8259    2.2607 C   0  0  1  0  0  0  0  0  0  0  0  0
    2.0007   -2.9174    2.8457 C   0  0  0  0  0  0  0  0  0  0  0  0
    2.6197   -1.6109    3.3557 C   0  0  1  0  0  0  0  0  0  0  0  0
    3.2087   -1.8866    4.6143 O   0  0  0  0  0  0  0  0  0  0  0  0
    3.5881   -0.9670    2.3454 C   0  0  1  0  0  0  0  0  0  0  0  0
    3.1396    0.3341    1.7040 C   0  0  0  0  0  0  0  0  0  0  0  0
    4.0634    0.3090    2.7989 O   0  0  0  0  0  0  0  0  0  0  0  0
    4.6641   -1.9168    1.7079 C   0  0  1  0  0  0  0  0  0  0  0  0
    5.6772   -2.2405    2.8071 C   0  0  0  0  0  0  0  0  0  0  0  0
    5.5397   -1.2079    0.6190 C   0  0  0  0  0  0  0  0  0  0  0  0
    5.1304   -1.3884   -0.8445 C   0  0  0  0  0  0  0  0  0  0  0  0
    3.6353   -1.6139   -1.0404 C   0  0  1  0  0  0  0  0  0  0  0  0
    3.2052   -2.0407   -2.4537 C   0  0  1  0  0  0  0  0  0  0  0  0
    4.1744   -1.7709   -3.6134 C   0  0  0  0  0  0  0  0  0  0  0  0
    3.0247   -3.4334   -2.3342 O   0  0  0  0  0  0  0  0  0  0  0  0
    2.4135   -3.6758   -1.0813 C   0  0  0  0  0  0  0  0  0  0  0  0
    3.0491   -2.6874   -0.1031 C   0  0  1  0  0  0  0  0  0  0  0  0
    3.1379   -6.2370    3.7376 H   0  0  0  0  0  0  0  0  0  0  0  0
    2.1312   -7.1803    2.6439 H   0  0  0  0  0  0  0  0  0  0  0  0
    1.4428   -5.8178    3.5207 H   0  0  0  0  0  0  0  0  0  0  0  0
    1.8534   -5.1881    1.1591 H   0  0  0  0  0  0  0  0  0  0  0  0
    4.5534   -6.4007    1.6778 H   0  0  0  0  0  0  0  0  0  0  0  0
    3.6990   -6.2537    0.1656 H   0  0  0  0  0  0  0  0  0  0  0  0
    5.6473   -4.5108    1.4880 H   0  0  0  0  0  0  0  0  0  0  0  0
    4.6825   -4.5843   -1.1346 H   0  0  0  0  0  0  0  0  0  0  0  0
    3.7612   -4.0290    3.0952 H   0  0  0  0  0  0  0  0  0  0  0  0
    1.2333   -2.6673    2.1187 H   0  0  0  0  0  0  0  0  0  0  0  0
    1.4670   -3.4244    3.6613 H   0  0  0  0  0  0  0  0  0  0  0  0
    1.8148   -0.9073    3.5504 H   0  0  0  0  0  0  0  0  0  0  0  0
    4.0083   -2.3724    4.4814 H   0  0  0  0  0  0  0  0  0  0  0  0
    3.5952    0.7457    0.8109 H   0  0  0  0  0  0  0  0  0  0  0  0
    2.1639    0.7221    1.9454 H   0  0  0  0  0  0  0  0  0  0  0  0
    6.0883   -1.3135    3.1941 H   0  0  0  0  0  0  0  0  0  0  0  0
    6.5122   -2.8033    2.4015 H   0  0  0  0  0  0  0  0  0  0  0  0
    5.3238   -2.8041    3.6596 H   0  0  0  0  0  0  0  0  0  0  0  0
    5.6362   -0.1540    0.8439 H   0  0  0  0  0  0  0  0  0  0  0  0
    6.5780   -1.5546    0.6710 H   0  0  0  0  0  0  0  0  0  0  0  0
    5.4325   -0.5028   -1.4008 H   0  0  0  0  0  0  0  0  0  0  0  0
    5.6847   -2.2118   -1.2806 H   0  0  0  0  0  0  0  0  0  0  0  0
    3.1359   -0.6607   -0.8575 H   0  0  0  0  0  0  0  0  0  0  0  0
    2.2388   -1.5899   -2.6798 H   0  0  0  0  0  0  0  0  0  0  0  0
    4.4104   -0.7109   -3.7102 H   0  0  0  0  0  0  0  0  0  0  0  0
    3.7326   -2.1020   -4.5484 H   0  0  0  0  0  0  0  0  0  0  0  0
    5.1027   -2.3219   -3.4823 H   0  0  0  0  0  0  0  0  0  0  0  0
    1.3403   -3.4905   -1.1636 H   0  0  0  0  0  0  0  0  0  0  0  0
    2.5375   -4.7144   -0.8255 H   0  0  0  0  0  0  0  0  0  0  0  0
    2.2137   -2.1812    0.3558 H   0  0  0  0  0  0  0  0  0  0  0  0
  1  2  1  0
  1 24  1  0
  1 25  1  0
  1 26  1  0
  2  7  1  0
  2  3  1  0
  2 27  1  6
  3  4  1  0
  3 28  1  0
  3 29  1  0
  4  5  1  0
  4  6  1  0
  4 30  1  1
  5 31  1  0
  6 14  1  1
  6 23  1  0
  6  7  1  0
  7  8  1  0
  7 32  1  1
  8  9  1  0
  8 33  1  0
  8 34  1  0
  9 10  1  0
  9 11  1  0
  9 35  1  1
 10 36  1  0
 11 13  1  1
 11 12  1  0
 11 14  1  0
 12 13  1  0
 12 37  1  0
 12 38  1  0
 14 15  1  1
 14 16  1  0
 15 39  1  0
 15 40  1  0
 15 41  1  0
 16 17  1  0
 16 42  1  0
 16 43  1  0
 17 18  1  0
 17 44  1  0
 17 45  1  0
 18 23  1  0
 18 19  1  0
 18 46  1  1
 19 20  1  0
 19 21  1  0
 19 47  1  6
 20 48  1  0
 20 49  1  0
 20 50  1  0
 21 22  1  0
 22 23  1  0
 22 51  1  0
 22 52  1  0
 23 53  1  1
M  END
>  <i_m_ct_stereo_status>  (166) 
1

>  <s_m_source_file>  (166) 
/var/tmp/pbs.5076255.sched01/tmp1pob34vh/39rbzpz6sd.sdf

>  <i_m_source_file_index>  (166) 
39

>  <i_lp_mmshare_version>  (166) 
48012

>  <i_f3d_flags>  (166) 
0

>  <s_epik_input>  (166) 
W09IXVtDQEBIXTFbQ0gyXVtDQEBIXShbQ0gzXSlbQ0BASF0oW0NAXTEyMylbQ0gyXVtDQEBIXShbT0hdKVtDQF00KFtDSDJdTzQpW0NAXTIoW0NIM10pW0NIMl1bQ0gyXVtDQEBIXTVbQ0BIXTNbQ0gyXU9bQ0BASF01W0NIM10=

>  <s_epik_cmdline>  (166) 
J2VwaWtfcHl0aG9uJywgJy1waHQnLCAnMi4wJywgJy1waCcsICc3LjAnLCAnLXRuJywgJzgnLCAnLW1hJywgJzIwMCcsICctaW1hZScsICc8aW5maWxlLm1hZT4nLCAnLW9tYWUnLCAnPG91dGZpbGUubWFlPic=

>  <r_lp_tautomer_probability>  (166) 
1

>  <r_epik_Ionization_Penalty>  (166) 
1.01691e-06

>  <r_epik_Ionization_Penalty_Charging>  (166) 
0

>  <r_epik_Ionization_Penalty_Neutral>  (166) 
1.01691e-06

>  <r_epik_State_Penalty>  (166) 
-0

>  <r_epik_Charging_Adjusted_Penalty>  (166) 
0

>  <i_epik_Tot_Q>  (166) 
0

>  <i_epik_Tot_abs_Q>  (166) 
0

>  <s_lp_Force_Field>  (166) 
OPLS3e

>  <r_lp_Energy>  (166) 
49.3841

>  <b_lp_Chiralities_Consistent>  (166) 
1

>  <s_lp_Variant>  (166) 
51:0-1

>  <s_i_glide_gridfile>  (166) 
pfpi4k_grid

>  <i_i_glide_lignum>  (166) 
39

>  <i_i_glide_rotatable_bonds>  (166) 
2

>  <r_i_docking_score>  (166) 
-2.97828

>  <r_i_glide_ligand_efficiency>  (166) 
-0.12949

>  <r_i_glide_ligand_efficiency_sa>  (166) 
-0.368253

>  <r_i_glide_ligand_efficiency_ln>  (166) 
-0.720175

>  <r_i_glide_gscore>  (166) 
-2.97828

>  <r_i_glide_lipo>  (166) 
-0.562132

>  <r_i_glide_hbond>  (166) 
0

>  <r_i_glide_metal>  (166) 
-0

>  <r_i_glide_rewards>  (166) 
-1.21064

>  <r_i_glide_evdw>  (166) 
-21.3808

>  <r_i_glide_ecoul>  (166) 
-0.909764

>  <r_i_glide_erotb>  (166) 
0

>  <r_i_glide_esite>  (166) 
0

>  <r_i_glide_emodel>  (166) 
-25.6769

>  <r_i_glide_energy>  (166) 
-22.2906

>  <r_i_glide_einternal>  (166) 
0.0651741

>  <r_i_glide_intrahb_reward>  (166) 
-0

>  <i_i_glide_confnum>  (166) 
1

>  <i_i_glide_posenum>  (166) 
19

>  <r_i_glide_eff_state_penalty>  (166) 
0

>  <ligand_id>  (166) 
51

>  <original_smiles>  (166) 
CC1CC(O)C23C1CC(O)C1(CO1)C2(C)CCC1C(C)OCC13

>  <smiles>  (166) 
[H]OC1([H])C([H])([H])C2([H])C([H])(C([H])([H])[H])C([H])([H])C([H])(O[H])C23C2([H])C([H])([H])OC([H])(C([H])([H])[H])C2([H])C([H])([H])C([H])([H])C3(C([H])([H])[H])C12OC2([H])[H]

$$$$
51:0:2
     RDKit          3D

 53 57  0  0  1  0  0  0  0  0999 V2000
    1.9662   -6.0871    2.7343 C   0  0  0  0  0  0  0  0  0  0  0  0
    2.4262   -5.1997    1.5639 C   0  0  2  0  0  0  0  0  0  0  0  0
    3.5959   -5.7977    0.7692 C   0  0  0  0  0  0  0  0  0  0  0  0
    4.5764   -4.6416    0.4777 C   0  0  1  0  0  0  0  0  0  0  0  0
    5.0803   -4.7530   -0.8283 O   0  0  0  0  0  0  0  0  0  0  0  0
    3.8709   -3.2981    0.8256 C   0  0  1  0  0  0  0  0  0  0  0  0
    2.9844   -3.8405    1.9920 C   0  0  1  0  0  0  0  0  0  0  0  0
    2.0318   -2.8154    2.6246 C   0  0  0  0  0  0  0  0  0  0  0  0
    2.8268   -1.6025    3.1096 C   0  0  1  0  0  0  0  0  0  0  0  0
    3.4135   -1.9431    4.3494 O   0  0  0  0  0  0  0  0  0  0  0  0
    3.8437   -1.0756    2.0838 C   0  0  1  0  0  0  0  0  0  0  0  0
    3.5322    0.2733    1.4654 C   0  0  0  0  0  0  0  0  0  0  0  0
    4.4757    0.1259    2.5342 O   0  0  0  0  0  0  0  0  0  0  0  0
    4.7605   -2.1412    1.4029 C   0  0  1  0  0  0  0  0  0  0  0  0
    5.7714   -2.6027    2.4638 C   0  0  0  0  0  0  0  0  0  0  0  0
    5.6952   -1.5317    0.3041 C   0  0  0  0  0  0  0  0  0  0  0  0
    5.2228   -1.6252   -1.1505 C   0  0  0  0  0  0  0  0  0  0  0  0
    3.7030   -1.6744   -1.3028 C   0  0  1  0  0  0  0  0  0  0  0  0
    3.1875   -2.0215   -2.7054 C   0  0  1  0  0  0  0  0  0  0  0  0
    4.1500   -1.8521   -3.8823 C   0  0  0  0  0  0  0  0  0  0  0  0
    2.8395   -3.3803   -2.6029 O   0  0  0  0  0  0  0  0  0  0  0  0
    2.2345   -3.5694   -1.3371 C   0  0  0  0  0  0  0  0  0  0  0  0
    3.0133   -2.6845   -0.3562 C   0  0  1  0  0  0  0  0  0  0  0  0
    2.7702   -6.2620    3.4509 H   0  0  0  0  0  0  0  0  0  0  0  0
    1.6309   -7.0572    2.3664 H   0  0  0  0  0  0  0  0  0  0  0  0
    1.1351   -5.6317    3.2772 H   0  0  0  0  0  0  0  0  0  0  0  0
    1.5743   -5.0572    0.9074 H   0  0  0  0  0  0  0  0  0  0  0  0
    4.1096   -6.5704    1.3382 H   0  0  0  0  0  0  0  0  0  0  0  0
    3.2335   -6.2635   -0.1426 H   0  0  0  0  0  0  0  0  0  0  0  0
    5.4172   -4.8113    1.1449 H   0  0  0  0  0  0  0  0  0  0  0  0
    4.3630   -4.8941   -1.4323 H   0  0  0  0  0  0  0  0  0  0  0  0
    3.6456   -4.1237    2.8088 H   0  0  0  0  0  0  0  0  0  0  0  0
    1.2904   -2.4498    1.9208 H   0  0  0  0  0  0  0  0  0  0  0  0
    1.4616   -3.2594    3.4483 H   0  0  0  0  0  0  0  0  0  0  0  0
    2.1132   -0.8009    3.3256 H   0  0  0  0  0  0  0  0  0  0  0  0
    3.8374   -1.1679    4.6808 H   0  0  0  0  0  0  0  0  0  0  0  0
    4.0025    0.6407    0.5650 H   0  0  0  0  0  0  0  0  0  0  0  0
    2.6151    0.7802    1.7496 H   0  0  0  0  0  0  0  0  0  0  0  0
    6.2770   -1.7205    2.8145 H   0  0  0  0  0  0  0  0  0  0  0  0
    6.5271   -3.2667    2.0584 H   0  0  0  0  0  0  0  0  0  0  0  0
    5.3678   -3.0998    3.3411 H   0  0  0  0  0  0  0  0  0  0  0  0
    5.9191   -0.4958    0.5376 H   0  0  0  0  0  0  0  0  0  0  0  0
    6.6821   -1.9972    0.3213 H   0  0  0  0  0  0  0  0  0  0  0  0
    5.6168   -0.7742   -1.7113 H   0  0  0  0  0  0  0  0  0  0  0  0
    5.6520   -2.5045   -1.6103 H   0  0  0  0  0  0  0  0  0  0  0  0
    3.3225   -0.6757   -1.1005 H   0  0  0  0  0  0  0  0  0  0  0  0
    2.2748   -1.4515   -2.8904 H   0  0  0  0  0  0  0  0  0  0  0  0
    4.5124   -0.8298   -3.9856 H   0  0  0  0  0  0  0  0  0  0  0  0
    3.6258   -2.1186   -4.7889 H   0  0  0  0  0  0  0  0  0  0  0  0
    5.0025   -2.5183   -3.7858 H   0  0  0  0  0  0  0  0  0  0  0  0
    1.1890   -3.2595   -1.3896 H   0  0  0  0  0  0  0  0  0  0  0  0
    2.2321   -4.6250   -1.1093 H   0  0  0  0  0  0  0  0  0  0  0  0
    2.2377   -2.1048    0.1235 H   0  0  0  0  0  0  0  0  0  0  0  0
  1  2  1  0
  1 24  1  0
  1 25  1  0
  1 26  1  0
  2  7  1  0
  2  3  1  0
  2 27  1  6
  3  4  1  0
  3 28  1  0
  3 29  1  0
  4  5  1  0
  4  6  1  0
  4 30  1  1
  5 31  1  0
  6 14  1  1
  6 23  1  0
  6  7  1  0
  7  8  1  0
  7 32  1  1
  8  9  1  0
  8 33  1  0
  8 34  1  0
  9 10  1  0
  9 11  1  0
  9 35  1  1
 10 36  1  0
 11 13  1  1
 11 12  1  0
 11 14  1  0
 12 13  1  0
 12 37  1  0
 12 38  1  0
 14 15  1  1
 14 16  1  0
 15 39  1  0
 15 40  1  0
 15 41  1  0
 16 17  1  0
 16 42  1  0
 16 43  1  0
 17 18  1  0
 17 44  1  0
 17 45  1  0
 18 23  1  0
 18 19  1  0
 18 46  1  1
 19 20  1  0
 19 21  1  0
 19 47  1  6
 20 48  1  0
 20 49  1  0
 20 50  1  0
 21 22  1  0
 22 23  1  0
 22 51  1  0
 22 52  1  0
 23 53  1  1
M  END
>  <i_m_ct_stereo_status>  (167) 
1

>  <s_m_source_file>  (167) 
/var/tmp/pbs.5076255.sched01/tmp1pob34vh/39rbzpz6sd.sdf

>  <i_m_source_file_index>  (167) 
39

>  <i_lp_mmshare_version>  (167) 
48012

>  <i_f3d_flags>  (167) 
0

>  <s_epik_input>  (167) 
W09IXVtDQEBIXTFbQ0gyXVtDQEBIXShbQ0gzXSlbQ0BASF0oW0NAXTEyMylbQ0gyXVtDQEBIXShbT0hdKVtDQF00KFtDSDJdTzQpW0NAXTIoW0NIM10pW0NIMl1bQ0gyXVtDQEBIXTVbQ0BIXTNbQ0gyXU9bQ0BASF01W0NIM10=

>  <s_epik_cmdline>  (167) 
J2VwaWtfcHl0aG9uJywgJy1waHQnLCAnMi4wJywgJy1waCcsICc3LjAnLCAnLXRuJywgJzgnLCAnLW1hJywgJzIwMCcsICctaW1hZScsICc8aW5maWxlLm1hZT4nLCAnLW9tYWUnLCAnPG91dGZpbGUubWFlPic=

>  <r_lp_tautomer_probability>  (167) 
1

>  <r_epik_Ionization_Penalty>  (167) 
1.01691e-06

>  <r_epik_Ionization_Penalty_Charging>  (167) 
0

>  <r_epik_Ionization_Penalty_Neutral>  (167) 
1.01691e-06

>  <r_epik_State_Penalty>  (167) 
-0

>  <r_epik_Charging_Adjusted_Penalty>  (167) 
0

>  <i_epik_Tot_Q>  (167) 
0

>  <i_epik_Tot_abs_Q>  (167) 
0

>  <s_lp_Force_Field>  (167) 
OPLS3e

>  <r_lp_Energy>  (167) 
49.3841

>  <b_lp_Chiralities_Consistent>  (167) 
1

>  <s_lp_Variant>  (167) 
51:0-1

>  <s_i_glide_gridfile>  (167) 
pfpi4k_grid

>  <i_i_glide_lignum>  (167) 
39

>  <i_i_glide_rotatable_bonds>  (167) 
2

>  <r_i_docking_score>  (167) 
-2.9311

>  <r_i_glide_ligand_efficiency>  (167) 
-0.127439

>  <r_i_glide_ligand_efficiency_sa>  (167) 
-0.36242

>  <r_i_glide_ligand_efficiency_ln>  (167) 
-0.708768

>  <r_i_glide_gscore>  (167) 
-2.9311

>  <r_i_glide_lipo>  (167) 
-0.316843

>  <r_i_glide_hbond>  (167) 
-0.027402

>  <r_i_glide_metal>  (167) 
-0

>  <r_i_glide_rewards>  (167) 
-1.21064

>  <r_i_glide_evdw>  (167) 
-22.0519

>  <r_i_glide_ecoul>  (167) 
-1.82413

>  <r_i_glide_erotb>  (167) 
0

>  <r_i_glide_esite>  (167) 
0

>  <r_i_glide_emodel>  (167) 
-26.9807

>  <r_i_glide_energy>  (167) 
-23.8761

>  <r_i_glide_einternal>  (167) 
0.538505

>  <r_i_glide_intrahb_reward>  (167) 
-0

>  <i_i_glide_confnum>  (167) 
2

>  <i_i_glide_posenum>  (167) 
1

>  <r_i_glide_eff_state_penalty>  (167) 
0

>  <ligand_id>  (167) 
51

>  <original_smiles>  (167) 
CC1CC(O)C23C1CC(O)C1(CO1)C2(C)CCC1C(C)OCC13

>  <smiles>  (167) 
[H]OC1([H])C([H])([H])C2([H])C([H])(C([H])([H])[H])C([H])([H])C([H])(O[H])C23C2([H])C([H])([H])OC([H])(C([H])([H])[H])C2([H])C([H])([H])C([H])([H])C3(C([H])([H])[H])C12OC2([H])[H]

$$$$
52:0:0
     RDKit          3D

 48 52  0  0  1  0  0  0  0  0999 V2000
    6.9783   -4.9525    1.6021 C   0  0  0  0  0  0  0  0  0  0  0  0
    5.8261   -4.9345    2.6200 C   0  0  0  0  0  0  0  0  0  0  0  0
    6.0142   -5.3683    3.7638 O   0  0  0  0  0  0  0  0  0  0  0  0
    4.4168   -4.3661    2.2137 C   0  0  2  0  0  0  0  0  0  0  0  0
    4.3035   -3.3863    1.0324 C   0  0  1  0  0  0  0  0  0  0  0  0
    5.2867   -2.4165    0.6127 C   0  0  0  0  0  0  0  0  0  0  0  0
    5.6344   -2.0333    1.8740 C   0  0  0  0  0  0  0  0  0  0  0  0
    4.9090   -2.4031    3.2596 C   0  0  1  0  0  0  0  0  0  0  0  0
    5.0058   -1.3234    4.1739 O   0  0  0  0  0  0  0  0  0  0  0  0
    3.5627   -3.4344    3.3149 C   0  0  2  0  0  0  0  0  0  0  0  0
    2.7033   -1.9994    3.1143 C   0  0  0  0  0  0  0  0  0  0  0  0
    2.9988   -1.1090    1.8295 C   0  0  0  0  0  0  0  0  0  0  0  0
    3.2686   -2.1622    0.7174 C   0  0  1  0  0  0  0  0  0  0  0  0
    4.0562   -2.3768   -0.5061 C   0  0  1  0  0  0  0  0  0  0  0  0
    4.1786   -1.2825   -1.5616 C   0  0  0  0  0  0  0  0  0  0  0  0
    3.3031   -3.7589   -1.0787 C   0  0  0  0  0  0  0  0  0  0  0  0
    2.3171   -4.5389   -0.1385 O   0  0  0  0  0  0  0  0  0  0  0  0
    2.4271   -5.1726    1.2769 C   0  0  2  0  0  0  0  0  0  0  0  0
    2.2711   -4.3565    2.6857 C   0  0  0  0  0  0  0  0  0  0  0  0
    3.7791   -5.7123    1.6276 C   0  0  0  0  0  0  0  0  0  0  0  0
    4.4699   -6.3345    0.3739 C   0  0  0  0  0  0  0  0  0  0  0  0
    3.6658   -6.9160    2.6294 C   0  0  0  0  0  0  0  0  0  0  0  0
    6.6543   -4.6703    0.6024 H   0  0  0  0  0  0  0  0  0  0  0  0
    7.3988   -5.9531    1.5510 H   0  0  0  0  0  0  0  0  0  0  0  0
    7.7600   -4.2529    1.8910 H   0  0  0  0  0  0  0  0  0  0  0  0
    3.3500   -3.1999    1.2796 H   0  0  0  0  0  0  0  0  0  0  0  0
    6.6282   -1.6251    2.0279 H   0  0  0  0  0  0  0  0  0  0  0  0
    5.6657   -2.8942    3.8449 H   0  0  0  0  0  0  0  0  0  0  0  0
    4.3412   -0.6999    3.9491 H   0  0  0  0  0  0  0  0  0  0  0  0
    1.6288   -2.1049    3.0587 H   0  0  0  0  0  0  0  0  0  0  0  0
    2.6845   -1.3720    4.0067 H   0  0  0  0  0  0  0  0  0  0  0  0
    2.1359   -0.5045    1.5486 H   0  0  0  0  0  0  0  0  0  0  0  0
    3.7977   -0.3749    1.9382 H   0  0  0  0  0  0  0  0  0  0  0  0
    2.2447   -2.2556    0.2744 H   0  0  0  0  0  0  0  0  0  0  0  0
    3.2161   -1.1079   -2.0433 H   0  0  0  0  0  0  0  0  0  0  0  0
    4.8754   -1.5898   -2.3277 H   0  0  0  0  0  0  0  0  0  0  0  0
    4.5064   -0.3350   -1.1435 H   0  0  0  0  0  0  0  0  0  0  0  0
    2.6722   -3.4912   -1.9300 H   0  0  0  0  0  0  0  0  0  0  0  0
    4.0670   -4.3902   -1.5186 H   0  0  0  0  0  0  0  0  0  0  0  0
    1.7006   -5.9766    1.2688 H   0  0  0  0  0  0  0  0  0  0  0  0
    2.1013   -5.0838    3.4760 H   0  0  0  0  0  0  0  0  0  0  0  0
    1.2781   -3.9312    2.6551 H   0  0  0  0  0  0  0  0  0  0  0  0
    3.7678   -6.8446   -0.2768 H   0  0  0  0  0  0  0  0  0  0  0  0
    5.2317   -7.0648    0.6426 H   0  0  0  0  0  0  0  0  0  0  0  0
    4.9906   -5.6193   -0.2440 H   0  0  0  0  0  0  0  0  0  0  0  0
    2.8826   -7.6072    2.3106 H   0  0  0  0  0  0  0  0  0  0  0  0
    3.4706   -6.6382    3.6636 H   0  0  0  0  0  0  0  0  0  0  0  0
    4.5860   -7.4997    2.6690 H   0  0  0  0  0  0  0  0  0  0  0  0
  1  2  1  0
  1 23  1  0
  1 24  1  0
  1 25  1  0
  2  3  2  0
  4  2  1  1
  4 10  1  0
  4 20  1  0
  4  5  1  0
  5 13  1  0
  5  6  1  0
  5 26  1  6
  6 14  1  0
  6  7  2  0
  7  8  1  0
  7 27  1  0
  8  9  1  0
  8 10  1  0
  8 28  1  1
  9 29  1  0
 10 19  1  6
 10 11  1  0
 11 12  1  0
 11 30  1  0
 11 31  1  0
 12 13  1  0
 12 32  1  0
 12 33  1  0
 13 14  1  0
 13 34  1  6
 14 15  1  6
 14 16  1  0
 15 35  1  0
 15 36  1  0
 15 37  1  0
 16 17  1  0
 16 38  1  0
 16 39  1  0
 17 18  1  0
 18 19  1  0
 18 20  1  0
 18 40  1  6
 19 41  1  0
 19 42  1  0
 20 21  1  0
 20 22  1  0
 21 43  1  0
 21 44  1  0
 21 45  1  0
 22 46  1  0
 22 47  1  0
 22 48  1  0
M  END
>  <i_m_ct_stereo_status>  (168) 
1

>  <s_m_source_file>  (168) 
/var/tmp/pbs.5076255.sched01/tmp378oxcv0/78pm6kuo1p.sdf

>  <i_m_source_file_index>  (168) 
1

>  <i_lp_mmshare_version>  (168) 
48012

>  <i_f3d_flags>  (168) 
0

>  <s_epik_input>  (168) 
W0NIM11DKD1PKVtDQEBdMShDMjM0KVtDQEBIXTVDKD1bQ0hdW0NASF0yW09IXSlbQ0BdKFtDSDNdKShbQ0BASF01W0NIMl1bQ0gyXTMpW0NIMl1PW0NASF0oW0NIMl00KUMxKFtDSDNdKVtDSDNd

>  <s_epik_cmdline>  (168) 
J2VwaWtfcHl0aG9uJywgJy1waHQnLCAnMi4wJywgJy1waCcsICc3LjAnLCAnLXRuJywgJzgnLCAnLW1hJywgJzIwMCcsICctaW1hZScsICc8aW5maWxlLm1hZT4nLCAnLW9tYWUnLCAnPG91dGZpbGUubWFlPic=

>  <r_lp_tautomer_probability>  (168) 
1

>  <r_epik_Ionization_Penalty>  (168) 
1.14861e-07

>  <r_epik_Ionization_Penalty_Charging>  (168) 
0

>  <r_epik_Ionization_Penalty_Neutral>  (168) 
1.14861e-07

>  <r_epik_State_Penalty>  (168) 
-0

>  <r_epik_Charging_Adjusted_Penalty>  (168) 
0

>  <i_epik_Tot_Q>  (168) 
0

>  <i_epik_Tot_abs_Q>  (168) 
0

>  <s_lp_Force_Field>  (168) 
OPLS3e

>  <r_lp_Energy>  (168) 
553.69

>  <b_lp_Chiralities_Consistent>  (168) 
1

>  <s_lp_Variant>  (168) 
52:0-1

>  <s_i_glide_gridfile>  (168) 
pfpi4k_grid

>  <i_i_glide_lignum>  (168) 
1

>  <i_i_glide_rotatable_bonds>  (168) 
2

>  <r_i_docking_score>  (168) 
-2.78439

>  <r_i_glide_ligand_efficiency>  (168) 
-0.126563

>  <r_i_glide_ligand_efficiency_sa>  (168) 
-0.354635

>  <r_i_glide_ligand_efficiency_ln>  (168) 
-0.680607

>  <r_i_glide_gscore>  (168) 
-2.78439

>  <r_i_glide_lipo>  (168) 
-0.461771

>  <r_i_glide_hbond>  (168) 
0

>  <r_i_glide_metal>  (168) 
-0

>  <r_i_glide_rewards>  (168) 
-1.37324

>  <r_i_glide_evdw>  (168) 
-15.3212

>  <r_i_glide_ecoul>  (168) 
-1.22214

>  <r_i_glide_erotb>  (168) 
0

>  <r_i_glide_esite>  (168) 
0

>  <r_i_glide_emodel>  (168) 
-17.939

>  <r_i_glide_energy>  (168) 
-16.5434

>  <r_i_glide_einternal>  (168) 
1.31723

>  <r_i_glide_intrahb_reward>  (168) 
-0

>  <i_i_glide_confnum>  (168) 
2

>  <i_i_glide_posenum>  (168) 
14

>  <r_i_glide_eff_state_penalty>  (168) 
0

>  <ligand_id>  (168) 
52

>  <original_smiles>  (168) 
CC(=O)C12C3C4=CC(O)C15CCC3C4(C)COC(C5)C2(C)C

>  <smiles>  (168) 
[H]OC1([H])C([H])=C2C3([H])C4([H])C([H])([H])C([H])([H])C15C([H])([H])C([H])(OC([H])([H])C24C([H])([H])[H])C(C([H])([H])[H])(C([H])([H])[H])C35C(=O)C([H])([H])[H]

$$$$
52:0:1
     RDKit          3D

 48 52  0  0  1  0  0  0  0  0999 V2000
    6.9692   -4.8706    1.4890 C   0  0  0  0  0  0  0  0  0  0  0  0
    5.8618   -4.9572    2.5378 C   0  0  0  0  0  0  0  0  0  0  0  0
    6.1136   -5.4578    3.6453 O   0  0  0  0  0  0  0  0  0  0  0  0
    4.4132   -4.4110    2.2095 C   0  0  2  0  0  0  0  0  0  0  0  0
    4.2283   -3.3585    1.1009 C   0  0  1  0  0  0  0  0  0  0  0  0
    5.1574   -2.3206    0.7275 C   0  0  0  0  0  0  0  0  0  0  0  0
    5.5433   -2.0196    2.0164 C   0  0  0  0  0  0  0  0  0  0  0  0
    4.8727   -2.4991    3.3761 C   0  0  1  0  0  0  0  0  0  0  0  0
    4.9430   -1.4752    4.3674 O   0  0  0  0  0  0  0  0  0  0  0  0
    3.5613   -3.5930    3.3920 C   0  0  2  0  0  0  0  0  0  0  0  0
    2.6443   -2.1884    3.3252 C   0  0  0  0  0  0  0  0  0  0  0  0
    2.8720   -1.2018    2.1096 C   0  0  0  0  0  0  0  0  0  0  0  0
    3.1390   -2.1571    0.9152 C   0  0  1  0  0  0  0  0  0  0  0  0
    3.8893   -2.2581   -0.3454 C   0  0  1  0  0  0  0  0  0  0  0  0
    3.9492   -1.0970   -1.3283 C   0  0  0  0  0  0  0  0  0  0  0  0
    3.1597   -3.6216   -0.9945 C   0  0  0  0  0  0  0  0  0  0  0  0
    2.2387   -4.5109   -0.0833 O   0  0  0  0  0  0  0  0  0  0  0  0
    2.4201   -5.2278    1.2838 C   0  0  2  0  0  0  0  0  0  0  0  0
    2.2751   -4.5203    2.7421 C   0  0  0  0  0  0  0  0  0  0  0  0
    3.8062   -5.7342    1.5583 C   0  0  0  0  0  0  0  0  0  0  0  0
    4.4753   -6.2436    0.2466 C   0  0  0  0  0  0  0  0  0  0  0  0
    3.7684   -7.0139    2.4707 C   0  0  0  0  0  0  0  0  0  0  0  0
    6.6090   -4.5507    0.5130 H   0  0  0  0  0  0  0  0  0  0  0  0
    7.4330   -5.8426    1.3645 H   0  0  0  0  0  0  0  0  0  0  0  0
    7.7404   -4.1672    1.7941 H   0  0  0  0  0  0  0  0  0  0  0  0
    3.2670   -3.2283    1.3774 H   0  0  0  0  0  0  0  0  0  0  0  0
    6.5364   -1.5867    2.1486 H   0  0  0  0  0  0  0  0  0  0  0  0
    5.6718   -2.9998    3.9115 H   0  0  0  0  0  0  0  0  0  0  0  0
    4.8731   -1.8940    5.1994 H   0  0  0  0  0  0  0  0  0  0  0  0
    1.5767   -2.3234    3.3185 H   0  0  0  0  0  0  0  0  0  0  0  0
    2.6368   -1.6326    4.2635 H   0  0  0  0  0  0  0  0  0  0  0  0
    1.9757   -0.6156    1.9036 H   0  0  0  0  0  0  0  0  0  0  0  0
    3.6370   -0.4480    2.2517 H   0  0  0  0  0  0  0  0  0  0  0  0
    2.1172   -2.2660    0.4872 H   0  0  0  0  0  0  0  0  0  0  0  0
    2.9782   -0.9293   -1.7762 H   0  0  0  0  0  0  0  0  0  0  0  0
    4.6449   -1.3218   -2.1314 H   0  0  0  0  0  0  0  0  0  0  0  0
    4.2545   -0.1905   -0.8372 H   0  0  0  0  0  0  0  0  0  0  0  0
    2.4817   -3.3113   -1.7990 H   0  0  0  0  0  0  0  0  0  0  0  0
    3.9081   -4.2128   -1.5364 H   0  0  0  0  0  0  0  0  0  0  0  0
    1.7129   -6.0625    1.2377 H   0  0  0  0  0  0  0  0  0  0  0  0
    2.1493   -5.3028    3.4927 H   0  0  0  0  0  0  0  0  0  0  0  0
    1.2675   -4.1237    2.7724 H   0  0  0  0  0  0  0  0  0  0  0  0
    3.7639   -6.7491   -0.3917 H   0  0  0  0  0  0  0  0  0  0  0  0
    5.2763   -6.9552    0.4301 H   0  0  0  0  0  0  0  0  0  0  0  0
    4.9478   -5.4712   -0.3459 H   0  0  0  0  0  0  0  0  0  0  0  0
    3.0002   -7.7139    2.1263 H   0  0  0  0  0  0  0  0  0  0  0  0
    3.5947   -6.8122    3.5265 H   0  0  0  0  0  0  0  0  0  0  0  0
    4.7120   -7.5620    2.4447 H   0  0  0  0  0  0  0  0  0  0  0  0
  1  2  1  0
  1 23  1  0
  1 24  1  0
  1 25  1  0
  2  3  2  0
  4  2  1  1
  4 10  1  0
  4 20  1  0
  4  5  1  0
  5 13  1  0
  5  6  1  0
  5 26  1  6
  6 14  1  0
  6  7  2  0
  7  8  1  0
  7 27  1  0
  8  9  1  0
  8 10  1  0
  8 28  1  1
  9 29  1  0
 10 19  1  6
 10 11  1  0
 11 12  1  0
 11 30  1  0
 11 31  1  0
 12 13  1  0
 12 32  1  0
 12 33  1  0
 13 14  1  0
 13 34  1  6
 14 15  1  6
 14 16  1  0
 15 35  1  0
 15 36  1  0
 15 37  1  0
 16 17  1  0
 16 38  1  0
 16 39  1  0
 17 18  1  0
 18 19  1  0
 18 20  1  0
 18 40  1  1
 19 41  1  0
 19 42  1  0
 20 21  1  0
 20 22  1  0
 21 43  1  0
 21 44  1  0
 21 45  1  0
 22 46  1  0
 22 47  1  0
 22 48  1  0
M  END
>  <i_m_ct_stereo_status>  (169) 
1

>  <s_m_source_file>  (169) 
/var/tmp/pbs.5076255.sched01/tmp378oxcv0/78pm6kuo1p.sdf

>  <i_m_source_file_index>  (169) 
1

>  <i_lp_mmshare_version>  (169) 
48012

>  <i_f3d_flags>  (169) 
0

>  <s_epik_input>  (169) 
W0NIM11DKD1PKVtDQEBdMShDMjM0KVtDQEBIXTVDKD1bQ0hdW0NASF0yW09IXSlbQ0BdKFtDSDNdKShbQ0BASF01W0NIMl1bQ0gyXTMpW0NIMl1PW0NASF0oW0NIMl00KUMxKFtDSDNdKVtDSDNd

>  <s_epik_cmdline>  (169) 
J2VwaWtfcHl0aG9uJywgJy1waHQnLCAnMi4wJywgJy1waCcsICc3LjAnLCAnLXRuJywgJzgnLCAnLW1hJywgJzIwMCcsICctaW1hZScsICc8aW5maWxlLm1hZT4nLCAnLW9tYWUnLCAnPG91dGZpbGUubWFlPic=

>  <r_lp_tautomer_probability>  (169) 
1

>  <r_epik_Ionization_Penalty>  (169) 
1.14861e-07

>  <r_epik_Ionization_Penalty_Charging>  (169) 
0

>  <r_epik_Ionization_Penalty_Neutral>  (169) 
1.14861e-07

>  <r_epik_State_Penalty>  (169) 
-0

>  <r_epik_Charging_Adjusted_Penalty>  (169) 
0

>  <i_epik_Tot_Q>  (169) 
0

>  <i_epik_Tot_abs_Q>  (169) 
0

>  <s_lp_Force_Field>  (169) 
OPLS3e

>  <r_lp_Energy>  (169) 
553.69

>  <b_lp_Chiralities_Consistent>  (169) 
1

>  <s_lp_Variant>  (169) 
52:0-1

>  <s_i_glide_gridfile>  (169) 
pfpi4k_grid

>  <i_i_glide_lignum>  (169) 
1

>  <i_i_glide_rotatable_bonds>  (169) 
2

>  <r_i_docking_score>  (169) 
-2.69292

>  <r_i_glide_ligand_efficiency>  (169) 
-0.122405

>  <r_i_glide_ligand_efficiency_sa>  (169) 
-0.342985

>  <r_i_glide_ligand_efficiency_ln>  (169) 
-0.658248

>  <r_i_glide_gscore>  (169) 
-2.69292

>  <r_i_glide_lipo>  (169) 
-0.453379

>  <r_i_glide_hbond>  (169) 
-0.000849897

>  <r_i_glide_metal>  (169) 
-0

>  <r_i_glide_rewards>  (169) 
-1.37614

>  <r_i_glide_evdw>  (169) 
-15.1205

>  <r_i_glide_ecoul>  (169) 
-0.710166

>  <r_i_glide_erotb>  (169) 
0

>  <r_i_glide_esite>  (169) 
0

>  <r_i_glide_emodel>  (169) 
-16.9466

>  <r_i_glide_energy>  (169) 
-15.8307

>  <r_i_glide_einternal>  (169) 
1.73349

>  <r_i_glide_intrahb_reward>  (169) 
-0

>  <i_i_glide_confnum>  (169) 
1

>  <i_i_glide_posenum>  (169) 
18

>  <r_i_glide_eff_state_penalty>  (169) 
0

>  <ligand_id>  (169) 
52

>  <original_smiles>  (169) 
CC(=O)C12C3C4=CC(O)C15CCC3C4(C)COC(C5)C2(C)C

>  <smiles>  (169) 
[H]OC1([H])C([H])=C2C3([H])C4([H])C([H])([H])C([H])([H])C15C([H])([H])C([H])(OC([H])([H])C24C([H])([H])[H])C(C([H])([H])[H])(C([H])([H])[H])C35C(=O)C([H])([H])[H]

$$$$
54:0:0
     RDKit          3D

 42 47  0  0  1  0  0  0  0  0999 V2000
    0.9188   -1.5738    5.3307 C   0  0  0  0  0  0  0  0  0  0  0  0
    0.8632   -0.7726    4.0129 C   0  0  2  0  0  0  0  0  0  0  0  0
    2.0341   -1.1789    3.1236 C   0  0  0  0  0  0  0  0  0  0  0  0
    1.9762   -2.4330    2.4692 C   0  0  0  0  0  0  0  0  0  0  0  0
    3.0326   -2.8822    1.6474 C   0  0  0  0  0  0  0  0  0  0  0  0
    4.1607   -2.0563    1.5317 C   0  0  0  0  0  0  0  0  0  0  0  0
    4.2263   -0.8326    2.1629 C   0  0  0  0  0  0  0  0  0  0  0  0
    3.1755   -0.3436    2.9594 C   0  0  0  0  0  0  0  0  0  0  0  0
    3.2869    1.0389    3.5840 C   0  0  0  0  0  0  0  0  0  0  0  0
    2.1715    1.3488    4.6030 C   0  0  1  0  0  0  0  0  0  0  0  0
    1.5520    2.7309    4.5799 C   0  0  1  0  0  0  0  0  0  0  0  0
    2.4341    3.9170    4.9876 C   0  0  0  0  0  0  0  0  0  0  0  0
    1.0884    2.8193    3.2436 O   0  0  0  0  0  0  0  0  0  0  0  0
    0.3494    1.6202    3.0562 C   0  0  2  0  0  0  0  0  0  0  0  0
   -1.1372    2.0097    3.0918 C   0  0  0  0  0  0  0  0  0  0  0  0
   -1.5456    3.0886    4.1220 C   0  0  0  0  0  0  0  0  0  0  0  0
   -2.5791    3.7244    3.9243 O   0  0  0  0  0  0  0  0  0  0  0  0
   -0.7490    3.3437    5.2230 O   0  0  0  0  0  0  0  0  0  0  0  0
    0.3391    2.5096    5.5341 C   0  0  1  0  0  0  0  0  0  0  0  0
    0.0428    1.1515    5.3675 O   0  0  0  0  0  0  0  0  0  0  0  0
    0.8308    0.7484    4.2499 C   0  0  1  0  0  0  0  0  0  0  0  0
    5.4264   -0.2578    1.8969 O   0  0  0  0  0  0  0  0  0  0  0  0
    6.1603   -1.2183    1.1841 C   0  0  0  0  0  0  0  0  0  0  0  0
    5.3171   -2.2857    0.8545 O   0  0  0  0  0  0  0  0  0  0  0  0
    0.9198   -2.6471    5.1349 H   0  0  0  0  0  0  0  0  0  0  0  0
    0.0578   -1.3621    5.9652 H   0  0  0  0  0  0  0  0  0  0  0  0
    1.8204   -1.3470    5.9006 H   0  0  0  0  0  0  0  0  0  0  0  0
   -0.0547   -1.0577    3.4957 H   0  0  0  0  0  0  0  0  0  0  0  0
    1.1041   -3.0576    2.6010 H   0  0  0  0  0  0  0  0  0  0  0  0
    2.9924   -3.8375    1.1413 H   0  0  0  0  0  0  0  0  0  0  0  0
    4.2655    1.1656    4.0484 H   0  0  0  0  0  0  0  0  0  0  0  0
    3.2640    1.7477    2.7556 H   0  0  0  0  0  0  0  0  0  0  0  0
    2.4882    1.0511    5.6012 H   0  0  0  0  0  0  0  0  0  0  0  0
    2.8216    3.7889    5.9964 H   0  0  0  0  0  0  0  0  0  0  0  0
    1.8754    4.8547    4.9541 H   0  0  0  0  0  0  0  0  0  0  0  0
    3.2848    4.0181    4.3117 H   0  0  0  0  0  0  0  0  0  0  0  0
    0.6202    1.1875    2.0939 H   0  0  0  0  0  0  0  0  0  0  0  0
   -1.3777    2.4337    2.1179 H   0  0  0  0  0  0  0  0  0  0  0  0
   -1.7666    1.1276    3.2161 H   0  0  0  0  0  0  0  0  0  0  0  0
    0.6204    2.6601    6.5769 H   0  0  0  0  0  0  0  0  0  0  0  0
    6.6103   -0.7833    0.2909 H   0  0  0  0  0  0  0  0  0  0  0  0
    6.9522   -1.6024    1.8257 H   0  0  0  0  0  0  0  0  0  0  0  0
  1  2  1  0
  1 25  1  0
  1 26  1  0
  1 27  1  0
  2 21  1  0
  2  3  1  0
  2 28  1  6
  3  8  2  0
  3  4  1  0
  4  5  2  0
  4 29  1  0
  5  6  1  0
  5 30  1  0
  6 24  1  0
  6  7  2  0
  7  8  1  0
  7 22  1  0
  8  9  1  0
  9 10  1  0
  9 31  1  0
  9 32  1  0
 10 21  1  0
 10 11  1  0
 10 33  1  1
 11 19  1  0
 11 12  1  1
 11 13  1  0
 12 34  1  0
 12 35  1  0
 12 36  1  0
 13 14  1  0
 14 21  1  0
 14 15  1  0
 14 37  1  6
 15 16  1  0
 15 38  1  0
 15 39  1  0
 16 17  2  0
 16 18  1  0
 18 19  1  0
 19 20  1  0
 19 40  1  1
 21 20  1  1
 22 23  1  0
 23 24  1  0
 23 41  1  0
 23 42  1  0
M  END
>  <i_m_ct_stereo_status>  (170) 
1

>  <s_m_source_file>  (170) 
/var/tmp/pbs.5076255.sched01/tmp378oxcv0/78pm6kuo1p.sdf

>  <i_m_source_file_index>  (170) 
4

>  <i_lp_mmshare_version>  (170) 
48012

>  <i_f3d_flags>  (170) 
0

>  <s_epik_input>  (170) 
TzFbQ0gyXU9jMmMxW2NIXVtjSF1jKFtDQEhdM1tDSDNdKWMyW0NIMl1bQ0BIXShbQ0BdMzQ1KVtDQF02KFtDSDNdKVtDQEhdKE81KU9DKD1PKVtDSDJdW0NASF00TzY=

>  <s_epik_cmdline>  (170) 
J2VwaWtfcHl0aG9uJywgJy1waHQnLCAnMi4wJywgJy1waCcsICc3LjAnLCAnLXRuJywgJzgnLCAnLW1hJywgJzIwMCcsICctaW1hZScsICc8aW5maWxlLm1hZT4nLCAnLW9tYWUnLCAnPG91dGZpbGUubWFlPic=

>  <r_lp_tautomer_probability>  (170) 
1

>  <r_epik_Ionization_Penalty>  (170) 
6.3148e-15

>  <r_epik_Ionization_Penalty_Charging>  (170) 
0

>  <r_epik_Ionization_Penalty_Neutral>  (170) 
6.3148e-15

>  <r_epik_State_Penalty>  (170) 
-0

>  <r_epik_Charging_Adjusted_Penalty>  (170) 
0

>  <i_epik_Tot_Q>  (170) 
0

>  <i_epik_Tot_abs_Q>  (170) 
0

>  <s_epik_Chemistry_Notes>  (170) 
This compound has an ester and may undergo hydrolysis at high or low pH. This compound contains an acetal/aminal-like group ( X-CH(R)-Y where X, Y are N, S, or O) that may be acid/base labile, releasing an aldehyde.

>  <s_lp_Force_Field>  (170) 
OPLS3e

>  <r_lp_Energy>  (170) 
53.546

>  <b_lp_Chiralities_Consistent>  (170) 
1

>  <s_lp_Variant>  (170) 
54:0-1

>  <s_i_glide_gridfile>  (170) 
pfpi4k_grid

>  <i_i_glide_lignum>  (170) 
4

>  <i_i_glide_rotatable_bonds>  (170) 
0

>  <r_i_docking_score>  (170) 
-3.13929

>  <r_i_glide_ligand_efficiency>  (170) 
-0.130804

>  <r_i_glide_ligand_efficiency_sa>  (170) 
-0.377304

>  <r_i_glide_ligand_efficiency_ln>  (170) 
-0.751377

>  <r_i_glide_gscore>  (170) 
-3.13929

>  <r_i_glide_lipo>  (170) 
-0.0457519

>  <r_i_glide_hbond>  (170) 
-0.218286

>  <r_i_glide_metal>  (170) 
-0

>  <r_i_glide_rewards>  (170) 
-1.37591

>  <r_i_glide_evdw>  (170) 
-21.5323

>  <r_i_glide_ecoul>  (170) 
-2.548

>  <r_i_glide_erotb>  (170) 
0

>  <r_i_glide_esite>  (170) 
-0.040532

>  <r_i_glide_emodel>  (170) 
-28.5161

>  <r_i_glide_energy>  (170) 
-24.0803

>  <r_i_glide_einternal>  (170) 
0

>  <r_i_glide_intrahb_reward>  (170) 
-0

>  <i_i_glide_confnum>  (170) 
1

>  <i_i_glide_posenum>  (170) 
9

>  <r_i_glide_eff_state_penalty>  (170) 
0

>  <ligand_id>  (170) 
54

>  <original_smiles>  (170) 
CC1c2ccc3c(c2CC2C4(C)OC5CC(=O)OC4OC512)OCO3

>  <smiles>  (170) 
[H]c1c([H])c2c(c3c1OC([H])([H])O3)C([H])([H])C1([H])C3(C([H])([H])[H])OC4([H])C([H])([H])C(=O)OC3([H])OC41C2([H])C([H])([H])[H]

$$$$
54:0:1
     RDKit          3D

 42 47  0  0  1  0  0  0  0  0999 V2000
    0.1068    0.0222    6.8014 C   0  0  0  0  0  0  0  0  0  0  0  0
   -0.2280   -0.0769    5.2969 C   0  0  2  0  0  0  0  0  0  0  0  0
    0.4852   -1.2819    4.6920 C   0  0  0  0  0  0  0  0  0  0  0  0
   -0.0210   -2.5737    4.9799 C   0  0  0  0  0  0  0  0  0  0  0  0
    0.6144   -3.7324    4.4816 C   0  0  0  0  0  0  0  0  0  0  0  0
    1.7704   -3.5633    3.7116 C   0  0  0  0  0  0  0  0  0  0  0  0
    2.2693   -2.3119    3.4178 C   0  0  0  0  0  0  0  0  0  0  0  0
    1.6446   -1.1367    3.8756 C   0  0  0  0  0  0  0  0  0  0  0  0
    2.2148    0.2174    3.4729 C   0  0  0  0  0  0  0  0  0  0  0  0
    1.5789    1.4022    4.2321 C   0  0  1  0  0  0  0  0  0  0  0  0
    1.2522    2.6542    3.4468 C   0  0  1  0  0  0  0  0  0  0  0  0
    2.4213    3.4738    2.8902 C   0  0  0  0  0  0  0  0  0  0  0  0
    0.4053    2.1328    2.4372 O   0  0  0  0  0  0  0  0  0  0  0  0
   -0.5690    1.3915    3.1510 C   0  0  2  0  0  0  0  0  0  0  0  0
   -1.8463    2.2403    3.1490 C   0  0  0  0  0  0  0  0  0  0  0  0
   -1.6810    3.7681    3.3233 C   0  0  0  0  0  0  0  0  0  0  0  0
   -2.5848    4.5079    2.9258 O   0  0  0  0  0  0  0  0  0  0  0  0
   -0.5480    4.2808    3.9143 O   0  0  0  0  0  0  0  0  0  0  0  0
    0.4045    3.4324    4.4989 C   0  0  1  0  0  0  0  0  0  0  0  0
   -0.1754    2.4120    5.2628 O   0  0  0  0  0  0  0  0  0  0  0  0
    0.1079    1.2199    4.5384 C   0  0  1  0  0  0  0  0  0  0  0  0
    3.4030   -2.4429    2.6800 O   0  0  0  0  0  0  0  0  0  0  0  0
    3.6647   -3.8227    2.6254 C   0  0  0  0  0  0  0  0  0  0  0  0
    2.5683   -4.5145    3.1598 O   0  0  0  0  0  0  0  0  0  0  0  0
   -0.1548   -0.9011    7.3203 H   0  0  0  0  0  0  0  0  0  0  0  0
   -0.4364    0.8349    7.2854 H   0  0  0  0  0  0  0  0  0  0  0  0
    1.1705    0.1931    6.9676 H   0  0  0  0  0  0  0  0  0  0  0  0
   -1.3012   -0.2495    5.2110 H   0  0  0  0  0  0  0  0  0  0  0  0
   -0.9055   -2.6770    5.5902 H   0  0  0  0  0  0  0  0  0  0  0  0
    0.2340   -4.7189    4.6991 H   0  0  0  0  0  0  0  0  0  0  0  0
    3.2976    0.2274    3.6074 H   0  0  0  0  0  0  0  0  0  0  0  0
    2.0541    0.3100    2.3972 H   0  0  0  0  0  0  0  0  0  0  0  0
    2.1464    1.6146    5.1380 H   0  0  0  0  0  0  0  0  0  0  0  0
    3.0962    3.7919    3.6830 H   0  0  0  0  0  0  0  0  0  0  0  0
    2.0713    4.3648    2.3604 H   0  0  0  0  0  0  0  0  0  0  0  0
    2.9994    2.8751    2.1853 H   0  0  0  0  0  0  0  0  0  0  0  0
   -0.7201    0.4380    2.6434 H   0  0  0  0  0  0  0  0  0  0  0  0
   -2.3155    2.1088    2.1754 H   0  0  0  0  0  0  0  0  0  0  0  0
   -2.5553    1.8605    3.8833 H   0  0  0  0  0  0  0  0  0  0  0  0
    1.0407    4.0238    5.1598 H   0  0  0  0  0  0  0  0  0  0  0  0
    3.8721   -4.1505    1.6028 H   0  0  0  0  0  0  0  0  0  0  0  0
    4.5314   -4.0347    3.2553 H   0  0  0  0  0  0  0  0  0  0  0  0
  1  2  1  0
  1 25  1  0
  1 26  1  0
  1 27  1  0
  2 21  1  0
  2  3  1  0
  2 28  1  1
  3  8  2  0
  3  4  1  0
  4  5  2  0
  4 29  1  0
  5  6  1  0
  5 30  1  0
  6 24  1  0
  6  7  2  0
  7  8  1  0
  7 22  1  0
  8  9  1  0
  9 10  1  0
  9 31  1  0
  9 32  1  0
 10 21  1  0
 10 11  1  0
 10 33  1  1
 11 19  1  0
 11 12  1  6
 11 13  1  0
 12 34  1  0
 12 35  1  0
 12 36  1  0
 13 14  1  0
 14 21  1  0
 14 15  1  0
 14 37  1  6
 15 16  1  0
 15 38  1  0
 15 39  1  0
 16 17  2  0
 16 18  1  0
 18 19  1  0
 19 20  1  0
 19 40  1  1
 21 20  1  1
 22 23  1  0
 23 24  1  0
 23 41  1  0
 23 42  1  0
M  END
>  <i_m_ct_stereo_status>  (171) 
1

>  <s_m_source_file>  (171) 
/var/tmp/pbs.5076255.sched01/tmp378oxcv0/78pm6kuo1p.sdf

>  <i_m_source_file_index>  (171) 
4

>  <i_lp_mmshare_version>  (171) 
48012

>  <i_f3d_flags>  (171) 
0

>  <s_epik_input>  (171) 
TzFbQ0gyXU9jMmMxW2NIXVtjSF1jKFtDQEhdM1tDSDNdKWMyW0NIMl1bQ0BIXShbQ0BdMzQ1KVtDQF02KFtDSDNdKVtDQEhdKE81KU9DKD1PKVtDSDJdW0NASF00TzY=

>  <s_epik_cmdline>  (171) 
J2VwaWtfcHl0aG9uJywgJy1waHQnLCAnMi4wJywgJy1waCcsICc3LjAnLCAnLXRuJywgJzgnLCAnLW1hJywgJzIwMCcsICctaW1hZScsICc8aW5maWxlLm1hZT4nLCAnLW9tYWUnLCAnPG91dGZpbGUubWFlPic=

>  <r_lp_tautomer_probability>  (171) 
1

>  <r_epik_Ionization_Penalty>  (171) 
6.3148e-15

>  <r_epik_Ionization_Penalty_Charging>  (171) 
0

>  <r_epik_Ionization_Penalty_Neutral>  (171) 
6.3148e-15

>  <r_epik_State_Penalty>  (171) 
-0

>  <r_epik_Charging_Adjusted_Penalty>  (171) 
0

>  <i_epik_Tot_Q>  (171) 
0

>  <i_epik_Tot_abs_Q>  (171) 
0

>  <s_epik_Chemistry_Notes>  (171) 
This compound has an ester and may undergo hydrolysis at high or low pH. This compound contains an acetal/aminal-like group ( X-CH(R)-Y where X, Y are N, S, or O) that may be acid/base labile, releasing an aldehyde.

>  <s_lp_Force_Field>  (171) 
OPLS3e

>  <r_lp_Energy>  (171) 
53.546

>  <b_lp_Chiralities_Consistent>  (171) 
1

>  <s_lp_Variant>  (171) 
54:0-1

>  <s_i_glide_gridfile>  (171) 
pfpi4k_grid

>  <i_i_glide_lignum>  (171) 
4

>  <i_i_glide_rotatable_bonds>  (171) 
0

>  <r_i_docking_score>  (171) 
-2.72582

>  <r_i_glide_ligand_efficiency>  (171) 
-0.113576

>  <r_i_glide_ligand_efficiency_sa>  (171) 
-0.32761

>  <r_i_glide_ligand_efficiency_ln>  (171) 
-0.652414

>  <r_i_glide_gscore>  (171) 
-2.72582

>  <r_i_glide_lipo>  (171) 
-0.0232608

>  <r_i_glide_hbond>  (171) 
-0.152666

>  <r_i_glide_metal>  (171) 
-0

>  <r_i_glide_rewards>  (171) 
-1.15767

>  <r_i_glide_evdw>  (171) 
-21.7533

>  <r_i_glide_ecoul>  (171) 
-1.24991

>  <r_i_glide_erotb>  (171) 
0

>  <r_i_glide_esite>  (171) 
-0.11707

>  <r_i_glide_emodel>  (171) 
-26.8271

>  <r_i_glide_energy>  (171) 
-23.0032

>  <r_i_glide_einternal>  (171) 
0

>  <r_i_glide_intrahb_reward>  (171) 
-0

>  <i_i_glide_confnum>  (171) 
2

>  <i_i_glide_posenum>  (171) 
8

>  <r_i_glide_eff_state_penalty>  (171) 
0

>  <ligand_id>  (171) 
54

>  <original_smiles>  (171) 
CC1c2ccc3c(c2CC2C4(C)OC5CC(=O)OC4OC512)OCO3

>  <smiles>  (171) 
[H]c1c([H])c2c(c3c1OC([H])([H])O3)C([H])([H])C1([H])C3(C([H])([H])[H])OC4([H])C([H])([H])C(=O)OC3([H])OC41C2([H])C([H])([H])[H]

$$$$
54:0:2
     RDKit          3D

 42 47  0  0  1  0  0  0  0  0999 V2000
    1.2858   -1.4056    5.4903 C   0  0  0  0  0  0  0  0  0  0  0  0
    1.0101   -1.0445    4.0149 C   0  0  2  0  0  0  0  0  0  0  0  0
    2.0481   -1.7184    3.1206 C   0  0  0  0  0  0  0  0  0  0  0  0
    1.9348   -3.1114    2.8910 C   0  0  0  0  0  0  0  0  0  0  0  0
    2.8810   -3.8011    2.1021 C   0  0  0  0  0  0  0  0  0  0  0  0
    3.9530   -3.0644    1.5770 C   0  0  0  0  0  0  0  0  0  0  0  0
    4.0702   -1.7064    1.7877 C   0  0  0  0  0  0  0  0  0  0  0  0
    3.1243   -0.9865    2.5420 C   0  0  0  0  0  0  0  0  0  0  0  0
    3.2787    0.5194    2.6935 C   0  0  0  0  0  0  0  0  0  0  0  0
    2.3199    1.1409    3.7295 C   0  0  1  0  0  0  0  0  0  0  0  0
    1.6595    2.4580    3.3790 C   0  0  1  0  0  0  0  0  0  0  0  0
    2.5476    3.7044    3.2760 C   0  0  0  0  0  0  0  0  0  0  0  0
    1.0121    2.1277    2.1620 O   0  0  0  0  0  0  0  0  0  0  0  0
    0.2856    0.9473    2.4665 C   0  0  2  0  0  0  0  0  0  0  0  0
   -1.1894    1.3558    2.6089 C   0  0  0  0  0  0  0  0  0  0  0  0
   -1.4823    2.7053    3.3119 C   0  0  0  0  0  0  0  0  0  0  0  0
   -2.5646    3.2557    3.1102 O   0  0  0  0  0  0  0  0  0  0  0  0
   -0.5394    3.2727    4.1460 O   0  0  0  0  0  0  0  0  0  0  0  0
    0.6064    2.5537    4.5253 C   0  0  1  0  0  0  0  0  0  0  0  0
    0.3324    1.2138    4.8267 O   0  0  0  0  0  0  0  0  0  0  0  0
    0.9631    0.4776    3.7818 C   0  0  1  0  0  0  0  0  0  0  0  0
    5.2060   -1.2551    1.1902 O   0  0  0  0  0  0  0  0  0  0  0  0
    5.8577   -2.4017    0.7019 C   0  0  0  0  0  0  0  0  0  0  0  0
    5.0073   -3.5079    0.8427 O   0  0  0  0  0  0  0  0  0  0  0  0
    1.2940   -2.4872    5.6337 H   0  0  0  0  0  0  0  0  0  0  0  0
    0.5211   -0.9983    6.1529 H   0  0  0  0  0  0  0  0  0  0  0  0
    2.2524   -1.0268    5.8238 H   0  0  0  0  0  0  0  0  0  0  0  0
    0.0356   -1.4604    3.7532 H   0  0  0  0  0  0  0  0  0  0  0  0
    1.1132   -3.6584    3.3328 H   0  0  0  0  0  0  0  0  0  0  0  0
    2.8035   -4.8640    1.9275 H   0  0  0  0  0  0  0  0  0  0  0  0
    4.3069    0.7600    2.9595 H   0  0  0  0  0  0  0  0  0  0  0  0
    3.1204    0.9471    1.7020 H   0  0  0  0  0  0  0  0  0  0  0  0
    2.7911    1.1578    4.7111 H   0  0  0  0  0  0  0  0  0  0  0  0
    3.0821    3.8847    4.2067 H   0  0  0  0  0  0  0  0  0  0  0  0
    1.9555    4.5916    3.0415 H   0  0  0  0  0  0  0  0  0  0  0  0
    3.2856    3.5917    2.4812 H   0  0  0  0  0  0  0  0  0  0  0  0
    0.4225    0.2338    1.6543 H   0  0  0  0  0  0  0  0  0  0  0  0
   -1.5933    1.4468    1.6035 H   0  0  0  0  0  0  0  0  0  0  0  0
   -1.7605    0.5675    3.0973 H   0  0  0  0  0  0  0  0  0  0  0  0
    1.0316    3.0103    5.4190 H   0  0  0  0  0  0  0  0  0  0  0  0
    6.1537   -2.2754   -0.3426 H   0  0  0  0  0  0  0  0  0  0  0  0
    6.7461   -2.5817    1.3103 H   0  0  0  0  0  0  0  0  0  0  0  0
  1  2  1  0
  1 25  1  0
  1 26  1  0
  1 27  1  0
  2 21  1  0
  2  3  1  0
  2 28  1  6
  3  8  2  0
  3  4  1  0
  4  5  2  0
  4 29  1  0
  5  6  1  0
  5 30  1  0
  6 24  1  0
  6  7  2  0
  7  8  1  0
  7 22  1  0
  8  9  1  0
  9 10  1  0
  9 31  1  0
  9 32  1  0
 10 21  1  0
 10 11  1  0
 10 33  1  1
 11 19  1  0
 11 12  1  6
 11 13  1  0
 12 34  1  0
 12 35  1  0
 12 36  1  0
 13 14  1  0
 14 21  1  0
 14 15  1  0
 14 37  1  6
 15 16  1  0
 15 38  1  0
 15 39  1  0
 16 17  2  0
 16 18  1  0
 18 19  1  0
 19 20  1  0
 19 40  1  1
 21 20  1  1
 22 23  1  0
 23 24  1  0
 23 41  1  0
 23 42  1  0
M  END
>  <i_m_ct_stereo_status>  (172) 
1

>  <s_m_source_file>  (172) 
/var/tmp/pbs.5076255.sched01/tmp378oxcv0/78pm6kuo1p.sdf

>  <i_m_source_file_index>  (172) 
4

>  <i_lp_mmshare_version>  (172) 
48012

>  <i_f3d_flags>  (172) 
0

>  <s_epik_input>  (172) 
TzFbQ0gyXU9jMmMxW2NIXVtjSF1jKFtDQEhdM1tDSDNdKWMyW0NIMl1bQ0BIXShbQ0BdMzQ1KVtDQF02KFtDSDNdKVtDQEhdKE81KU9DKD1PKVtDSDJdW0NASF00TzY=

>  <s_epik_cmdline>  (172) 
J2VwaWtfcHl0aG9uJywgJy1waHQnLCAnMi4wJywgJy1waCcsICc3LjAnLCAnLXRuJywgJzgnLCAnLW1hJywgJzIwMCcsICctaW1hZScsICc8aW5maWxlLm1hZT4nLCAnLW9tYWUnLCAnPG91dGZpbGUubWFlPic=

>  <r_lp_tautomer_probability>  (172) 
1

>  <r_epik_Ionization_Penalty>  (172) 
6.3148e-15

>  <r_epik_Ionization_Penalty_Charging>  (172) 
0

>  <r_epik_Ionization_Penalty_Neutral>  (172) 
6.3148e-15

>  <r_epik_State_Penalty>  (172) 
-0

>  <r_epik_Charging_Adjusted_Penalty>  (172) 
0

>  <i_epik_Tot_Q>  (172) 
0

>  <i_epik_Tot_abs_Q>  (172) 
0

>  <s_epik_Chemistry_Notes>  (172) 
This compound has an ester and may undergo hydrolysis at high or low pH. This compound contains an acetal/aminal-like group ( X-CH(R)-Y where X, Y are N, S, or O) that may be acid/base labile, releasing an aldehyde.

>  <s_lp_Force_Field>  (172) 
OPLS3e

>  <r_lp_Energy>  (172) 
53.546

>  <b_lp_Chiralities_Consistent>  (172) 
1

>  <s_lp_Variant>  (172) 
54:0-1

>  <s_i_glide_gridfile>  (172) 
pfpi4k_grid

>  <i_i_glide_lignum>  (172) 
4

>  <i_i_glide_rotatable_bonds>  (172) 
0

>  <r_i_docking_score>  (172) 
-2.71153

>  <r_i_glide_ligand_efficiency>  (172) 
-0.11298

>  <r_i_glide_ligand_efficiency_sa>  (172) 
-0.325892

>  <r_i_glide_ligand_efficiency_ln>  (172) 
-0.648994

>  <r_i_glide_gscore>  (172) 
-2.71153

>  <r_i_glide_lipo>  (172) 
-0.0435202

>  <r_i_glide_hbond>  (172) 
0

>  <r_i_glide_metal>  (172) 
-0

>  <r_i_glide_rewards>  (172) 
-1.24868

>  <r_i_glide_evdw>  (172) 
-24.4862

>  <r_i_glide_ecoul>  (172) 
-0.868144

>  <r_i_glide_erotb>  (172) 
0

>  <r_i_glide_esite>  (172) 
-0.064796

>  <r_i_glide_emodel>  (172) 
-29.1712

>  <r_i_glide_energy>  (172) 
-25.3544

>  <r_i_glide_einternal>  (172) 
0

>  <r_i_glide_intrahb_reward>  (172) 
-0

>  <i_i_glide_confnum>  (172) 
1

>  <i_i_glide_posenum>  (172) 
1

>  <r_i_glide_eff_state_penalty>  (172) 
0

>  <ligand_id>  (172) 
54

>  <original_smiles>  (172) 
CC1c2ccc3c(c2CC2C4(C)OC5CC(=O)OC4OC512)OCO3

>  <smiles>  (172) 
[H]c1c([H])c2c(c3c1OC([H])([H])O3)C([H])([H])C1([H])C3(C([H])([H])[H])OC4([H])C([H])([H])C(=O)OC3([H])OC41C2([H])C([H])([H])[H]

$$$$
55:0:0
     RDKit          3D

 56 60  0  0  1  0  0  0  0  0999 V2000
    4.0677    1.0579   -4.3274 C   0  0  0  0  0  0  0  0  0  0  0  0
    3.4049   -0.1215   -4.9289 C   0  0  0  0  0  0  0  0  0  0  0  0
    3.4241   -0.2488   -6.1302 O   0  0  0  0  0  0  0  0  0  0  0  0
    2.9253   -1.0073   -4.0954 O   0  0  0  0  0  0  0  0  0  0  0  0
    3.0759   -0.8865   -2.6782 C   0  0  0  0  0  0  0  0  0  0  0  0
    3.3379   -2.2659   -2.0642 C   0  0  1  0  0  0  0  0  0  0  0  0
    2.1588   -3.1217   -2.5727 C   0  0  0  0  0  0  0  0  0  0  0  0
    4.6651   -2.8638   -2.6917 C   0  0  0  0  0  0  0  0  0  0  0  0
    5.3460   -4.1377   -2.1447 C   0  0  0  0  0  0  0  0  0  0  0  0
    5.8226   -4.4087   -0.6356 C   0  0  0  0  0  0  0  0  0  0  0  0
    5.3285   -3.2824    0.2375 C   0  0  1  0  0  0  0  0  0  0  0  0
    6.2122   -2.0148   -0.1791 C   0  0  1  0  0  0  0  0  0  0  0  0
    7.1519   -2.1438   -1.2443 O   0  0  0  0  0  0  0  0  0  0  0  0
    5.4174   -0.7295   -0.1860 C   0  0  0  0  0  0  0  0  0  0  0  0
    4.0783   -1.0962    0.4533 C   0  0  1  0  0  0  0  0  0  0  0  0
    3.3229   -2.1521   -0.4805 C   0  0  2  0  0  0  0  0  0  0  0  0
    3.7719   -3.4617    0.0181 C   0  0  2  0  0  0  0  0  0  0  0  0
    2.8697   -3.9963    1.1675 C   0  0  2  0  0  0  0  0  0  0  0  0
    2.2496   -2.9695    1.9369 O   0  0  0  0  0  0  0  0  0  0  0  0
    3.0873   -2.0565    2.6365 C   0  0  0  0  0  0  0  0  0  0  0  0
    4.4183   -1.7375    1.9126 C   0  0  2  0  0  0  0  0  0  0  0  0
    5.1587   -0.7164    2.8071 C   0  0  0  0  0  0  0  0  0  0  0  0
    5.3467   -3.0661    1.7730 C   0  0  1  0  0  0  0  0  0  0  0  0
    4.9560   -4.3122    2.5907 C   0  0  0  0  0  0  0  0  0  0  0  0
    3.6705   -4.9273    2.0677 C   0  0  0  0  0  0  0  0  0  0  0  0
    3.3264   -6.0689    2.3036 O   0  0  0  0  0  0  0  0  0  0  0  0
    4.7367    0.8757   -3.5142 H   0  0  0  0  0  0  0  0  0  0  0  0
    3.4307    1.8544   -4.0103 H   0  0  0  0  0  0  0  0  0  0  0  0
    4.5542    1.3072   -5.2605 H   0  0  0  0  0  0  0  0  0  0  0  0
    3.8791   -0.3028   -2.3845 H   0  0  0  0  0  0  0  0  0  0  0  0
    2.1783   -0.4092   -2.2771 H   0  0  0  0  0  0  0  0  0  0  0  0
    2.1976   -4.1571   -2.2740 H   0  0  0  0  0  0  0  0  0  0  0  0
    2.0697   -3.1578   -3.6618 H   0  0  0  0  0  0  0  0  0  0  0  0
    1.2199   -2.7124   -2.2059 H   0  0  0  0  0  0  0  0  0  0  0  0
    4.4272   -3.0874   -3.7361 H   0  0  0  0  0  0  0  0  0  0  0  0
    5.3847   -2.0460   -2.8314 H   0  0  0  0  0  0  0  0  0  0  0  0
    4.7291   -5.0537   -2.4118 H   0  0  0  0  0  0  0  0  0  0  0  0
    6.2538   -4.1775   -2.7732 H   0  0  0  0  0  0  0  0  0  0  0  0
    5.4797   -5.3630   -0.2741 H   0  0  0  0  0  0  0  0  0  0  0  0
    6.8949   -4.4237   -0.5453 H   0  0  0  0  0  0  0  0  0  0  0  0
    6.9672   -1.8251    0.5767 H   0  0  0  0  0  0  0  0  0  0  0  0
    6.7713   -2.6935   -1.8842 H   0  0  0  0  0  0  0  0  0  0  0  0
    5.9295    0.0544    0.3705 H   0  0  0  0  0  0  0  0  0  0  0  0
    5.3475   -0.3173   -1.1749 H   0  0  0  0  0  0  0  0  0  0  0  0
    3.4701   -0.1996    0.5491 H   0  0  0  0  0  0  0  0  0  0  0  0
    2.2817   -2.1138   -0.2037 H   0  0  0  0  0  0  0  0  0  0  0  0
    3.5093   -4.2449   -0.6835 H   0  0  0  0  0  0  0  0  0  0  0  0
    2.0690   -4.5842    0.7183 H   0  0  0  0  0  0  0  0  0  0  0  0
    2.5159   -1.1387    2.7581 H   0  0  0  0  0  0  0  0  0  0  0  0
    3.2717   -2.4327    3.6439 H   0  0  0  0  0  0  0  0  0  0  0  0
    5.2327   -1.0788    3.8313 H   0  0  0  0  0  0  0  0  0  0  0  0
    4.6365    0.2409    2.8218 H   0  0  0  0  0  0  0  0  0  0  0  0
    6.1789   -0.5373    2.4683 H   0  0  0  0  0  0  0  0  0  0  0  0
    6.3474   -2.8605    2.1459 H   0  0  0  0  0  0  0  0  0  0  0  0
    5.7413   -5.0630    2.5075 H   0  0  0  0  0  0  0  0  0  0  0  0
    4.8410   -4.0745    3.6489 H   0  0  0  0  0  0  0  0  0  0  0  0
  1  2  1  0
  1 27  1  0
  1 28  1  0
  1 29  1  0
  2  3  2  0
  2  4  1  0
  4  5  1  0
  6  5  1  6
  5 30  1  0
  5 31  1  0
  6 16  1  0
  6  7  1  0
  6  8  1  0
  7 32  1  0
  7 33  1  0
  7 34  1  0
  8  9  1  0
  8 35  1  0
  8 36  1  0
  9 10  1  0
  9 37  1  0
  9 38  1  0
 11 10  1  1
 10 39  1  0
 10 40  1  0
 11 17  1  0
 11 23  1  0
 11 12  1  0
 12 13  1  0
 12 14  1  0
 12 41  1  1
 13 42  1  0
 14 15  1  0
 14 43  1  0
 14 44  1  0
 15 21  1  0
 15 16  1  0
 15 45  1  1
 16 17  1  0
 16 46  1  1
 17 18  1  0
 17 47  1  6
 18 25  1  0
 18 19  1  0
 18 48  1  6
 19 20  1  0
 20 21  1  0
 20 49  1  0
 20 50  1  0
 21 22  1  1
 21 23  1  0
 22 51  1  0
 22 52  1  0
 22 53  1  0
 23 24  1  0
 23 54  1  1
 24 25  1  0
 24 55  1  0
 24 56  1  0
 25 26  2  0
M  END
>  <i_m_ct_stereo_status>  (173) 
1

>  <s_m_source_file>  (173) 
/var/tmp/pbs.5076255.sched01/tmp378oxcv0/78pm6kuo1p.sdf

>  <i_m_source_file_index>  (173) 
5

>  <i_lp_mmshare_version>  (173) 
48012

>  <i_f3d_flags>  (173) 
0

>  <s_epik_input>  (173) 
W0NIM11DKD1PKU9bQ0gyXVtDQEBdKFtDSDNdKShbQ0gyXVtDSDJdW0NIMl0xKVtDQEBIXShbQ0BIXTJbQ0BAXTEzNClbQ0BIXShbQ0gyXVtDQEBIXTNbT0hdKVtDQF01KFtDSDNdKVtDQEhdNFtDSDJdQyg9TylbQ0BIXTJPW0NIMl01

>  <s_epik_cmdline>  (173) 
J2VwaWtfcHl0aG9uJywgJy1waHQnLCAnMi4wJywgJy1waCcsICc3LjAnLCAnLXRuJywgJzgnLCAnLW1hJywgJzIwMCcsICctaW1hZScsICc8aW5maWxlLm1hZT4nLCAnLW9tYWUnLCAnPG91dGZpbGUubWFlPic=

>  <r_lp_tautomer_probability>  (173) 
1

>  <r_epik_Ionization_Penalty>  (173) 
6.01739e-07

>  <r_epik_Ionization_Penalty_Charging>  (173) 
0

>  <r_epik_Ionization_Penalty_Neutral>  (173) 
6.01739e-07

>  <r_epik_State_Penalty>  (173) 
-0

>  <r_epik_Charging_Adjusted_Penalty>  (173) 
0

>  <i_epik_Tot_Q>  (173) 
0

>  <i_epik_Tot_abs_Q>  (173) 
0

>  <s_epik_Chemistry_Notes>  (173) 
This compound has an ester and may undergo hydrolysis at high or low pH.

>  <s_lp_Force_Field>  (173) 
OPLS3e

>  <r_lp_Energy>  (173) 
143.523

>  <b_lp_Chiralities_Consistent>  (173) 
1

>  <s_lp_Variant>  (173) 
55:0-1

>  <s_i_glide_gridfile>  (173) 
pfpi4k_grid

>  <i_i_glide_lignum>  (173) 
5

>  <i_i_glide_rotatable_bonds>  (173) 
4

>  <r_i_docking_score>  (173) 
-2.79676

>  <r_i_glide_ligand_efficiency>  (173) 
-0.107568

>  <r_i_glide_ligand_efficiency_sa>  (173) 
-0.318669

>  <r_i_glide_ligand_efficiency_ln>  (173) 
-0.656811

>  <r_i_glide_gscore>  (173) 
-2.79676

>  <r_i_glide_lipo>  (173) 
-0.563118

>  <r_i_glide_hbond>  (173) 
-0.214602

>  <r_i_glide_metal>  (173) 
-0

>  <r_i_glide_rewards>  (173) 
-1.18586

>  <r_i_glide_evdw>  (173) 
-5.32794

>  <r_i_glide_ecoul>  (173) 
-5.7274

>  <r_i_glide_erotb>  (173) 
0.292322

>  <r_i_glide_esite>  (173) 
0

>  <r_i_glide_emodel>  (173) 
-8.81358

>  <r_i_glide_energy>  (173) 
-11.0553

>  <r_i_glide_einternal>  (173) 
8.93841

>  <r_i_glide_intrahb_reward>  (173) 
-0

>  <i_i_glide_confnum>  (173) 
5

>  <i_i_glide_posenum>  (173) 
4

>  <r_i_glide_eff_state_penalty>  (173) 
0

>  <ligand_id>  (173) 
55

>  <original_smiles>  (173) 
CC(=O)OCC1(C)CCCC23C(O)CC4C1C2C1OCC4(C)C3CC1=O

>  <smiles>  (173) 
[H]OC1([H])C([H])([H])C2([H])C3([H])C4([H])C5([H])OC([H])([H])C2(C([H])([H])[H])C([H])(C([H])([H])C5=O)C14C([H])([H])C([H])([H])C([H])([H])C3(C([H])([H])[H])C([H])([H])OC(=O)C([H])([H])[H]

$$$$
55:0:1
     RDKit          3D

 56 60  0  0  1  0  0  0  0  0999 V2000
   -0.4511   -9.3877    2.8631 C   0  0  0  0  0  0  0  0  0  0  0  0
   -0.2357   -7.9618    2.3707 C   0  0  0  0  0  0  0  0  0  0  0  0
   -1.0847   -7.0790    2.5398 O   0  0  0  0  0  0  0  0  0  0  0  0
    0.9791   -7.7863    1.8144 O   0  0  0  0  0  0  0  0  0  0  0  0
    1.4110   -6.4881    1.4111 C   0  0  0  0  0  0  0  0  0  0  0  0
    2.3784   -5.7864    2.4225 C   0  0  1  0  0  0  0  0  0  0  0  0
    1.6815   -5.8665    3.8204 C   0  0  0  0  0  0  0  0  0  0  0  0
    3.7428   -6.6038    2.5592 C   0  0  0  0  0  0  0  0  0  0  0  0
    5.0389   -6.0895    3.3639 C   0  0  0  0  0  0  0  0  0  0  0  0
    5.7936   -4.7245    3.0232 C   0  0  0  0  0  0  0  0  0  0  0  0
    4.9449   -3.8787    2.0714 C   0  0  1  0  0  0  0  0  0  0  0  0
    5.0590   -4.6097    0.6396 C   0  0  1  0  0  0  0  0  0  0  0  0
    5.7491   -5.8397    0.4891 O   0  0  0  0  0  0  0  0  0  0  0  0
    3.7633   -4.5673   -0.1386 C   0  0  0  0  0  0  0  0  0  0  0  0
    2.8547   -3.6058    0.6178 C   0  0  1  0  0  0  0  0  0  0  0  0
    2.5077   -4.2422    2.0440 C   0  0  2  0  0  0  0  0  0  0  0  0
    3.5954   -3.7145    2.9189 C   0  0  2  0  0  0  0  0  0  0  0  0
    3.2297   -2.3389    3.5639 C   0  0  2  0  0  0  0  0  0  0  0  0
    2.3230   -1.5801    2.7637 O   0  0  0  0  0  0  0  0  0  0  0  0
    2.7683   -1.1638    1.4795 C   0  0  0  0  0  0  0  0  0  0  0  0
    3.6760   -2.1968    0.7592 C   0  0  2  0  0  0  0  0  0  0  0  0
    3.9965   -1.6002   -0.6323 C   0  0  0  0  0  0  0  0  0  0  0  0
    5.0705   -2.4069    1.5649 C   0  0  1  0  0  0  0  0  0  0  0  0
    5.4021   -1.3676    2.6598 C   0  0  0  0  0  0  0  0  0  0  0  0
    4.4867   -1.5338    3.8546 C   0  0  0  0  0  0  0  0  0  0  0  0
    4.7602   -1.0963    4.9713 O   0  0  0  0  0  0  0  0  0  0  0  0
    0.4031   -9.7059    3.4656 H   0  0  0  0  0  0  0  0  0  0  0  0
   -0.5507  -10.0847    2.0259 H   0  0  0  0  0  0  0  0  0  0  0  0
   -1.3490   -9.4600    3.4765 H   0  0  0  0  0  0  0  0  0  0  0  0
    1.8703   -6.6242    0.4365 H   0  0  0  0  0  0  0  0  0  0  0  0
    0.5427   -5.8589    1.2263 H   0  0  0  0  0  0  0  0  0  0  0  0
    2.2520   -5.4532    4.6484 H   0  0  0  0  0  0  0  0  0  0  0  0
    1.4826   -6.8977    4.1189 H   0  0  0  0  0  0  0  0  0  0  0  0
    0.7264   -5.3415    3.8155 H   0  0  0  0  0  0  0  0  0  0  0  0
    3.4732   -7.5346    3.0693 H   0  0  0  0  0  0  0  0  0  0  0  0
    4.0042   -6.9894    1.5795 H   0  0  0  0  0  0  0  0  0  0  0  0
    4.7726   -6.0573    4.4232 H   0  0  0  0  0  0  0  0  0  0  0  0
    5.7893   -6.8805    3.3153 H   0  0  0  0  0  0  0  0  0  0  0  0
    5.9694   -4.1820    3.9528 H   0  0  0  0  0  0  0  0  0  0  0  0
    6.7777   -4.9146    2.5935 H   0  0  0  0  0  0  0  0  0  0  0  0
    5.7611   -4.0574    0.0160 H   0  0  0  0  0  0  0  0  0  0  0  0
    5.2765   -6.4983    0.9695 H   0  0  0  0  0  0  0  0  0  0  0  0
    3.9427   -4.2374   -1.1612 H   0  0  0  0  0  0  0  0  0  0  0  0
    3.3398   -5.5532   -0.2554 H   0  0  0  0  0  0  0  0  0  0  0  0
    1.9446   -3.4502    0.0361 H   0  0  0  0  0  0  0  0  0  0  0  0
    1.5564   -3.7980    2.3385 H   0  0  0  0  0  0  0  0  0  0  0  0
    3.6491   -4.2451    3.8596 H   0  0  0  0  0  0  0  0  0  0  0  0
    2.7133   -2.5195    4.5067 H   0  0  0  0  0  0  0  0  0  0  0  0
    1.8739   -0.9907    0.8880 H   0  0  0  0  0  0  0  0  0  0  0  0
    3.2533   -0.1873    1.5443 H   0  0  0  0  0  0  0  0  0  0  0  0
    4.3744   -0.5794   -0.5422 H   0  0  0  0  0  0  0  0  0  0  0  0
    3.1006   -1.5709   -1.2527 H   0  0  0  0  0  0  0  0  0  0  0  0
    4.7563   -2.1736   -1.1611 H   0  0  0  0  0  0  0  0  0  0  0  0
    5.9185   -2.2736    0.8881 H   0  0  0  0  0  0  0  0  0  0  0  0
    6.4288   -1.5204    2.9727 H   0  0  0  0  0  0  0  0  0  0  0  0
    5.3356   -0.3485    2.2780 H   0  0  0  0  0  0  0  0  0  0  0  0
  1  2  1  0
  1 27  1  0
  1 28  1  0
  1 29  1  0
  2  3  2  0
  2  4  1  0
  4  5  1  0
  6  5  1  6
  5 30  1  0
  5 31  1  0
  6 16  1  0
  6  7  1  0
  6  8  1  0
  7 32  1  0
  7 33  1  0
  7 34  1  0
  8  9  1  0
  8 35  1  0
  8 36  1  0
  9 10  1  0
  9 37  1  0
  9 38  1  0
 11 10  1  1
 10 39  1  0
 10 40  1  0
 11 17  1  0
 11 23  1  0
 11 12  1  0
 12 13  1  0
 12 14  1  0
 12 41  1  6
 13 42  1  0
 14 15  1  0
 14 43  1  0
 14 44  1  0
 15 21  1  0
 15 16  1  0
 15 45  1  6
 16 17  1  0
 16 46  1  1
 17 18  1  0
 17 47  1  1
 18 25  1  0
 18 19  1  0
 18 48  1  1
 19 20  1  0
 20 21  1  0
 20 49  1  0
 20 50  1  0
 21 22  1  6
 21 23  1  0
 22 51  1  0
 22 52  1  0
 22 53  1  0
 23 24  1  0
 23 54  1  6
 24 25  1  0
 24 55  1  0
 24 56  1  0
 25 26  2  0
M  END
>  <i_m_ct_stereo_status>  (174) 
1

>  <s_m_source_file>  (174) 
/var/tmp/pbs.5076255.sched01/tmp378oxcv0/78pm6kuo1p.sdf

>  <i_m_source_file_index>  (174) 
5

>  <i_lp_mmshare_version>  (174) 
48012

>  <i_f3d_flags>  (174) 
0

>  <s_epik_input>  (174) 
W0NIM11DKD1PKU9bQ0gyXVtDQEBdKFtDSDNdKShbQ0gyXVtDSDJdW0NIMl0xKVtDQEBIXShbQ0BIXTJbQ0BAXTEzNClbQ0BIXShbQ0gyXVtDQEBIXTNbT0hdKVtDQF01KFtDSDNdKVtDQEhdNFtDSDJdQyg9TylbQ0BIXTJPW0NIMl01

>  <s_epik_cmdline>  (174) 
J2VwaWtfcHl0aG9uJywgJy1waHQnLCAnMi4wJywgJy1waCcsICc3LjAnLCAnLXRuJywgJzgnLCAnLW1hJywgJzIwMCcsICctaW1hZScsICc8aW5maWxlLm1hZT4nLCAnLW9tYWUnLCAnPG91dGZpbGUubWFlPic=

>  <r_lp_tautomer_probability>  (174) 
1

>  <r_epik_Ionization_Penalty>  (174) 
6.01739e-07

>  <r_epik_Ionization_Penalty_Charging>  (174) 
0

>  <r_epik_Ionization_Penalty_Neutral>  (174) 
6.01739e-07

>  <r_epik_State_Penalty>  (174) 
-0

>  <r_epik_Charging_Adjusted_Penalty>  (174) 
0

>  <i_epik_Tot_Q>  (174) 
0

>  <i_epik_Tot_abs_Q>  (174) 
0

>  <s_epik_Chemistry_Notes>  (174) 
This compound has an ester and may undergo hydrolysis at high or low pH.

>  <s_lp_Force_Field>  (174) 
OPLS3e

>  <r_lp_Energy>  (174) 
143.523

>  <b_lp_Chiralities_Consistent>  (174) 
1

>  <s_lp_Variant>  (174) 
55:0-1

>  <s_i_glide_gridfile>  (174) 
pfpi4k_grid

>  <i_i_glide_lignum>  (174) 
5

>  <i_i_glide_rotatable_bonds>  (174) 
4

>  <r_i_docking_score>  (174) 
-2.71766

>  <r_i_glide_ligand_efficiency>  (174) 
-0.104525

>  <r_i_glide_ligand_efficiency_sa>  (174) 
-0.309656

>  <r_i_glide_ligand_efficiency_ln>  (174) 
-0.638234

>  <r_i_glide_gscore>  (174) 
-2.71766

>  <r_i_glide_lipo>  (174) 
-0.242722

>  <r_i_glide_hbond>  (174) 
-0.16

>  <r_i_glide_metal>  (174) 
-0

>  <r_i_glide_rewards>  (174) 
-0.973999

>  <r_i_glide_evdw>  (174) 
-23.5679

>  <r_i_glide_ecoul>  (174) 
-2.65359

>  <r_i_glide_erotb>  (174) 
0.292322

>  <r_i_glide_esite>  (174) 
-0.0568277

>  <r_i_glide_emodel>  (174) 
-30.0491

>  <r_i_glide_energy>  (174) 
-26.2215

>  <r_i_glide_einternal>  (174) 
0.75748

>  <r_i_glide_intrahb_reward>  (174) 
-0

>  <i_i_glide_confnum>  (174) 
1

>  <i_i_glide_posenum>  (174) 
1

>  <r_i_glide_eff_state_penalty>  (174) 
0

>  <ligand_id>  (174) 
55

>  <original_smiles>  (174) 
CC(=O)OCC1(C)CCCC23C(O)CC4C1C2C1OCC4(C)C3CC1=O

>  <smiles>  (174) 
[H]OC1([H])C([H])([H])C2([H])C3([H])C4([H])C5([H])OC([H])([H])C2(C([H])([H])[H])C([H])(C([H])([H])C5=O)C14C([H])([H])C([H])([H])C([H])([H])C3(C([H])([H])[H])C([H])([H])OC(=O)C([H])([H])[H]

$$$$
56:0:0
     RDKit          3D

 43 45  0  0  1  0  0  0  0  0999 V2000
   -1.3315   -9.0496    2.1343 C   0  0  0  0  0  0  0  0  0  0  0  0
   -0.7193   -8.9219    3.4099 O   0  0  0  0  0  0  0  0  0  0  0  0
    0.6485   -9.0494    3.4880 C   0  0  0  0  0  0  0  0  0  0  0  0
    1.1917   -9.3088    4.7639 C   0  0  0  0  0  0  0  0  0  0  0  0
    2.5814   -9.4269    4.9532 C   0  0  0  0  0  0  0  0  0  0  0  0
    3.4486   -9.2615    3.8617 C   0  0  0  0  0  0  0  0  0  0  0  0
    2.9305   -8.9959    2.5752 C   0  0  0  0  0  0  0  0  0  0  0  0
    3.8777   -8.8004    1.4009 C   0  0  2  0  0  0  0  0  0  0  0  0
    4.9080   -9.8485    1.3820 N   0  0  0  0  0  0  0  0  0  0  0  0
    6.1739   -9.7100    1.7959 C   0  0  0  0  0  0  0  0  0  0  0  0
    6.8889  -10.6718    2.0807 O   0  0  0  0  0  0  0  0  0  0  0  0
    6.6165   -8.4366    1.8392 N   0  0  0  0  0  0  0  0  0  0  0  0
    5.8602   -7.2904    1.5715 C   0  0  0  0  0  0  0  0  0  0  0  0
    6.7699   -6.0532    1.6163 C   0  0  0  0  0  0  0  0  0  0  0  0
    4.5177   -7.3968    1.3671 C   0  0  0  0  0  0  0  0  0  0  0  0
    3.5858   -6.2628    1.0549 C   0  0  0  0  0  0  0  0  0  0  0  0
    2.3616   -6.3608    0.9387 O   0  0  0  0  0  0  0  0  0  0  0  0
    4.2266   -5.0841    0.9223 O   0  0  0  0  0  0  0  0  0  0  0  0
    3.5504   -3.8789    0.6352 C   0  0  0  0  0  0  0  0  0  0  0  0
    3.1745   -3.7700   -0.8234 C   0  0  0  0  0  0  0  0  0  0  0  0
    4.2034   -3.3750   -1.8592 C   0  0  0  0  0  0  0  0  0  0  0  0
    3.0662   -2.4344   -1.5093 C   0  0  0  0  0  0  0  0  0  0  0  0
    1.5289   -8.8995    2.3878 C   0  0  0  0  0  0  0  0  0  0  0  0
   -2.4112   -8.9831    2.2567 H   0  0  0  0  0  0  0  0  0  0  0  0
   -1.1106  -10.0230    1.6923 H   0  0  0  0  0  0  0  0  0  0  0  0
   -1.0320   -8.2544    1.4508 H   0  0  0  0  0  0  0  0  0  0  0  0
    0.5393   -9.4325    5.6058 H   0  0  0  0  0  0  0  0  0  0  0  0
    2.9957   -9.6382    5.9232 H   0  0  0  0  0  0  0  0  0  0  0  0
    4.5028   -9.3398    4.0113 H   0  0  0  0  0  0  0  0  0  0  0  0
    3.3420   -8.9494    0.4866 H   0  0  0  0  0  0  0  0  0  0  0  0
    4.5956  -10.8028    1.1282 H   0  0  0  0  0  0  0  0  0  0  0  0
    6.6018   -5.3015    0.8361 H   0  0  0  0  0  0  0  0  0  0  0  0
    7.8241   -6.3284    1.5251 H   0  0  0  0  0  0  0  0  0  0  0  0
    6.6523   -5.5711    2.5883 H   0  0  0  0  0  0  0  0  0  0  0  0
    7.5718   -8.2939    2.0979 H   0  0  0  0  0  0  0  0  0  0  0  0
    2.6659   -3.7284    1.2815 H   0  0  0  0  0  0  0  0  0  0  0  0
    4.2545   -3.0672    0.8764 H   0  0  0  0  0  0  0  0  0  0  0  0
    2.4463   -4.5242   -1.1164 H   0  0  0  0  0  0  0  0  0  0  0  0
    5.2058   -3.1160   -1.5120 H   0  0  0  0  0  0  0  0  0  0  0  0
    4.1578   -3.8643   -2.8219 H   0  0  0  0  0  0  0  0  0  0  0  0
    2.2593   -2.3238   -2.2228 H   0  0  0  0  0  0  0  0  0  0  0  0
    3.2877   -1.5480   -0.9092 H   0  0  0  0  0  0  0  0  0  0  0  0
    1.1542   -8.6834    1.4066 H   0  0  0  0  0  0  0  0  0  0  0  0
  1  2  1  0
  1 24  1  0
  1 25  1  0
  1 26  1  0
  2  3  1  0
  3 23  2  0
  3  4  1  0
  4  5  2  0
  4 27  1  0
  5  6  1  0
  5 28  1  0
  6  7  2  0
  6 29  1  0
  7  8  1  0
  7 23  1  0
  8  9  1  0
  8 30  1  6
  8 15  1  0
  9 10  1  0
  9 31  1  0
 10 11  2  0
 10 12  1  0
 12 13  1  0
 12 35  1  0
 13 15  2  0
 13 14  1  0
 14 32  1  0
 14 33  1  0
 14 34  1  0
 15 16  1  0
 16 17  2  0
 16 18  1  0
 18 19  1  0
 19 20  1  0
 19 36  1  0
 19 37  1  0
 20 22  1  0
 20 21  1  0
 20 38  1  0
 21 22  1  0
 21 39  1  0
 21 40  1  0
 22 41  1  0
 22 42  1  0
 23 43  1  0
M  END
>  <i_m_ct_stereo_status>  (175) 
1

>  <s_m_source_file>  (175) 
/var/tmp/pbs.5076255.sched01/tmp378oxcv0/78pm6kuo1p.sdf

>  <i_m_source_file_index>  (175) 
6

>  <i_lp_mmshare_version>  (175) 
48012

>  <i_f3d_flags>  (175) 
0

>  <s_epik_input>  (175) 
W0NIM11PYzFbY0hdW2NIXVtjSF1jKFtjSF0xKVtDQEBIXTJbTkhdQyg9TylOPUMoW0NIM10pW0NASF0yQyg9TylPW0NIMl1bQ0hdM1tDSDJdW0NIMl0z

>  <s_epik_cmdline>  (175) 
J2VwaWtfcHl0aG9uJywgJy1waHQnLCAnMi4wJywgJy1waCcsICc3LjAnLCAnLXRuJywgJzgnLCAnLW1hJywgJzIwMCcsICctaW1hZScsICc8aW5maWxlLm1hZT4nLCAnLW9tYWUnLCAnPG91dGZpbGUubWFlPic=

>  <r_lp_tautomer_probability>  (175) 
1

>  <r_epik_Ionization_Penalty>  (175) 
2.48028e-05

>  <r_epik_Ionization_Penalty_Charging>  (175) 
0

>  <r_epik_Ionization_Penalty_Neutral>  (175) 
2.48028e-05

>  <r_epik_State_Penalty>  (175) 
-0

>  <r_epik_Charging_Adjusted_Penalty>  (175) 
0

>  <i_epik_Tot_Q>  (175) 
0

>  <i_epik_Tot_abs_Q>  (175) 
0

>  <s_epik_Chemistry_Notes>  (175) 
This compound has an ester and may undergo hydrolysis at high or low pH.

>  <s_lp_Force_Field>  (175) 
OPLS3e

>  <r_lp_Energy>  (175) 
49.2579

>  <b_lp_Chiralities_Consistent>  (175) 
1

>  <s_lp_Variant>  (175) 
56:0-1

>  <s_i_glide_gridfile>  (175) 
pfpi4k_grid

>  <i_i_glide_lignum>  (175) 
6

>  <i_i_glide_rotatable_bonds>  (175) 
6

>  <r_i_docking_score>  (175) 
-3.3844

>  <r_i_glide_ligand_efficiency>  (175) 
-0.147148

>  <r_i_glide_ligand_efficiency_sa>  (175) 
-0.418469

>  <r_i_glide_ligand_efficiency_ln>  (175) 
-0.81838

>  <r_i_glide_gscore>  (175) 
-3.3844

>  <r_i_glide_lipo>  (175) 
-0.409398

>  <r_i_glide_hbond>  (175) 
-0.16

>  <r_i_glide_metal>  (175) 
-0

>  <r_i_glide_rewards>  (175) 
-1.31778

>  <r_i_glide_evdw>  (175) 
-24.9462

>  <r_i_glide_ecoul>  (175) 
-5.88871

>  <r_i_glide_erotb>  (175) 
0.744039

>  <r_i_glide_esite>  (175) 
-0.110645

>  <r_i_glide_emodel>  (175) 
-36.8768

>  <r_i_glide_energy>  (175) 
-30.8349

>  <r_i_glide_einternal>  (175) 
1.00616

>  <r_i_glide_intrahb_reward>  (175) 
-0

>  <i_i_glide_confnum>  (175) 
2

>  <i_i_glide_posenum>  (175) 
29

>  <r_i_glide_eff_state_penalty>  (175) 
0

>  <ligand_id>  (175) 
56

>  <original_smiles>  (175) 
COc1cccc(C2NC(=O)N=C(C)C2C(=O)OCC2CC2)c1

>  <smiles>  (175) 
[H]c1c([H])c(OC([H])([H])[H])c([H])c(C2([H])C(C(=O)OC([H])([H])C3([H])C([H])([H])C3([H])[H])=C(C([H])([H])[H])N([H])C(=O)N2[H])c1[H]

$$$$
56:0:1
     RDKit          3D

 43 45  0  0  1  0  0  0  0  0999 V2000
   -0.8565   -8.1813    1.9118 C   0  0  0  0  0  0  0  0  0  0  0  0
   -0.6226   -7.1086    2.8135 O   0  0  0  0  0  0  0  0  0  0  0  0
    0.6287   -6.5360    2.8323 C   0  0  0  0  0  0  0  0  0  0  0  0
    0.9258   -5.7048    3.9315 C   0  0  0  0  0  0  0  0  0  0  0  0
    2.1669   -5.0524    4.0321 C   0  0  0  0  0  0  0  0  0  0  0  0
    3.1257   -5.2222    3.0217 C   0  0  0  0  0  0  0  0  0  0  0  0
    2.8410   -6.0316    1.9021 C   0  0  0  0  0  0  0  0  0  0  0  0
    3.8935   -6.1866    0.8111 C   0  0  2  0  0  0  0  0  0  0  0  0
    4.8856   -7.1773    1.2399 N   0  0  0  0  0  0  0  0  0  0  0  0
    6.1099   -6.9040    1.7040 C   0  0  0  0  0  0  0  0  0  0  0  0
    6.7615   -7.7237    2.3492 O   0  0  0  0  0  0  0  0  0  0  0  0
    6.5847   -5.6836    1.3969 N   0  0  0  0  0  0  0  0  0  0  0  0
    5.8815   -4.6783    0.7176 C   0  0  0  0  0  0  0  0  0  0  0  0
    6.7939   -3.4565    0.4986 C   0  0  0  0  0  0  0  0  0  0  0  0
    4.5736   -4.8683    0.4120 C   0  0  0  0  0  0  0  0  0  0  0  0
    3.6827   -3.8779   -0.2660 C   0  0  0  0  0  0  0  0  0  0  0  0
    2.4581   -3.9876   -0.3360 O   0  0  0  0  0  0  0  0  0  0  0  0
    4.3720   -2.8469   -0.7976 O   0  0  0  0  0  0  0  0  0  0  0  0
    3.7455   -1.7416   -1.3961 C   0  0  0  0  0  0  0  0  0  0  0  0
    3.2404   -2.0891   -2.7823 C   0  0  0  0  0  0  0  0  0  0  0  0
    4.2080   -2.6264   -3.8133 C   0  0  0  0  0  0  0  0  0  0  0  0
    3.5898   -1.2555   -3.9933 C   0  0  0  0  0  0  0  0  0  0  0  0
    1.5992   -6.7058    1.8136 C   0  0  0  0  0  0  0  0  0  0  0  0
   -1.8698   -8.5616    2.0560 H   0  0  0  0  0  0  0  0  0  0  0  0
   -0.1647   -9.0085    2.0820 H   0  0  0  0  0  0  0  0  0  0  0  0
   -0.7784   -7.8563    0.8755 H   0  0  0  0  0  0  0  0  0  0  0  0
    0.1967   -5.5690    4.7111 H   0  0  0  0  0  0  0  0  0  0  0  0
    2.3862   -4.4166    4.8735 H   0  0  0  0  0  0  0  0  0  0  0  0
    4.0744   -4.7212    3.0999 H   0  0  0  0  0  0  0  0  0  0  0  0
    3.4457   -6.5864   -0.0986 H   0  0  0  0  0  0  0  0  0  0  0  0
    4.5643   -8.1332    1.3416 H   0  0  0  0  0  0  0  0  0  0  0  0
    6.6936   -2.9710   -0.4692 H   0  0  0  0  0  0  0  0  0  0  0  0
    7.8515   -3.7395    0.5682 H   0  0  0  0  0  0  0  0  0  0  0  0
    6.5931   -2.7290    1.2873 H   0  0  0  0  0  0  0  0  0  0  0  0
    7.5074   -5.4602    1.7184 H   0  0  0  0  0  0  0  0  0  0  0  0
    2.9541   -1.3172   -0.7691 H   0  0  0  0  0  0  0  0  0  0  0  0
    4.5029   -0.9562   -1.4984 H   0  0  0  0  0  0  0  0  0  0  0  0
    2.2637   -2.5799   -2.7746 H   0  0  0  0  0  0  0  0  0  0  0  0
    5.2586   -2.6819   -3.5262 H   0  0  0  0  0  0  0  0  0  0  0  0
    3.8549   -3.4323   -4.4481 H   0  0  0  0  0  0  0  0  0  0  0  0
    2.8037   -1.1353   -4.7302 H   0  0  0  0  0  0  0  0  0  0  0  0
    4.2149   -0.3775   -3.8254 H   0  0  0  0  0  0  0  0  0  0  0  0
    1.4074   -7.3239    0.9542 H   0  0  0  0  0  0  0  0  0  0  0  0
  1  2  1  0
  1 24  1  0
  1 25  1  0
  1 26  1  0
  2  3  1  0
  3 23  2  0
  3  4  1  0
  4  5  2  0
  4 27  1  0
  5  6  1  0
  5 28  1  0
  6  7  2  0
  6 29  1  0
  7  8  1  0
  7 23  1  0
  8  9  1  0
  8 30  1  6
  8 15  1  0
  9 10  1  0
  9 31  1  0
 10 11  2  0
 10 12  1  0
 12 13  1  0
 12 35  1  0
 13 15  2  0
 13 14  1  0
 14 32  1  0
 14 33  1  0
 14 34  1  0
 15 16  1  0
 16 17  2  0
 16 18  1  0
 18 19  1  0
 19 20  1  0
 19 36  1  0
 19 37  1  0
 20 22  1  0
 20 21  1  0
 20 38  1  0
 21 22  1  0
 21 39  1  0
 21 40  1  0
 22 41  1  0
 22 42  1  0
 23 43  1  0
M  END
>  <i_m_ct_stereo_status>  (176) 
1

>  <s_m_source_file>  (176) 
/var/tmp/pbs.5076255.sched01/tmp378oxcv0/78pm6kuo1p.sdf

>  <i_m_source_file_index>  (176) 
6

>  <i_lp_mmshare_version>  (176) 
48012

>  <i_f3d_flags>  (176) 
0

>  <s_epik_input>  (176) 
W0NIM11PYzFbY0hdW2NIXVtjSF1jKFtjSF0xKVtDQEBIXTJbTkhdQyg9TylOPUMoW0NIM10pW0NASF0yQyg9TylPW0NIMl1bQ0hdM1tDSDJdW0NIMl0z

>  <s_epik_cmdline>  (176) 
J2VwaWtfcHl0aG9uJywgJy1waHQnLCAnMi4wJywgJy1waCcsICc3LjAnLCAnLXRuJywgJzgnLCAnLW1hJywgJzIwMCcsICctaW1hZScsICc8aW5maWxlLm1hZT4nLCAnLW9tYWUnLCAnPG91dGZpbGUubWFlPic=

>  <r_lp_tautomer_probability>  (176) 
1

>  <r_epik_Ionization_Penalty>  (176) 
2.48028e-05

>  <r_epik_Ionization_Penalty_Charging>  (176) 
0

>  <r_epik_Ionization_Penalty_Neutral>  (176) 
2.48028e-05

>  <r_epik_State_Penalty>  (176) 
-0

>  <r_epik_Charging_Adjusted_Penalty>  (176) 
0

>  <i_epik_Tot_Q>  (176) 
0

>  <i_epik_Tot_abs_Q>  (176) 
0

>  <s_epik_Chemistry_Notes>  (176) 
This compound has an ester and may undergo hydrolysis at high or low pH.

>  <s_lp_Force_Field>  (176) 
OPLS3e

>  <r_lp_Energy>  (176) 
49.2579

>  <b_lp_Chiralities_Consistent>  (176) 
1

>  <s_lp_Variant>  (176) 
56:0-1

>  <s_i_glide_gridfile>  (176) 
pfpi4k_grid

>  <i_i_glide_lignum>  (176) 
6

>  <i_i_glide_rotatable_bonds>  (176) 
6

>  <r_i_docking_score>  (176) 
-2.95893

>  <r_i_glide_ligand_efficiency>  (176) 
-0.128649

>  <r_i_glide_ligand_efficiency_sa>  (176) 
-0.365861

>  <r_i_glide_ligand_efficiency_ln>  (176) 
-0.715496

>  <r_i_glide_gscore>  (176) 
-2.95893

>  <r_i_glide_lipo>  (176) 
-0.509232

>  <r_i_glide_hbond>  (176) 
-0.117649

>  <r_i_glide_metal>  (176) 
-0

>  <r_i_glide_rewards>  (176) 
-1.35899

>  <r_i_glide_evdw>  (176) 
-27.8738

>  <r_i_glide_ecoul>  (176) 
-2.10425

>  <r_i_glide_erotb>  (176) 
0.744039

>  <r_i_glide_esite>  (176) 
-0.00776745

>  <r_i_glide_emodel>  (176) 
-34.6985

>  <r_i_glide_energy>  (176) 
-29.978

>  <r_i_glide_einternal>  (176) 
1.88081

>  <r_i_glide_intrahb_reward>  (176) 
-0

>  <i_i_glide_confnum>  (176) 
2

>  <i_i_glide_posenum>  (176) 
11

>  <r_i_glide_eff_state_penalty>  (176) 
0

>  <ligand_id>  (176) 
56

>  <original_smiles>  (176) 
COc1cccc(C2NC(=O)N=C(C)C2C(=O)OCC2CC2)c1

>  <smiles>  (176) 
[H]c1c([H])c(OC([H])([H])[H])c([H])c(C2([H])C(C(=O)OC([H])([H])C3([H])C([H])([H])C3([H])[H])=C(C([H])([H])[H])N([H])C(=O)N2[H])c1[H]

$$$$
56:0:2
     RDKit          3D

 43 45  0  0  1  0  0  0  0  0999 V2000
   -1.7739   -9.1204    2.2613 C   0  0  0  0  0  0  0  0  0  0  0  0
   -1.5596   -8.1649    3.2904 O   0  0  0  0  0  0  0  0  0  0  0  0
   -0.2905   -7.6459    3.4332 C   0  0  0  0  0  0  0  0  0  0  0  0
   -0.0607   -6.8559    4.5777 C   0  0  0  0  0  0  0  0  0  0  0  0
    1.1985   -6.2679    4.8113 C   0  0  0  0  0  0  0  0  0  0  0  0
    2.2414   -6.4605    3.8920 C   0  0  0  0  0  0  0  0  0  0  0  0
    2.0193   -7.2361    2.7399 C   0  0  0  0  0  0  0  0  0  0  0  0
    3.1597   -7.4202    1.7605 C   0  0  2  0  0  0  0  0  0  0  0  0
    4.1538   -8.3144    2.3363 N   0  0  0  0  0  0  0  0  0  0  0  0
    5.3454   -7.9553    2.8598 C   0  0  0  0  0  0  0  0  0  0  0  0
    5.9927   -8.6968    3.5644 O   0  0  0  0  0  0  0  0  0  0  0  0
    5.7742   -6.7269    2.4641 N   0  0  0  0  0  0  0  0  0  0  0  0
    5.0904   -5.8305    1.6626 C   0  0  0  0  0  0  0  0  0  0  0  0
    5.9608   -4.5937    1.4030 C   0  0  0  0  0  0  0  0  0  0  0  0
    3.8041   -6.1019    1.2870 C   0  0  0  0  0  0  0  0  0  0  0  0
    2.9066   -5.2229    0.4812 C   0  0  0  0  0  0  0  0  0  0  0  0
    1.7647   -5.5357    0.1173 O   0  0  0  0  0  0  0  0  0  0  0  0
    3.4939   -4.0403    0.1978 O   0  0  0  0  0  0  0  0  0  0  0  0
    2.8164   -2.9729   -0.4464 C   0  0  0  0  0  0  0  0  0  0  0  0
    2.7796   -3.1186   -1.9576 C   0  0  0  0  0  0  0  0  0  0  0  0
    4.0452   -3.0521   -2.7840 C   0  0  0  0  0  0  0  0  0  0  0  0
    3.0211   -1.9398   -2.8709 C   0  0  0  0  0  0  0  0  0  0  0  0
    0.7644   -7.8430    2.5075 C   0  0  0  0  0  0  0  0  0  0  0  0
   -2.8055   -9.4603    2.2967 H   0  0  0  0  0  0  0  0  0  0  0  0
   -1.1312   -9.9948    2.3787 H   0  0  0  0  0  0  0  0  0  0  0  0
   -1.6123   -8.6800    1.2769 H   0  0  0  0  0  0  0  0  0  0  0  0
   -0.8549   -6.7109    5.2919 H   0  0  0  0  0  0  0  0  0  0  0  0
    1.3719   -5.6684    5.6941 H   0  0  0  0  0  0  0  0  0  0  0  0
    3.2078   -6.0144    4.0642 H   0  0  0  0  0  0  0  0  0  0  0  0
    2.8014   -7.9572    0.8908 H   0  0  0  0  0  0  0  0  0  0  0  0
    3.8850   -9.2910    2.4516 H   0  0  0  0  0  0  0  0  0  0  0  0
    5.9347   -4.1993    0.3815 H   0  0  0  0  0  0  0  0  0  0  0  0
    7.0228   -4.8050    1.5847 H   0  0  0  0  0  0  0  0  0  0  0  0
    5.6582   -3.8005    2.0972 H   0  0  0  0  0  0  0  0  0  0  0  0
    6.6631   -6.4393    2.8302 H   0  0  0  0  0  0  0  0  0  0  0  0
    1.8096   -2.8076   -0.0323 H   0  0  0  0  0  0  0  0  0  0  0  0
    3.4102   -2.0849   -0.2172 H   0  0  0  0  0  0  0  0  0  0  0  0
    2.0478   -3.8483   -2.2921 H   0  0  0  0  0  0  0  0  0  0  0  0
    4.9827   -2.8453   -2.2665 H   0  0  0  0  0  0  0  0  0  0  0  0
    4.1209   -3.7309   -3.6275 H   0  0  0  0  0  0  0  0  0  0  0  0
    2.4008   -1.8838   -3.7600 H   0  0  0  0  0  0  0  0  0  0  0  0
    3.2474   -0.9841   -2.3944 H   0  0  0  0  0  0  0  0  0  0  0  0
    0.6262   -8.4400    1.6197 H   0  0  0  0  0  0  0  0  0  0  0  0
  1  2  1  0
  1 24  1  0
  1 25  1  0
  1 26  1  0
  2  3  1  0
  3 23  2  0
  3  4  1  0
  4  5  2  0
  4 27  1  0
  5  6  1  0
  5 28  1  0
  6  7  2  0
  6 29  1  0
  7  8  1  0
  7 23  1  0
  8  9  1  0
  8 30  1  6
  8 15  1  0
  9 10  1  0
  9 31  1  0
 10 11  2  0
 10 12  1  0
 12 13  1  0
 12 35  1  0
 13 15  2  0
 13 14  1  0
 14 32  1  0
 14 33  1  0
 14 34  1  0
 15 16  1  0
 16 17  2  0
 16 18  1  0
 18 19  1  0
 19 20  1  0
 19 36  1  0
 19 37  1  0
 20 22  1  0
 20 21  1  0
 20 38  1  0
 21 22  1  0
 21 39  1  0
 21 40  1  0
 22 41  1  0
 22 42  1  0
 23 43  1  0
M  END
>  <i_m_ct_stereo_status>  (177) 
1

>  <s_m_source_file>  (177) 
/var/tmp/pbs.5076255.sched01/tmp378oxcv0/78pm6kuo1p.sdf

>  <i_m_source_file_index>  (177) 
6

>  <i_lp_mmshare_version>  (177) 
48012

>  <i_f3d_flags>  (177) 
0

>  <s_epik_input>  (177) 
W0NIM11PYzFbY0hdW2NIXVtjSF1jKFtjSF0xKVtDQEBIXTJbTkhdQyg9TylOPUMoW0NIM10pW0NASF0yQyg9TylPW0NIMl1bQ0hdM1tDSDJdW0NIMl0z

>  <s_epik_cmdline>  (177) 
J2VwaWtfcHl0aG9uJywgJy1waHQnLCAnMi4wJywgJy1waCcsICc3LjAnLCAnLXRuJywgJzgnLCAnLW1hJywgJzIwMCcsICctaW1hZScsICc8aW5maWxlLm1hZT4nLCAnLW9tYWUnLCAnPG91dGZpbGUubWFlPic=

>  <r_lp_tautomer_probability>  (177) 
1

>  <r_epik_Ionization_Penalty>  (177) 
2.48028e-05

>  <r_epik_Ionization_Penalty_Charging>  (177) 
0

>  <r_epik_Ionization_Penalty_Neutral>  (177) 
2.48028e-05

>  <r_epik_State_Penalty>  (177) 
-0

>  <r_epik_Charging_Adjusted_Penalty>  (177) 
0

>  <i_epik_Tot_Q>  (177) 
0

>  <i_epik_Tot_abs_Q>  (177) 
0

>  <s_epik_Chemistry_Notes>  (177) 
This compound has an ester and may undergo hydrolysis at high or low pH.

>  <s_lp_Force_Field>  (177) 
OPLS3e

>  <r_lp_Energy>  (177) 
49.2579

>  <b_lp_Chiralities_Consistent>  (177) 
1

>  <s_lp_Variant>  (177) 
56:0-1

>  <s_i_glide_gridfile>  (177) 
pfpi4k_grid

>  <i_i_glide_lignum>  (177) 
6

>  <i_i_glide_rotatable_bonds>  (177) 
6

>  <r_i_docking_score>  (177) 
-2.93865

>  <r_i_glide_ligand_efficiency>  (177) 
-0.127767

>  <r_i_glide_ligand_efficiency_sa>  (177) 
-0.363353

>  <r_i_glide_ligand_efficiency_ln>  (177) 
-0.710592

>  <r_i_glide_gscore>  (177) 
-2.93865

>  <r_i_glide_lipo>  (177) 
-0.497498

>  <r_i_glide_hbond>  (177) 
-0.0872135

>  <r_i_glide_metal>  (177) 
-0

>  <r_i_glide_rewards>  (177) 
-1.2569

>  <r_i_glide_evdw>  (177) 
-25.8743

>  <r_i_glide_ecoul>  (177) 
-3.40361

>  <r_i_glide_erotb>  (177) 
0.744039

>  <r_i_glide_esite>  (177) 
-0.0368237

>  <r_i_glide_emodel>  (177) 
-34.5432

>  <r_i_glide_energy>  (177) 
-29.2779

>  <r_i_glide_einternal>  (177) 
1.10169

>  <r_i_glide_intrahb_reward>  (177) 
-0

>  <i_i_glide_confnum>  (177) 
2

>  <i_i_glide_posenum>  (177) 
40

>  <r_i_glide_eff_state_penalty>  (177) 
0

>  <ligand_id>  (177) 
56

>  <original_smiles>  (177) 
COc1cccc(C2NC(=O)N=C(C)C2C(=O)OCC2CC2)c1

>  <smiles>  (177) 
[H]c1c([H])c(OC([H])([H])[H])c([H])c(C2([H])C(C(=O)OC([H])([H])C3([H])C([H])([H])C3([H])[H])=C(C([H])([H])[H])N([H])C(=O)N2[H])c1[H]

$$$$
57:0:0
     RDKit          3D

 78 82  0  0  1  0  0  0  0  0999 V2000
    3.8428   -0.7561    1.3946 C   0  0  0  0  0  0  0  0  0  0  0  0
    2.3379   -0.8410    1.6991 C   0  0  0  0  0  0  0  0  0  0  0  0
    2.0938   -0.8058    3.1013 O   0  0  0  0  0  0  0  0  0  0  0  0
    2.0092   -2.0033    3.7823 C   0  0  0  0  0  0  0  0  0  0  0  0
    2.0613   -3.0675    3.2597 O   0  0  0  0  0  0  0  0  0  0  0  0
    1.7693   -1.8069    5.3416 C   0  0  1  0  0  0  0  0  0  0  0  0
    2.5679   -0.5604    5.8239 C   0  0  0  0  0  0  0  0  0  0  0  0
    0.2699   -1.4889    5.6428 C   0  0  1  0  0  0  0  0  0  0  0  0
   -0.2547   -0.4917    4.7570 O   0  0  0  0  0  0  0  0  0  0  0  0
   -1.3163    0.2620    5.0986 C   0  0  0  0  0  0  0  0  0  0  0  0
   -1.5860    1.3585    4.0687 C   0  0  0  0  0  0  0  0  0  0  0  0
   -2.0061    0.1316    6.1072 O   0  0  0  0  0  0  0  0  0  0  0  0
   -0.6378   -2.7338    5.6665 C   0  0  0  0  0  0  0  0  0  0  0  0
   -0.1523   -3.7040    6.7464 C   0  0  0  0  0  0  0  0  0  0  0  0
    1.2525   -4.2762    6.4567 C   0  0  1  0  0  0  0  0  0  0  0  0
    1.6302   -5.0328    7.7688 C   0  0  0  0  0  0  0  0  0  0  0  0
    1.2874   -5.2534    5.2340 C   0  0  2  0  0  0  0  0  0  0  0  0
    0.1991   -6.3604    5.2529 C   0  0  0  0  0  0  0  0  0  0  0  0
    0.2919   -7.3522    4.0853 C   0  0  0  0  0  0  0  0  0  0  0  0
    1.7145   -7.9445    4.0124 C   0  0  2  0  0  0  0  0  0  0  0  0
    2.7704   -6.8129    3.7209 C   0  0  2  0  0  0  0  0  0  0  0  0
    2.4871   -6.0349    2.4040 C   0  0  0  0  0  0  0  0  0  0  0  0
    4.1594   -7.5139    3.5896 C   0  0  0  0  0  0  0  0  0  0  0  0
    4.2657   -8.4628    2.3906 C   0  0  1  0  0  0  0  0  0  0  0  0
    5.5172   -9.1553    2.4319 O   0  0  0  0  0  0  0  0  0  0  0  0
    5.9245   -9.6701    1.1759 C   0  0  0  0  0  0  0  0  0  0  0  0
    3.0973   -9.4641    2.3405 C   0  0  2  0  0  0  0  0  0  0  0  0
    1.9033   -8.9760    1.7305 O   0  0  0  0  0  0  0  0  0  0  0  0
    1.8368   -9.1815    3.1185 C   0  0  2  0  0  0  0  0  0  0  0  0
    1.0257  -10.3870    3.5798 C   0  0  0  0  0  0  0  0  0  0  0  0
    2.7307   -5.8351    4.9529 C   0  0  1  0  0  0  0  0  0  0  0  0
    3.8301   -4.7158    4.9227 C   0  0  0  0  0  0  0  0  0  0  0  0
    3.6814   -3.6175    5.9983 C   0  0  0  0  0  0  0  0  0  0  0  0
    2.2476   -3.0669    6.2274 C   0  0  1  0  0  0  0  0  0  0  0  0
    3.9971   -0.7273    0.3175 H   0  0  0  0  0  0  0  0  0  0  0  0
    4.3982   -1.6145    1.7844 H   0  0  0  0  0  0  0  0  0  0  0  0
    4.2694    0.1504    1.8241 H   0  0  0  0  0  0  0  0  0  0  0  0
    1.7958   -0.0178    1.2228 H   0  0  0  0  0  0  0  0  0  0  0  0
    1.9376   -1.7562    1.2648 H   0  0  0  0  0  0  0  0  0  0  0  0
    2.3430   -0.3136    6.8610 H   0  0  0  0  0  0  0  0  0  0  0  0
    2.3223    0.3440    5.2680 H   0  0  0  0  0  0  0  0  0  0  0  0
    3.6414   -0.7016    5.7412 H   0  0  0  0  0  0  0  0  0  0  0  0
    0.2279   -1.0504    6.6384 H   0  0  0  0  0  0  0  0  0  0  0  0
   -0.6957    1.9707    3.9469 H   0  0  0  0  0  0  0  0  0  0  0  0
   -2.4069    2.0019    4.3875 H   0  0  0  0  0  0  0  0  0  0  0  0
   -1.8295    0.9355    3.0953 H   0  0  0  0  0  0  0  0  0  0  0  0
   -1.6605   -2.4673    5.9159 H   0  0  0  0  0  0  0  0  0  0  0  0
   -0.6599   -3.1953    4.6857 H   0  0  0  0  0  0  0  0  0  0  0  0
   -0.1360   -3.1650    7.6927 H   0  0  0  0  0  0  0  0  0  0  0  0
   -0.8823   -4.5027    6.9061 H   0  0  0  0  0  0  0  0  0  0  0  0
    2.6116   -5.4954    7.7366 H   0  0  0  0  0  0  0  0  0  0  0  0
    0.9190   -5.8297    7.9883 H   0  0  0  0  0  0  0  0  0  0  0  0
    1.6282   -4.3741    8.6363 H   0  0  0  0  0  0  0  0  0  0  0  0
    0.9531   -4.6712    4.3858 H   0  0  0  0  0  0  0  0  0  0  0  0
    0.2266   -6.9111    6.1924 H   0  0  0  0  0  0  0  0  0  0  0  0
   -0.7776   -5.8859    5.1784 H   0  0  0  0  0  0  0  0  0  0  0  0
   -0.4538   -8.1355    4.2506 H   0  0  0  0  0  0  0  0  0  0  0  0
    0.0176   -6.8831    3.1390 H   0  0  0  0  0  0  0  0  0  0  0  0
    1.9164   -8.3282    5.0088 H   0  0  0  0  0  0  0  0  0  0  0  0
    3.3159   -5.3763    2.1495 H   0  0  0  0  0  0  0  0  0  0  0  0
    1.5882   -5.4228    2.4492 H   0  0  0  0  0  0  0  0  0  0  0  0
    2.3497   -6.6770    1.5402 H   0  0  0  0  0  0  0  0  0  0  0  0
    4.9661   -6.7822    3.5028 H   0  0  0  0  0  0  0  0  0  0  0  0
    4.3598   -8.0712    4.4975 H   0  0  0  0  0  0  0  0  0  0  0  0
    4.2380   -7.8872    1.4700 H   0  0  0  0  0  0  0  0  0  0  0  0
    6.7911  -10.3244    1.2789 H   0  0  0  0  0  0  0  0  0  0  0  0
    6.1916   -8.8517    0.5119 H   0  0  0  0  0  0  0  0  0  0  0  0
    5.1411  -10.2430    0.6804 H   0  0  0  0  0  0  0  0  0  0  0  0
    3.3336  -10.4836    2.0897 H   0  0  0  0  0  0  0  0  0  0  0  0
    1.3202  -10.6802    4.5864 H   0  0  0  0  0  0  0  0  0  0  0  0
    1.2095  -11.2276    2.9164 H   0  0  0  0  0  0  0  0  0  0  0  0
   -0.0399  -10.1724    3.5595 H   0  0  0  0  0  0  0  0  0  0  0  0
    2.9827   -6.4561    5.8132 H   0  0  0  0  0  0  0  0  0  0  0  0
    4.7972   -5.1982    5.1262 H   0  0  0  0  0  0  0  0  0  0  0  0
    3.8839   -4.2258    3.9416 H   0  0  0  0  0  0  0  0  0  0  0  0
    4.0571   -4.0086    6.9497 H   0  0  0  0  0  0  0  0  0  0  0  0
    4.3713   -2.8080    5.7734 H   0  0  0  0  0  0  0  0  0  0  0  0
    2.3094   -2.6077    7.2086 H   0  0  0  0  0  0  0  0  0  0  0  0
  1  2  1  0
  1 35  1  0
  1 36  1  0
  1 37  1  0
  2  3  1  0
  2 38  1  0
  2 39  1  0
  3  4  1  0
  4  5  2  0
  4  6  1  0
  6 34  1  0
  6  7  1  1
  6  8  1  0
  7 40  1  0
  7 41  1  0
  7 42  1  0
  8  9  1  0
  8 13  1  0
  8 43  1  1
  9 10  1  0
 10 11  1  0
 10 12  2  0
 11 44  1  0
 11 45  1  0
 11 46  1  0
 13 14  1  0
 13 47  1  0
 13 48  1  0
 14 15  1  0
 14 49  1  0
 14 50  1  0
 15 34  1  0
 15 16  1  1
 15 17  1  0
 16 51  1  0
 16 52  1  0
 16 53  1  0
 17 31  1  0
 17 18  1  0
 17 54  1  6
 18 19  1  0
 18 55  1  0
 18 56  1  0
 19 20  1  0
 19 57  1  0
 19 58  1  0
 20 29  1  0
 20 21  1  0
 20 59  1  1
 21 22  1  6
 21 23  1  0
 21 31  1  0
 22 60  1  0
 22 61  1  0
 22 62  1  0
 23 24  1  0
 23 63  1  0
 23 64  1  0
 24 25  1  0
 24 27  1  0
 24 65  1  6
 25 26  1  0
 26 66  1  0
 26 67  1  0
 26 68  1  0
 27 29  1  0
 27 28  1  0
 27 69  1  6
 28 29  1  0
 29 30  1  6
 30 70  1  0
 30 71  1  0
 30 72  1  0
 31 32  1  0
 31 73  1  1
 32 33  1  0
 32 74  1  0
 32 75  1  0
 33 34  1  0
 33 76  1  0
 33 77  1  0
 34 78  1  1
M  END
>  <i_m_ct_stereo_status>  (178) 
1

>  <s_m_source_file>  (178) 
/var/tmp/pbs.5076255.sched01/tmp378oxcv0/78pm6kuo1p.sdf

>  <i_m_source_file_index>  (178) 
7

>  <i_lp_mmshare_version>  (178) 
48012

>  <i_f3d_flags>  (178) 
0

>  <s_epik_input>  (178) 
W0NIM11bQ0gyXU9DKD1PKVtDQEBdKFtDSDNdKShbQ0BIXShbQ0gyXVtDSDJdMSlPQyg9TylbQ0gzXSlbQ0BASF0yW0NIMl1bQ0gyXVtDQEBIXShbQ0BASF0zW0NAXTEyW0NIM10pW0NAXTQoW0NIM10pW0NAQEhdKFtDSDJdW0NIMl0zKVtDQF01KFtDSDNdKVtDQEBIXShPNSlbQ0BASF0oW0NIMl00KU9bQ0gzXQ==

>  <s_epik_cmdline>  (178) 
J2VwaWtfcHl0aG9uJywgJy1waHQnLCAnMi4wJywgJy1waCcsICc3LjAnLCAnLXRuJywgJzgnLCAnLW1hJywgJzIwMCcsICctaW1hZScsICc8aW5maWxlLm1hZT4nLCAnLW9tYWUnLCAnPG91dGZpbGUubWFlPic=

>  <r_lp_tautomer_probability>  (178) 
1

>  <r_epik_Ionization_Penalty>  (178) 
1.84547e-11

>  <r_epik_Ionization_Penalty_Charging>  (178) 
0

>  <r_epik_Ionization_Penalty_Neutral>  (178) 
1.84547e-11

>  <r_epik_State_Penalty>  (178) 
-0

>  <r_epik_Charging_Adjusted_Penalty>  (178) 
0

>  <i_epik_Tot_Q>  (178) 
0

>  <i_epik_Tot_abs_Q>  (178) 
0

>  <s_epik_Chemistry_Notes>  (178) 
This compound has an ester and may undergo hydrolysis at high or low pH.

>  <s_lp_Force_Field>  (178) 
OPLS3e

>  <r_lp_Energy>  (178) 
57.9105

>  <b_lp_Chiralities_Consistent>  (178) 
1

>  <s_lp_Variant>  (178) 
57:0-1

>  <s_i_glide_gridfile>  (178) 
pfpi4k_grid

>  <i_i_glide_lignum>  (178) 
7

>  <i_i_glide_rotatable_bonds>  (178) 
6

>  <r_i_docking_score>  (178) 
-1.67603

>  <r_i_glide_ligand_efficiency>  (178) 
-0.0492949

>  <r_i_glide_ligand_efficiency_sa>  (178) 
-0.159696

>  <r_i_glide_ligand_efficiency_ln>  (178) 
-0.370282

>  <r_i_glide_gscore>  (178) 
-1.67603

>  <r_i_glide_lipo>  (178) 
-0.0807729

>  <r_i_glide_hbond>  (178) 
-0.16

>  <r_i_glide_metal>  (178) 
-0

>  <r_i_glide_rewards>  (178) 
-0.162498

>  <r_i_glide_evdw>  (178) 
-23.3526

>  <r_i_glide_ecoul>  (178) 
-2.24208

>  <r_i_glide_erotb>  (178) 
0.267413

>  <r_i_glide_esite>  (178) 
-0.0362286

>  <r_i_glide_emodel>  (178) 
-25.4548

>  <r_i_glide_energy>  (178) 
-25.5947

>  <r_i_glide_einternal>  (178) 
4.02567

>  <r_i_glide_intrahb_reward>  (178) 
-0

>  <i_i_glide_confnum>  (178) 
3

>  <i_i_glide_posenum>  (178) 
1

>  <r_i_glide_eff_state_penalty>  (178) 
0

>  <ligand_id>  (178) 
57

>  <original_smiles>  (178) 
CCOC(=O)C1(C)C(OC(C)=O)CCC2(C)C3CCC4C(C)(CC(OC)C5OC54C)C3CCC21

>  <smiles>  (178) 
[H]C([H])([H])OC1([H])C([H])([H])C2(C([H])([H])[H])C3([H])C([H])([H])C([H])([H])C4([H])C(C(=O)OC([H])([H])C([H])([H])[H])(C([H])([H])[H])C([H])(OC(=O)C([H])([H])[H])C([H])([H])C([H])([H])C4(C([H])([H])[H])C3([H])C([H])([H])C([H])([H])C2([H])C2(C([H])([H])[H])OC12[H]

$$$$
57:0:1
     RDKit          3D

 78 82  0  0  1  0  0  0  0  0999 V2000
    3.2574   -0.8022    1.2656 C   0  0  0  0  0  0  0  0  0  0  0  0
    1.8101   -1.0100    1.7348 C   0  0  0  0  0  0  0  0  0  0  0  0
    1.7513   -1.0846    3.1589 O   0  0  0  0  0  0  0  0  0  0  0  0
    1.9132   -2.2889    3.7808 C   0  0  0  0  0  0  0  0  0  0  0  0
    2.0114   -3.3493    3.1722 O   0  0  0  0  0  0  0  0  0  0  0  0
    1.9356   -2.2183    5.3460 C   0  0  1  0  0  0  0  0  0  0  0  0
    2.4990   -0.8254    5.7747 C   0  0  0  0  0  0  0  0  0  0  0  0
    0.4760   -2.2722    5.9089 C   0  0  1  0  0  0  0  0  0  0  0  0
   -0.4334   -1.4538    5.1663 O   0  0  0  0  0  0  0  0  0  0  0  0
   -0.9838   -0.3470    5.6879 C   0  0  0  0  0  0  0  0  0  0  0  0
   -1.8976    0.3687    4.7116 C   0  0  0  0  0  0  0  0  0  0  0  0
   -0.8268    0.0720    6.8388 O   0  0  0  0  0  0  0  0  0  0  0  0
   -0.1182   -3.6804    6.0239 C   0  0  0  0  0  0  0  0  0  0  0  0
    0.7592   -4.5362    6.9395 C   0  0  0  0  0  0  0  0  0  0  0  0
    2.1885   -4.7541    6.3844 C   0  0  1  0  0  0  0  0  0  0  0  0
    2.9588   -5.4376    7.5600 C   0  0  0  0  0  0  0  0  0  0  0  0
    2.2196   -5.6730    5.1053 C   0  0  2  0  0  0  0  0  0  0  0  0
    1.4418   -7.0063    5.2443 C   0  0  0  0  0  0  0  0  0  0  0  0
    1.5510   -7.9244    4.0139 C   0  0  0  0  0  0  0  0  0  0  0  0
    3.0288   -8.1563    3.6634 C   0  0  2  0  0  0  0  0  0  0  0  0
    3.7263   -6.8047    3.2720 C   0  0  2  0  0  0  0  0  0  0  0  0
    3.0436   -6.0848    2.0714 C   0  0  0  0  0  0  0  0  0  0  0  0
    5.1838   -7.1397    2.8853 C   0  0  0  0  0  0  0  0  0  0  0  0
    5.3167   -8.0257    1.6191 C   0  0  1  0  0  0  0  0  0  0  0  0
    6.6479   -8.4981    1.4248 O   0  0  0  0  0  0  0  0  0  0  0  0
    7.6414   -7.4899    1.2722 C   0  0  0  0  0  0  0  0  0  0  0  0
    4.4106   -9.2465    1.6863 C   0  0  2  0  0  0  0  0  0  0  0  0
    3.0480   -9.0641    1.3050 O   0  0  0  0  0  0  0  0  0  0  0  0
    3.2681   -9.3137    2.6753 C   0  0  2  0  0  0  0  0  0  0  0  0
    2.8556  -10.6818    3.2006 C   0  0  0  0  0  0  0  0  0  0  0  0
    3.6827   -5.8844    4.5514 C   0  0  1  0  0  0  0  0  0  0  0  0
    4.4756   -4.5436    4.4045 C   0  0  0  0  0  0  0  0  0  0  0  0
    4.2830   -3.5347    5.5585 C   0  0  0  0  0  0  0  0  0  0  0  0
    2.8249   -3.3446    6.0658 C   0  0  1  0  0  0  0  0  0  0  0  0
    3.2762   -0.6925    0.1805 H   0  0  0  0  0  0  0  0  0  0  0  0
    3.9095   -1.6448    1.5185 H   0  0  0  0  0  0  0  0  0  0  0  0
    3.6839    0.0994    1.7044 H   0  0  0  0  0  0  0  0  0  0  0  0
    1.1710   -0.1942    1.3947 H   0  0  0  0  0  0  0  0  0  0  0  0
    1.4129   -1.9206    1.2918 H   0  0  0  0  0  0  0  0  0  0  0  0
    2.4085   -0.6635    6.8541 H   0  0  0  0  0  0  0  0  0  0  0  0
    1.9592    0.0106    5.3313 H   0  0  0  0  0  0  0  0  0  0  0  0
    3.5467   -0.7019    5.5090 H   0  0  0  0  0  0  0  0  0  0  0  0
    0.5222   -1.9008    6.9369 H   0  0  0  0  0  0  0  0  0  0  0  0
   -1.3742    0.5971    3.7832 H   0  0  0  0  0  0  0  0  0  0  0  0
   -2.2562    1.3035    5.1404 H   0  0  0  0  0  0  0  0  0  0  0  0
   -2.7560   -0.2619    4.4837 H   0  0  0  0  0  0  0  0  0  0  0  0
   -1.1096   -3.6195    6.4666 H   0  0  0  0  0  0  0  0  0  0  0  0
   -0.2411   -4.1407    5.0465 H   0  0  0  0  0  0  0  0  0  0  0  0
    0.8247   -4.0329    7.9064 H   0  0  0  0  0  0  0  0  0  0  0  0
    0.2732   -5.4859    7.1656 H   0  0  0  0  0  0  0  0  0  0  0  0
    3.9978   -5.6532    7.3325 H   0  0  0  0  0  0  0  0  0  0  0  0
    2.5018   -6.3823    7.8453 H   0  0  0  0  0  0  0  0  0  0  0  0
    2.9637   -4.8172    8.4562 H   0  0  0  0  0  0  0  0  0  0  0  0
    1.6263   -5.1658    4.3627 H   0  0  0  0  0  0  0  0  0  0  0  0
    1.7609   -7.5633    6.1287 H   0  0  0  0  0  0  0  0  0  0  0  0
    0.3845   -6.7801    5.3694 H   0  0  0  0  0  0  0  0  0  0  0  0
    1.0443   -8.8633    4.2517 H   0  0  0  0  0  0  0  0  0  0  0  0
    1.0069   -7.5135    3.1616 H   0  0  0  0  0  0  0  0  0  0  0  0
    3.4941   -8.5066    4.5853 H   0  0  0  0  0  0  0  0  0  0  0  0
    3.6403   -5.2446    1.7248 H   0  0  0  0  0  0  0  0  0  0  0  0
    2.0508   -5.7062    2.3034 H   0  0  0  0  0  0  0  0  0  0  0  0
    2.9107   -6.7237    1.2052 H   0  0  0  0  0  0  0  0  0  0  0  0
    5.7377   -6.2186    2.7210 H   0  0  0  0  0  0  0  0  0  0  0  0
    5.6676   -7.6543    3.7121 H   0  0  0  0  0  0  0  0  0  0  0  0
    5.0310   -7.4664    0.7269 H   0  0  0  0  0  0  0  0  0  0  0  0
    8.5855   -7.9504    0.9827 H   0  0  0  0  0  0  0  0  0  0  0  0
    7.8156   -6.9633    2.2100 H   0  0  0  0  0  0  0  0  0  0  0  0
    7.3768   -6.7623    0.5024 H   0  0  0  0  0  0  0  0  0  0  0  0
    4.8442  -10.1799    1.3225 H   0  0  0  0  0  0  0  0  0  0  0  0
    3.3835  -10.9170    4.1233 H   0  0  0  0  0  0  0  0  0  0  0  0
    3.1079  -11.4535    2.4731 H   0  0  0  0  0  0  0  0  0  0  0  0
    1.7886  -10.7258    3.3695 H   0  0  0  0  0  0  0  0  0  0  0  0
    4.2264   -6.4516    5.3213 H   0  0  0  0  0  0  0  0  0  0  0  0
    5.5470   -4.7757    4.3955 H   0  0  0  0  0  0  0  0  0  0  0  0
    4.2509   -4.0421    3.4622 H   0  0  0  0  0  0  0  0  0  0  0  0
    4.9033   -3.8556    6.4038 H   0  0  0  0  0  0  0  0  0  0  0  0
    4.7196   -2.5812    5.2777 H   0  0  0  0  0  0  0  0  0  0  0  0
    2.9603   -2.9088    7.0549 H   0  0  0  0  0  0  0  0  0  0  0  0
  1  2  1  0
  1 35  1  0
  1 36  1  0
  1 37  1  0
  2  3  1  0
  2 38  1  0
  2 39  1  0
  3  4  1  0
  4  5  2  0
  4  6  1  0
  6 34  1  0
  6  7  1  6
  6  8  1  0
  7 40  1  0
  7 41  1  0
  7 42  1  0
  8  9  1  0
  8 13  1  0
  8 43  1  1
  9 10  1  0
 10 11  1  0
 10 12  2  0
 11 44  1  0
 11 45  1  0
 11 46  1  0
 13 14  1  0
 13 47  1  0
 13 48  1  0
 14 15  1  0
 14 49  1  0
 14 50  1  0
 15 34  1  0
 15 16  1  1
 15 17  1  0
 16 51  1  0
 16 52  1  0
 16 53  1  0
 17 31  1  0
 17 18  1  0
 17 54  1  6
 18 19  1  0
 18 55  1  0
 18 56  1  0
 19 20  1  0
 19 57  1  0
 19 58  1  0
 20 29  1  0
 20 21  1  0
 20 59  1  1
 21 22  1  6
 21 23  1  0
 21 31  1  0
 22 60  1  0
 22 61  1  0
 22 62  1  0
 23 24  1  0
 23 63  1  0
 23 64  1  0
 24 25  1  0
 24 27  1  0
 24 65  1  6
 25 26  1  0
 26 66  1  0
 26 67  1  0
 26 68  1  0
 27 29  1  0
 27 28  1  0
 27 69  1  6
 28 29  1  0
 29 30  1  1
 30 70  1  0
 30 71  1  0
 30 72  1  0
 31 32  1  0
 31 73  1  1
 32 33  1  0
 32 74  1  0
 32 75  1  0
 33 34  1  0
 33 76  1  0
 33 77  1  0
 34 78  1  1
M  END
>  <i_m_ct_stereo_status>  (179) 
1

>  <s_m_source_file>  (179) 
/var/tmp/pbs.5076255.sched01/tmp378oxcv0/78pm6kuo1p.sdf

>  <i_m_source_file_index>  (179) 
7

>  <i_lp_mmshare_version>  (179) 
48012

>  <i_f3d_flags>  (179) 
0

>  <s_epik_input>  (179) 
W0NIM11bQ0gyXU9DKD1PKVtDQEBdKFtDSDNdKShbQ0BIXShbQ0gyXVtDSDJdMSlPQyg9TylbQ0gzXSlbQ0BASF0yW0NIMl1bQ0gyXVtDQEBIXShbQ0BASF0zW0NAXTEyW0NIM10pW0NAXTQoW0NIM10pW0NAQEhdKFtDSDJdW0NIMl0zKVtDQF01KFtDSDNdKVtDQEBIXShPNSlbQ0BASF0oW0NIMl00KU9bQ0gzXQ==

>  <s_epik_cmdline>  (179) 
J2VwaWtfcHl0aG9uJywgJy1waHQnLCAnMi4wJywgJy1waCcsICc3LjAnLCAnLXRuJywgJzgnLCAnLW1hJywgJzIwMCcsICctaW1hZScsICc8aW5maWxlLm1hZT4nLCAnLW9tYWUnLCAnPG91dGZpbGUubWFlPic=

>  <r_lp_tautomer_probability>  (179) 
1

>  <r_epik_Ionization_Penalty>  (179) 
1.84547e-11

>  <r_epik_Ionization_Penalty_Charging>  (179) 
0

>  <r_epik_Ionization_Penalty_Neutral>  (179) 
1.84547e-11

>  <r_epik_State_Penalty>  (179) 
-0

>  <r_epik_Charging_Adjusted_Penalty>  (179) 
0

>  <i_epik_Tot_Q>  (179) 
0

>  <i_epik_Tot_abs_Q>  (179) 
0

>  <s_epik_Chemistry_Notes>  (179) 
This compound has an ester and may undergo hydrolysis at high or low pH.

>  <s_lp_Force_Field>  (179) 
OPLS3e

>  <r_lp_Energy>  (179) 
57.9105

>  <b_lp_Chiralities_Consistent>  (179) 
1

>  <s_lp_Variant>  (179) 
57:0-1

>  <s_i_glide_gridfile>  (179) 
pfpi4k_grid

>  <i_i_glide_lignum>  (179) 
7

>  <i_i_glide_rotatable_bonds>  (179) 
6

>  <r_i_docking_score>  (179) 
-1.61317

>  <r_i_glide_ligand_efficiency>  (179) 
-0.0474461

>  <r_i_glide_ligand_efficiency_sa>  (179) 
-0.153707

>  <r_i_glide_ligand_efficiency_ln>  (179) 
-0.356394

>  <r_i_glide_gscore>  (179) 
-1.61317

>  <r_i_glide_lipo>  (179) 
-0.0779438

>  <r_i_glide_hbond>  (179) 
-0.0882059

>  <r_i_glide_metal>  (179) 
-0

>  <r_i_glide_rewards>  (179) 
-0.170345

>  <r_i_glide_evdw>  (179) 
-21.8242

>  <r_i_glide_ecoul>  (179) 
-2.69212

>  <r_i_glide_erotb>  (179) 
0.267413

>  <r_i_glide_esite>  (179) 
-0.0490598

>  <r_i_glide_emodel>  (179) 
-25.24

>  <r_i_glide_energy>  (179) 
-24.5163

>  <r_i_glide_einternal>  (179) 
2.58201

>  <r_i_glide_intrahb_reward>  (179) 
-0

>  <i_i_glide_confnum>  (179) 
1

>  <i_i_glide_posenum>  (179) 
9

>  <r_i_glide_eff_state_penalty>  (179) 
0

>  <ligand_id>  (179) 
57

>  <original_smiles>  (179) 
CCOC(=O)C1(C)C(OC(C)=O)CCC2(C)C3CCC4C(C)(CC(OC)C5OC54C)C3CCC21

>  <smiles>  (179) 
[H]C([H])([H])OC1([H])C([H])([H])C2(C([H])([H])[H])C3([H])C([H])([H])C([H])([H])C4([H])C(C(=O)OC([H])([H])C([H])([H])[H])(C([H])([H])[H])C([H])(OC(=O)C([H])([H])[H])C([H])([H])C([H])([H])C4(C([H])([H])[H])C3([H])C([H])([H])C([H])([H])C2([H])C2(C([H])([H])[H])OC12[H]

$$$$
57:0:2
     RDKit          3D

 78 82  0  0  1  0  0  0  0  0999 V2000
    3.7293   -0.9240    1.4244 C   0  0  0  0  0  0  0  0  0  0  0  0
    4.0150   -2.1626    2.2810 C   0  0  0  0  0  0  0  0  0  0  0  0
    3.5385   -1.9813    3.6073 O   0  0  0  0  0  0  0  0  0  0  0  0
    2.2390   -2.2138    3.9199 C   0  0  0  0  0  0  0  0  0  0  0  0
    1.3873   -2.5803    3.1084 O   0  0  0  0  0  0  0  0  0  0  0  0
    1.9159   -1.9936    5.4268 C   0  0  1  0  0  0  0  0  0  0  0  0
    2.6969   -0.7371    5.9044 C   0  0  0  0  0  0  0  0  0  0  0  0
    0.3995   -1.6453    5.6516 C   0  0  1  0  0  0  0  0  0  0  0  0
   -0.0682   -0.6377    4.7458 O   0  0  0  0  0  0  0  0  0  0  0  0
   -1.1181    0.1476    5.0491 C   0  0  0  0  0  0  0  0  0  0  0  0
   -1.4219    1.1681    3.9607 C   0  0  0  0  0  0  0  0  0  0  0  0
   -1.7963    0.0792    6.0823 O   0  0  0  0  0  0  0  0  0  0  0  0
   -0.5335   -2.8711    5.6329 C   0  0  0  0  0  0  0  0  0  0  0  0
   -0.0930   -3.8518    6.7157 C   0  0  0  0  0  0  0  0  0  0  0  0
    1.3216   -4.4310    6.4794 C   0  0  1  0  0  0  0  0  0  0  0  0
    1.6376   -5.2211    7.7847 C   0  0  0  0  0  0  0  0  0  0  0  0
    1.3964   -5.3767    5.2203 C   0  0  2  0  0  0  0  0  0  0  0  0
    0.2907   -6.4637    5.1806 C   0  0  0  0  0  0  0  0  0  0  0  0
    0.4150   -7.4742    4.0280 C   0  0  0  0  0  0  0  0  0  0  0  0
    1.8257   -8.0881    4.0040 C   0  0  2  0  0  0  0  0  0  0  0  0
    2.9025   -6.9689    3.7728 C   0  0  2  0  0  0  0  0  0  0  0  0
    2.6801   -6.1673    2.4489 C   0  0  0  0  0  0  0  0  0  0  0  0
    4.2874   -7.6838    3.6943 C   0  0  0  0  0  0  0  0  0  0  0  0
    4.4240   -8.6352    2.4793 C   0  0  1  0  0  0  0  0  0  0  0  0
    5.6589   -9.3406    2.5677 O   0  0  0  0  0  0  0  0  0  0  0  0
    6.1721   -9.7414    1.3044 C   0  0  0  0  0  0  0  0  0  0  0  0
    3.2636   -9.6085    2.3850 C   0  0  2  0  0  0  0  0  0  0  0  0
    2.0938   -9.1216    1.6998 O   0  0  0  0  0  0  0  0  0  0  0  0
    1.9680   -9.3313    3.1051 C   0  0  2  0  0  0  0  0  0  0  0  0
    1.1252  -10.5217    3.5321 C   0  0  0  0  0  0  0  0  0  0  0  0
    2.8220   -5.9922    5.0117 C   0  0  1  0  0  0  0  0  0  0  0  0
    3.9032   -4.8790    5.0124 C   0  0  0  0  0  0  0  0  0  0  0  0
    3.7660   -3.8105    6.1233 C   0  0  0  0  0  0  0  0  0  0  0  0
    2.3360   -3.2353    6.3400 C   0  0  1  0  0  0  0  0  0  0  0  0
    4.0801   -1.0711    0.4031 H   0  0  0  0  0  0  0  0  0  0  0  0
    4.2308   -0.0448    1.8317 H   0  0  0  0  0  0  0  0  0  0  0  0
    2.6588   -0.7150    1.3814 H   0  0  0  0  0  0  0  0  0  0  0  0
    3.5848   -3.0593    1.8334 H   0  0  0  0  0  0  0  0  0  0  0  0
    5.0920   -2.3281    2.3333 H   0  0  0  0  0  0  0  0  0  0  0  0
    2.4242   -0.4544    6.9210 H   0  0  0  0  0  0  0  0  0  0  0  0
    2.4858    0.1245    5.2691 H   0  0  0  0  0  0  0  0  0  0  0  0
    3.7765   -0.8788    5.9001 H   0  0  0  0  0  0  0  0  0  0  0  0
    0.3260   -1.2121    6.6526 H   0  0  0  0  0  0  0  0  0  0  0  0
   -0.5370    1.7670    3.7443 H   0  0  0  0  0  0  0  0  0  0  0  0
   -2.2242    1.8411    4.2647 H   0  0  0  0  0  0  0  0  0  0  0  0
   -1.7350    0.6724    3.0401 H   0  0  0  0  0  0  0  0  0  0  0  0
   -1.5586   -2.5725    5.8538 H   0  0  0  0  0  0  0  0  0  0  0  0
   -0.5623   -3.3433    4.6512 H   0  0  0  0  0  0  0  0  0  0  0  0
   -0.1028   -3.3209    7.6701 H   0  0  0  0  0  0  0  0  0  0  0  0
   -0.8315   -4.6446    6.8408 H   0  0  0  0  0  0  0  0  0  0  0  0
    2.6187   -5.6925    7.7879 H   0  0  0  0  0  0  0  0  0  0  0  0
    0.9078   -6.0090    7.9703 H   0  0  0  0  0  0  0  0  0  0  0  0
    1.6117   -4.5666    8.6581 H   0  0  0  0  0  0  0  0  0  0  0  0
    1.1951   -4.7472    4.3630 H   0  0  0  0  0  0  0  0  0  0  0  0
    0.2886   -7.0212    6.1140 H   0  0  0  0  0  0  0  0  0  0  0  0
   -0.6864   -5.9907    5.0904 H   0  0  0  0  0  0  0  0  0  0  0  0
   -0.3423   -8.2438    4.1740 H   0  0  0  0  0  0  0  0  0  0  0  0
    0.1734   -7.0106    3.0738 H   0  0  0  0  0  0  0  0  0  0  0  0
    1.9906   -8.4841    5.0074 H   0  0  0  0  0  0  0  0  0  0  0  0
    3.5345   -5.5296    2.2255 H   0  0  0  0  0  0  0  0  0  0  0  0
    1.7984   -5.5264    2.4703 H   0  0  0  0  0  0  0  0  0  0  0  0
    2.5556   -6.8062    1.5778 H   0  0  0  0  0  0  0  0  0  0  0  0
    5.1054   -6.9624    3.6400 H   0  0  0  0  0  0  0  0  0  0  0  0
    4.4428   -8.2605    4.6094 H   0  0  0  0  0  0  0  0  0  0  0  0
    4.4417   -8.0348    1.5680 H   0  0  0  0  0  0  0  0  0  0  0  0
    7.0139  -10.4215    1.4267 H   0  0  0  0  0  0  0  0  0  0  0  0
    6.5243   -8.8641    0.7624 H   0  0  0  0  0  0  0  0  0  0  0  0
    5.4190  -10.2467    0.6982 H   0  0  0  0  0  0  0  0  0  0  0  0
    3.5058  -10.6373    2.1282 H   0  0  0  0  0  0  0  0  0  0  0  0
    1.3753  -10.8231    4.5500 H   0  0  0  0  0  0  0  0  0  0  0  0
    1.3200  -11.3751    2.8816 H   0  0  0  0  0  0  0  0  0  0  0  0
    0.0614  -10.3005    3.4773 H   0  0  0  0  0  0  0  0  0  0  0  0
    3.0399   -6.6128    5.8786 H   0  0  0  0  0  0  0  0  0  0  0  0
    4.8897   -5.3282    5.1272 H   0  0  0  0  0  0  0  0  0  0  0  0
    3.9268   -4.3931    4.0455 H   0  0  0  0  0  0  0  0  0  0  0  0
    4.1146   -4.2474    7.0586 H   0  0  0  0  0  0  0  0  0  0  0  0
    4.4789   -3.0105    5.9361 H   0  0  0  0  0  0  0  0  0  0  0  0
    2.3772   -2.7880    7.3360 H   0  0  0  0  0  0  0  0  0  0  0  0
  1  2  1  0
  1 35  1  0
  1 36  1  0
  1 37  1  0
  2  3  1  0
  2 38  1  0
  2 39  1  0
  3  4  1  0
  4  5  2  0
  4  6  1  0
  6 34  1  0
  6  7  1  1
  6  8  1  0
  7 40  1  0
  7 41  1  0
  7 42  1  0
  8  9  1  0
  8 13  1  0
  8 43  1  1
  9 10  1  0
 10 11  1  0
 10 12  2  0
 11 44  1  0
 11 45  1  0
 11 46  1  0
 13 14  1  0
 13 47  1  0
 13 48  1  0
 14 15  1  0
 14 49  1  0
 14 50  1  0
 15 34  1  0
 15 16  1  1
 15 17  1  0
 16 51  1  0
 16 52  1  0
 16 53  1  0
 17 31  1  0
 17 18  1  0
 17 54  1  6
 18 19  1  0
 18 55  1  0
 18 56  1  0
 19 20  1  0
 19 57  1  0
 19 58  1  0
 20 29  1  0
 20 21  1  0
 20 59  1  1
 21 22  1  6
 21 23  1  0
 21 31  1  0
 22 60  1  0
 22 61  1  0
 22 62  1  0
 23 24  1  0
 23 63  1  0
 23 64  1  0
 24 25  1  0
 24 27  1  0
 24 65  1  6
 25 26  1  0
 26 66  1  0
 26 67  1  0
 26 68  1  0
 27 29  1  0
 27 28  1  0
 27 69  1  6
 28 29  1  0
 29 30  1  6
 30 70  1  0
 30 71  1  0
 30 72  1  0
 31 32  1  0
 31 73  1  1
 32 33  1  0
 32 74  1  0
 32 75  1  0
 33 34  1  0
 33 76  1  0
 33 77  1  0
 34 78  1  1
M  END
>  <i_m_ct_stereo_status>  (180) 
1

>  <s_m_source_file>  (180) 
/var/tmp/pbs.5076255.sched01/tmp378oxcv0/78pm6kuo1p.sdf

>  <i_m_source_file_index>  (180) 
7

>  <i_lp_mmshare_version>  (180) 
48012

>  <i_f3d_flags>  (180) 
0

>  <s_epik_input>  (180) 
W0NIM11bQ0gyXU9DKD1PKVtDQEBdKFtDSDNdKShbQ0BIXShbQ0gyXVtDSDJdMSlPQyg9TylbQ0gzXSlbQ0BASF0yW0NIMl1bQ0gyXVtDQEBIXShbQ0BASF0zW0NAXTEyW0NIM10pW0NAXTQoW0NIM10pW0NAQEhdKFtDSDJdW0NIMl0zKVtDQF01KFtDSDNdKVtDQEBIXShPNSlbQ0BASF0oW0NIMl00KU9bQ0gzXQ==

>  <s_epik_cmdline>  (180) 
J2VwaWtfcHl0aG9uJywgJy1waHQnLCAnMi4wJywgJy1waCcsICc3LjAnLCAnLXRuJywgJzgnLCAnLW1hJywgJzIwMCcsICctaW1hZScsICc8aW5maWxlLm1hZT4nLCAnLW9tYWUnLCAnPG91dGZpbGUubWFlPic=

>  <r_lp_tautomer_probability>  (180) 
1

>  <r_epik_Ionization_Penalty>  (180) 
1.84547e-11

>  <r_epik_Ionization_Penalty_Charging>  (180) 
0

>  <r_epik_Ionization_Penalty_Neutral>  (180) 
1.84547e-11

>  <r_epik_State_Penalty>  (180) 
-0

>  <r_epik_Charging_Adjusted_Penalty>  (180) 
0

>  <i_epik_Tot_Q>  (180) 
0

>  <i_epik_Tot_abs_Q>  (180) 
0

>  <s_epik_Chemistry_Notes>  (180) 
This compound has an ester and may undergo hydrolysis at high or low pH.

>  <s_lp_Force_Field>  (180) 
OPLS3e

>  <r_lp_Energy>  (180) 
57.9105

>  <b_lp_Chiralities_Consistent>  (180) 
1

>  <s_lp_Variant>  (180) 
57:0-1

>  <s_i_glide_gridfile>  (180) 
pfpi4k_grid

>  <i_i_glide_lignum>  (180) 
7

>  <i_i_glide_rotatable_bonds>  (180) 
6

>  <r_i_docking_score>  (180) 
-1.44115

>  <r_i_glide_ligand_efficiency>  (180) 
-0.0423868

>  <r_i_glide_ligand_efficiency_sa>  (180) 
-0.137317

>  <r_i_glide_ligand_efficiency_ln>  (180) 
-0.318391

>  <r_i_glide_gscore>  (180) 
-1.44115

>  <r_i_glide_lipo>  (180) 
-0.128735

>  <r_i_glide_hbond>  (180) 
-0.16

>  <r_i_glide_metal>  (180) 
-0

>  <r_i_glide_rewards>  (180) 
-0.159236

>  <r_i_glide_evdw>  (180) 
-23.1452

>  <r_i_glide_ecoul>  (180) 
-0.474161

>  <r_i_glide_erotb>  (180) 
0.267413

>  <r_i_glide_esite>  (180) 
-0.0322076

>  <r_i_glide_emodel>  (180) 
-25.1509

>  <r_i_glide_energy>  (180) 
-23.6194

>  <r_i_glide_einternal>  (180) 
1.6367

>  <r_i_glide_intrahb_reward>  (180) 
-0

>  <i_i_glide_confnum>  (180) 
2

>  <i_i_glide_posenum>  (180) 
7

>  <r_i_glide_eff_state_penalty>  (180) 
0

>  <ligand_id>  (180) 
57

>  <original_smiles>  (180) 
CCOC(=O)C1(C)C(OC(C)=O)CCC2(C)C3CCC4C(C)(CC(OC)C5OC54C)C3CCC21

>  <smiles>  (180) 
[H]C([H])([H])OC1([H])C([H])([H])C2(C([H])([H])[H])C3([H])C([H])([H])C([H])([H])C4([H])C(C(=O)OC([H])([H])C([H])([H])[H])(C([H])([H])[H])C([H])(OC(=O)C([H])([H])[H])C([H])([H])C([H])([H])C4(C([H])([H])[H])C3([H])C([H])([H])C([H])([H])C2([H])C2(C([H])([H])[H])OC12[H]

$$$$
58:0:0
     RDKit          3D

114122  0  0  1  0  0  0  0  0999 V2000
    3.4930   -1.0748   -2.4284 C   0  0  0  0  0  0  0  0  0  0  0  0
    4.1191   -2.2709   -1.6988 C   0  0  0  0  0  0  0  0  0  0  0  0
    3.1137   -3.4169   -1.7953 C   0  0  0  0  0  0  0  0  0  0  0  0
    5.3228   -2.6367   -2.5667 C   0  0  0  0  0  0  0  0  0  0  0  0
    6.4018   -3.3706   -1.8444 C   0  0  0  0  0  0  0  0  0  0  0  0
    6.8591   -2.5789   -0.6434 C   0  0  0  0  0  0  0  0  0  0  0  0
    5.7809   -2.4657    0.4424 C   0  0  1  0  0  0  0  0  0  0  0  0
    6.3567   -1.4359    1.4065 C   0  0  0  0  0  0  0  0  0  0  0  0
    4.5106   -1.8540   -0.2122 C   0  0  2  0  0  0  0  0  0  0  0  0
    3.3492   -1.8377    0.8039 C   0  0  0  0  0  0  0  0  0  0  0  0
    3.1106   -3.0847    1.6841 C   0  0  1  0  0  0  0  0  0  0  0  0
    2.3592   -4.0864    0.9935 O   0  0  0  0  0  0  0  0  0  0  0  0
    4.3643   -3.6485    2.3904 C   0  0  2  0  0  0  0  0  0  0  0  0
    4.6086   -2.5930    3.3480 O   0  0  0  0  0  0  0  0  0  0  0  0
    3.9131   -2.1503    4.5878 C   0  0  2  0  0  0  0  0  0  0  0  0
    4.4897   -0.7091    4.4400 C   0  0  0  0  0  0  0  0  0  0  0  0
    4.5266   -2.7289    5.8938 C   0  0  1  0  0  0  0  0  0  0  0  0
    3.4426   -2.5237    6.9657 C   0  0  1  0  0  0  0  0  0  0  0  0
    2.4978   -1.4793    6.4458 C   0  0  0  0  0  0  0  0  0  0  0  0
    2.3471   -2.1359    5.0336 C   0  0  1  0  0  0  0  0  0  0  0  0
    1.3578   -1.3133    4.1730 C   0  0  0  0  0  0  0  0  0  0  0  0
    1.7907   -3.5619    5.5413 C   0  0  1  0  0  0  0  0  0  0  0  0
    0.4541   -3.4206    6.3480 C   0  0  0  0  0  0  0  0  0  0  0  0
    1.3514   -4.5469    4.4063 C   0  0  0  0  0  0  0  0  0  0  0  0
    1.2787   -6.1196    4.4358 C   0  0  1  0  0  0  0  0  0  0  0  0
    1.0991   -6.4858    3.0860 O   0  0  0  0  0  0  0  0  0  0  0  0
    2.2375   -7.0811    5.2793 C   0  0  2  0  0  0  0  0  0  0  0  0
    3.1985   -8.0923    4.4272 C   0  0  1  0  0  0  0  0  0  0  0  0
    4.1279   -8.9207    5.3768 C   0  0  0  0  0  0  0  0  0  0  0  0
    2.3042   -9.1882    3.7587 C   0  0  0  0  0  0  0  0  0  0  0  0
    1.3142   -9.8803    4.7201 C   0  0  0  0  0  0  0  0  0  0  0  0
    0.5168   -8.9361    5.6321 C   0  0  1  0  0  0  0  0  0  0  0  0
   -0.1845   -9.7177    6.5595 O   0  0  0  0  0  0  0  0  0  0  0  0
    1.3521   -7.8482    6.3805 C   0  0  0  0  0  0  0  0  0  0  0  0
    2.1841   -8.4141    7.5694 C   0  0  0  0  0  0  0  0  0  0  0  0
    0.3730   -6.9061    7.1446 C   0  0  0  0  0  0  0  0  0  0  0  0
    4.3654   -7.5637    3.4451 C   0  0  0  0  0  0  0  0  0  0  0  0
    4.4521   -6.3062    2.5303 C   0  0  2  0  0  0  0  0  0  0  0  0
    3.4135   -6.5429    1.6117 O   0  0  0  0  0  0  0  0  0  0  0  0
    5.7897   -6.3118    1.7151 C   0  0  0  0  0  0  0  0  0  0  0  0
    6.4605   -4.9260    1.4929 C   0  0  1  0  0  0  0  0  0  0  0  0
    7.4066   -5.1819    0.4845 O   0  0  0  0  0  0  0  0  0  0  0  0
    5.3987   -3.8185    1.1808 C   0  0  2  0  0  0  0  0  0  0  0  0
    4.3923   -4.9543    3.2821 C   0  0  1  0  0  0  0  0  0  0  0  0
    5.4934   -4.9327    4.3809 C   0  0  0  0  0  0  0  0  0  0  0  0
    4.8809   -5.2719    5.6028 O   0  0  0  0  0  0  0  0  0  0  0  0
    4.4105   -4.1785    6.3644 C   0  0  2  0  0  0  0  0  0  0  0  0
    2.9090   -3.9226    6.5845 C   0  0  1  0  0  0  0  0  0  0  0  0
    3.1929   -1.3054   -3.4590 H   0  0  0  0  0  0  0  0  0  0  0  0
    4.1691   -0.2250   -2.4743 H   0  0  0  0  0  0  0  0  0  0  0  0
    2.6126   -0.7072   -1.9152 H   0  0  0  0  0  0  0  0  0  0  0  0
    3.5154   -4.2921   -1.3101 H   0  0  0  0  0  0  0  0  0  0  0  0
    2.9143   -3.6941   -2.8353 H   0  0  0  0  0  0  0  0  0  0  0  0
    2.1402   -3.1575   -1.3646 H   0  0  0  0  0  0  0  0  0  0  0  0
    5.0365   -3.2126   -3.4379 H   0  0  0  0  0  0  0  0  0  0  0  0
    5.7623   -1.7278   -2.9350 H   0  0  0  0  0  0  0  0  0  0  0  0
    6.0007   -4.3248   -1.5245 H   0  0  0  0  0  0  0  0  0  0  0  0
    7.2433   -3.5388   -2.5053 H   0  0  0  0  0  0  0  0  0  0  0  0
    7.8163   -2.9217   -0.2481 H   0  0  0  0  0  0  0  0  0  0  0  0
    7.0665   -1.5779   -1.0124 H   0  0  0  0  0  0  0  0  0  0  0  0
    5.6203   -0.8913    1.9737 H   0  0  0  0  0  0  0  0  0  0  0  0
    6.9763   -0.6808    0.9355 H   0  0  0  0  0  0  0  0  0  0  0  0
    6.9918   -1.9805    2.0762 H   0  0  0  0  0  0  0  0  0  0  0  0
    4.7485   -0.8078   -0.3571 H   0  0  0  0  0  0  0  0  0  0  0  0
    3.4996   -0.9806    1.4686 H   0  0  0  0  0  0  0  0  0  0  0  0
    2.4169   -1.6083    0.3208 H   0  0  0  0  0  0  0  0  0  0  0  0
    2.4154   -2.7128    2.4086 H   0  0  0  0  0  0  0  0  0  0  0  0
    2.7687   -4.2234    0.1326 H   0  0  0  0  0  0  0  0  0  0  0  0
    4.4296   -0.0515    5.3006 H   0  0  0  0  0  0  0  0  0  0  0  0
    4.0391   -0.1836    3.6026 H   0  0  0  0  0  0  0  0  0  0  0  0
    5.5599   -0.7492    4.2472 H   0  0  0  0  0  0  0  0  0  0  0  0
    5.4794   -2.3095    6.2098 H   0  0  0  0  0  0  0  0  0  0  0  0
    3.8154   -2.4272    7.9919 H   0  0  0  0  0  0  0  0  0  0  0  0
    1.5938   -1.3803    7.0283 H   0  0  0  0  0  0  0  0  0  0  0  0
    2.8915   -0.4787    6.4685 H   0  0  0  0  0  0  0  0  0  0  0  0
    0.6900   -0.7332    4.8001 H   0  0  0  0  0  0  0  0  0  0  0  0
    0.7294   -1.9444    3.5462 H   0  0  0  0  0  0  0  0  0  0  0  0
    1.8727   -0.6126    3.5235 H   0  0  0  0  0  0  0  0  0  0  0  0
   -0.1298   -4.3389    6.3393 H   0  0  0  0  0  0  0  0  0  0  0  0
   -0.1959   -2.6550    5.9245 H   0  0  0  0  0  0  0  0  0  0  0  0
    0.5958   -3.2036    7.4044 H   0  0  0  0  0  0  0  0  0  0  0  0
    0.3399   -4.2373    4.1325 H   0  0  0  0  0  0  0  0  0  0  0  0
    1.8064   -4.2510    3.4916 H   0  0  0  0  0  0  0  0  0  0  0  0
    0.2637   -6.2924    4.7451 H   0  0  0  0  0  0  0  0  0  0  0  0
    1.9524   -6.5156    2.6504 H   0  0  0  0  0  0  0  0  0  0  0  0
    2.8908   -6.4366    5.8598 H   0  0  0  0  0  0  0  0  0  0  0  0
    4.8969   -9.4862    4.8271 H   0  0  0  0  0  0  0  0  0  0  0  0
    3.6442   -9.7137    5.9292 H   0  0  0  0  0  0  0  0  0  0  0  0
    4.6652   -8.2933    6.0994 H   0  0  0  0  0  0  0  0  0  0  0  0
    1.7582   -8.7719    2.9307 H   0  0  0  0  0  0  0  0  0  0  0  0
    2.9467   -9.9503    3.3034 H   0  0  0  0  0  0  0  0  0  0  0  0
    0.6072  -10.4514    4.1208 H   0  0  0  0  0  0  0  0  0  0  0  0
    1.8275  -10.6230    5.3170 H   0  0  0  0  0  0  0  0  0  0  0  0
   -0.2275   -8.4407    5.0219 H   0  0  0  0  0  0  0  0  0  0  0  0
   -0.7907  -10.2745    6.0731 H   0  0  0  0  0  0  0  0  0  0  0  0
    1.7020   -8.3185    8.5456 H   0  0  0  0  0  0  0  0  0  0  0  0
    3.1408   -7.9042    7.6918 H   0  0  0  0  0  0  0  0  0  0  0  0
    2.3537   -9.4811    7.4972 H   0  0  0  0  0  0  0  0  0  0  0  0
   -0.0785   -7.4001    8.0059 H   0  0  0  0  0  0  0  0  0  0  0  0
   -0.4912   -6.5981    6.5738 H   0  0  0  0  0  0  0  0  0  0  0  0
    0.8808   -6.0177    7.5229 H   0  0  0  0  0  0  0  0  0  0  0  0
    5.2873   -7.5184    4.0361 H   0  0  0  0  0  0  0  0  0  0  0  0
    4.5617   -8.4152    2.7808 H   0  0  0  0  0  0  0  0  0  0  0  0
    3.4358   -5.8313    0.9870 H   0  0  0  0  0  0  0  0  0  0  0  0
    6.5239   -6.9565    2.2093 H   0  0  0  0  0  0  0  0  0  0  0  0
    5.6105   -6.7950    0.7491 H   0  0  0  0  0  0  0  0  0  0  0  0
    7.0357   -4.6197    2.3668 H   0  0  0  0  0  0  0  0  0  0  0  0
    8.0205   -5.8407    0.8077 H   0  0  0  0  0  0  0  0  0  0  0  0
    4.8452   -4.3400    0.3989 H   0  0  0  0  0  0  0  0  0  0  0  0
    3.5340   -5.0344    3.8760 H   0  0  0  0  0  0  0  0  0  0  0  0
    6.2631   -5.6753    4.2075 H   0  0  0  0  0  0  0  0  0  0  0  0
    6.0653   -4.0173    4.4379 H   0  0  0  0  0  0  0  0  0  0  0  0
    4.9117   -4.2836    7.3405 H   0  0  0  0  0  0  0  0  0  0  0  0
    2.5820   -4.4726    7.4651 H   0  0  0  0  0  0  0  0  0  0  0  0
  1  2  1  0
  1 49  1  0
  1 50  1  0
  1 51  1  0
  2  9  1  0
  2  3  1  0
  2  4  1  0
  3 52  1  0
  3 53  1  0
  3 54  1  0
  4  5  1  0
  4 55  1  0
  4 56  1  0
  5  6  1  0
  5 57  1  0
  5 58  1  0
  6  7  1  0
  6 59  1  0
  6 60  1  0
  7 43  1  0
  7  8  1  1
  7  9  1  0
  8 61  1  0
  8 62  1  0
  8 63  1  0
  9 10  1  0
  9 64  1  6
 10 11  1  0
 10 65  1  0
 10 66  1  0
 11 12  1  0
 11 13  1  0
 11 67  1  1
 12 68  1  0
 13 43  1  0
 13 44  1  0
 13 14  1  1
 14 15  1  0
 15 20  1  0
 15 16  1  1
 15 17  1  0
 16 69  1  0
 16 70  1  0
 16 71  1  0
 17 47  1  0
 17 18  1  0
 17 72  1  1
 18 48  1  0
 18 19  1  0
 18 73  1  1
 19 20  1  0
 19 74  1  0
 19 75  1  0
 20 21  1  6
 20 22  1  0
 21 76  1  0
 21 77  1  0
 21 78  1  0
 22 48  1  0
 22 23  1  1
 22 24  1  0
 23 79  1  0
 23 80  1  0
 23 81  1  0
 24 25  1  0
 24 82  1  0
 24 83  1  0
 25 26  1  0
 25 27  1  0
 25 84  1  1
 26 85  1  0
 27 34  1  0
 27 28  1  0
 27 86  1  1
 28 29  1  1
 28 30  1  0
 28 37  1  0
 29 87  1  0
 29 88  1  0
 29 89  1  0
 30 31  1  0
 30 90  1  0
 30 91  1  0
 31 32  1  0
 31 92  1  0
 31 93  1  0
 32 33  1  0
 32 34  1  0
 32 94  1  6
 33 95  1  0
 34 35  1  0
 34 36  1  0
 35 96  1  0
 35 97  1  0
 35 98  1  0
 36 99  1  0
 36100  1  0
 36101  1  0
 37 38  1  0
 37102  1  0
 37103  1  0
 38 39  1  6
 38 40  1  0
 38 44  1  0
 39104  1  0
 40 41  1  0
 40105  1  0
 40106  1  0
 41 42  1  0
 41 43  1  0
 41107  1  1
 42108  1  0
 43109  1  6
 44 45  1  0
 44110  1  1
 45 46  1  0
 45111  1  0
 45112  1  0
 46 47  1  0
 47 48  1  0
 47113  1  1
 48114  1  1
M  END
>  <i_m_ct_stereo_status>  (181) 
1

>  <s_m_source_file>  (181) 
/var/tmp/pbs.5076255.sched01/tmp378oxcv0/78pm6kuo1p.sdf

>  <i_m_source_file_index>  (181) 
8

>  <i_lp_mmshare_version>  (181) 
48012

>  <i_f3d_flags>  (181) 
0

>  <s_epik_input>  (181) 
W0NIMl0xW0NIMl1bQ0gyXUMoW0NIM10pKFtDSDNdKVtDQEBIXShbQ0gyXVtDQEhdMltPSF0pW0NAQF0xKFtDSDNdKVtDQEhdKFtDQF0yMzQpW0NASF0oW09IXSlbQ0gyXVtDQF01KFtPSF0pW0NASF00W0NIMl1PW0NASF02W0NASF03W0NAXShPMykoW0NIM10pW0NAQF04KFtDSDNdKVtDQF0oW0NIM10pKFtDQEBIXTZbQ0BASF03W0NIMl04KVtDSDJdW0NAQEhdKFtPSF0pW0NAQEhdOVtDQF0oW0NIM10pKFtDSDJdNSlbQ0gyXVtDSDJdW0NAQEhdKFtPSF0pQzkoW0NIM10pW0NIM10=

>  <s_epik_cmdline>  (181) 
J2VwaWtfcHl0aG9uJywgJy1waHQnLCAnMi4wJywgJy1waCcsICc3LjAnLCAnLXRuJywgJzgnLCAnLW1hJywgJzIwMCcsICctaW1hZScsICc8aW5maWxlLm1hZT4nLCAnLW9tYWUnLCAnPG91dGZpbGUubWFlPic=

>  <r_lp_tautomer_probability>  (181) 
1

>  <r_epik_Ionization_Penalty>  (181) 
5.17653e-06

>  <r_epik_Ionization_Penalty_Charging>  (181) 
0

>  <r_epik_Ionization_Penalty_Neutral>  (181) 
5.17653e-06

>  <r_epik_State_Penalty>  (181) 
-0

>  <r_epik_Charging_Adjusted_Penalty>  (181) 
0

>  <i_epik_Tot_Q>  (181) 
0

>  <i_epik_Tot_abs_Q>  (181) 
0

>  <s_lp_Force_Field>  (181) 
OPLS3e

>  <r_lp_Energy>  (181) 
282.296

>  <b_lp_Chiralities_Consistent>  (181) 
1

>  <s_lp_Variant>  (181) 
58:0-1

>  <s_i_glide_gridfile>  (181) 
pfpi4k_grid

>  <i_i_glide_lignum>  (181) 
8

>  <i_i_glide_rotatable_bonds>  (181) 
5

>  <r_i_docking_score>  (181) 
-3.73314

>  <r_i_glide_ligand_efficiency>  (181) 
-0.0777738

>  <r_i_glide_ligand_efficiency_sa>  (181) 
-0.282649

>  <r_i_glide_ligand_efficiency_ln>  (181) 
-0.76637

>  <r_i_glide_gscore>  (181) 
-3.73314

>  <r_i_glide_lipo>  (181) 
-0.839516

>  <r_i_glide_hbond>  (181) 
-0.16

>  <r_i_glide_metal>  (181) 
-0

>  <r_i_glide_rewards>  (181) 
-0.5

>  <r_i_glide_evdw>  (181) 
-32.0312

>  <r_i_glide_ecoul>  (181) 
-4.21378

>  <r_i_glide_erotb>  (181) 
0

>  <r_i_glide_esite>  (181) 
0

>  <r_i_glide_emodel>  (181) 
-48.797

>  <r_i_glide_energy>  (181) 
-36.245

>  <r_i_glide_einternal>  (181) 
0.880074

>  <r_i_glide_intrahb_reward>  (181) 
-0.5

>  <i_i_glide_confnum>  (181) 
2

>  <i_i_glide_posenum>  (181) 
9

>  <r_i_glide_eff_state_penalty>  (181) 
0

>  <ligand_id>  (181) 
58

>  <original_smiles>  (181) 
CC1(C)CCCC2(C)C1CC(O)C13OC4(C)C5C6CC4(C)C4(C)CC(O)C7C(C)(CCC(O)C7(C)C)CC(O)(CC(O)C21)C3COC5C64

>  <smiles>  (181) 
[H]OC1([H])C([H])([H])C2(C([H])([H])[H])C3([H])C4([H])OC([H])([H])C5([H])C(O[H])(C([H])([H])C([H])(O[H])C6([H])C5(OC5(C([H])([H])[H])C4([H])C3([H])C([H])([H])C52C([H])([H])[H])C([H])(O[H])C([H])([H])C2([H])C(C([H])([H])[H])(C([H])([H])[H])C([H])([H])C([H])([H])C([H])([H])C62C([H])([H])[H])C([H])([H])C2(C([H])([H])[H])C([H])([H])C([H])([H])C([H])(O[H])C(C([H])([H])[H])(C([H])([H])[H])C12[H]

$$$$
58:0:1
     RDKit          3D

114122  0  0  1  0  0  0  0  0999 V2000
    3.4791   -1.0558   -2.4147 C   0  0  0  0  0  0  0  0  0  0  0  0
    4.1084   -2.2647   -1.6862 C   0  0  0  0  0  0  0  0  0  0  0  0
    3.1181   -3.4277   -1.7934 C   0  0  0  0  0  0  0  0  0  0  0  0
    5.3218   -2.6041   -2.5486 C   0  0  0  0  0  0  0  0  0  0  0  0
    6.4226   -3.3241   -1.8269 C   0  0  0  0  0  0  0  0  0  0  0  0
    6.8557   -2.5365   -0.6161 C   0  0  0  0  0  0  0  0  0  0  0  0
    5.7624   -2.4570    0.4635 C   0  0  1  0  0  0  0  0  0  0  0  0
    6.3260   -1.4363    1.4542 C   0  0  0  0  0  0  0  0  0  0  0  0
    4.4833   -1.8535   -0.1987 C   0  0  2  0  0  0  0  0  0  0  0  0
    3.3080   -1.8563    0.8148 C   0  0  0  0  0  0  0  0  0  0  0  0
    3.0716   -3.1298    1.6804 C   0  0  1  0  0  0  0  0  0  0  0  0
    2.3476   -4.1204    1.0000 O   0  0  0  0  0  0  0  0  0  0  0  0
    4.3461   -3.6713    2.3956 C   0  0  2  0  0  0  0  0  0  0  0  0
    4.5702   -2.6115    3.3646 O   0  0  0  0  0  0  0  0  0  0  0  0
    3.8769   -2.1970    4.6130 C   0  0  2  0  0  0  0  0  0  0  0  0
    4.4364   -0.7472    4.4669 C   0  0  0  0  0  0  0  0  0  0  0  0
    4.4859   -2.7748    5.9120 C   0  0  1  0  0  0  0  0  0  0  0  0
    3.3843   -2.5836    6.9803 C   0  0  1  0  0  0  0  0  0  0  0  0
    2.4388   -1.5541    6.4565 C   0  0  0  0  0  0  0  0  0  0  0  0
    2.2996   -2.2036    5.0360 C   0  0  1  0  0  0  0  0  0  0  0  0
    1.3115   -1.3766    4.1737 C   0  0  0  0  0  0  0  0  0  0  0  0
    1.7554   -3.6359    5.5356 C   0  0  1  0  0  0  0  0  0  0  0  0
    0.4065   -3.5119    6.3270 C   0  0  0  0  0  0  0  0  0  0  0  0
    1.3309   -4.6097    4.3789 C   0  0  0  0  0  0  0  0  0  0  0  0
    1.2706   -6.1813    4.3935 C   0  0  1  0  0  0  0  0  0  0  0  0
    1.1063   -6.5465    3.0426 O   0  0  0  0  0  0  0  0  0  0  0  0
    2.2382   -7.1400    5.2390 C   0  0  2  0  0  0  0  0  0  0  0  0
    3.2142   -8.1431    4.3983 C   0  0  1  0  0  0  0  0  0  0  0  0
    4.1450   -8.9708    5.3476 C   0  0  0  0  0  0  0  0  0  0  0  0
    2.3358   -9.2315    3.7054 C   0  0  0  0  0  0  0  0  0  0  0  0
    1.3435   -9.9457    4.6506 C   0  0  0  0  0  0  0  0  0  0  0  0
    0.5318   -9.0181    5.5683 C   0  0  1  0  0  0  0  0  0  0  0  0
   -0.1867   -9.8173    6.4788 O   0  0  0  0  0  0  0  0  0  0  0  0
    1.3505   -7.9240    6.3276 C   0  0  0  0  0  0  0  0  0  0  0  0
    2.1828   -8.4984    7.5222 C   0  0  0  0  0  0  0  0  0  0  0  0
    0.3566   -6.9939    7.0933 C   0  0  0  0  0  0  0  0  0  0  0  0
    4.3843   -7.6039    3.4244 C   0  0  0  0  0  0  0  0  0  0  0  0
    4.4628   -6.3278    2.5104 C   0  0  2  0  0  0  0  0  0  0  0  0
    3.4238   -6.5463    1.5828 O   0  0  0  0  0  0  0  0  0  0  0  0
    5.8042   -6.3186    1.7046 C   0  0  0  0  0  0  0  0  0  0  0  0
    6.4635   -4.9163    1.4936 C   0  0  1  0  0  0  0  0  0  0  0  0
    7.4543   -5.1468    0.5172 O   0  0  0  0  0  0  0  0  0  0  0  0
    5.3853   -3.8204    1.1890 C   0  0  2  0  0  0  0  0  0  0  0  0
    4.3841   -4.9879    3.2769 C   0  0  1  0  0  0  0  0  0  0  0  0
    5.4765   -4.9593    4.3789 C   0  0  0  0  0  0  0  0  0  0  0  0
    4.8637   -5.3077    5.5990 O   0  0  0  0  0  0  0  0  0  0  0  0
    4.3773   -4.2302    6.3683 C   0  0  2  0  0  0  0  0  0  0  0  0
    2.8657   -3.9944    6.5785 C   0  0  1  0  0  0  0  0  0  0  0  0
    3.2049   -1.2960   -3.4468 H   0  0  0  0  0  0  0  0  0  0  0  0
    4.1664   -0.2096   -2.4490 H   0  0  0  0  0  0  0  0  0  0  0  0
    2.6053   -0.7012   -1.9024 H   0  0  0  0  0  0  0  0  0  0  0  0
    3.5196   -4.3095   -1.3119 H   0  0  0  0  0  0  0  0  0  0  0  0
    2.9312   -3.6963   -2.8331 H   0  0  0  0  0  0  0  0  0  0  0  0
    2.1422   -3.1845   -1.3722 H   0  0  0  0  0  0  0  0  0  0  0  0
    5.0410   -3.1827   -3.4277 H   0  0  0  0  0  0  0  0  0  0  0  0
    5.7261   -1.6802   -2.9095 H   0  0  0  0  0  0  0  0  0  0  0  0
    6.0479   -4.2919   -1.5300 H   0  0  0  0  0  0  0  0  0  0  0  0
    7.2706   -3.4644   -2.4925 H   0  0  0  0  0  0  0  0  0  0  0  0
    7.8092   -2.8772   -0.2168 H   0  0  0  0  0  0  0  0  0  0  0  0
    7.0595   -1.5263   -0.9673 H   0  0  0  0  0  0  0  0  0  0  0  0
    5.5732   -0.8899    2.0054 H   0  0  0  0  0  0  0  0  0  0  0  0
    6.9446   -0.6681    0.9944 H   0  0  0  0  0  0  0  0  0  0  0  0
    6.9497   -1.9718    2.1439 H   0  0  0  0  0  0  0  0  0  0  0  0
    4.7282   -0.7960   -0.3209 H   0  0  0  0  0  0  0  0  0  0  0  0
    3.4618   -1.0154    1.4877 H   0  0  0  0  0  0  0  0  0  0  0  0
    2.3788   -1.6150    0.3235 H   0  0  0  0  0  0  0  0  0  0  0  0
    2.3849   -2.7488    2.4126 H   0  0  0  0  0  0  0  0  0  0  0  0
    2.7022   -4.2131    0.1196 H   0  0  0  0  0  0  0  0  0  0  0  0
    4.3616   -0.0996    5.3300 H   0  0  0  0  0  0  0  0  0  0  0  0
    3.9873   -0.2141    3.6289 H   0  0  0  0  0  0  0  0  0  0  0  0
    5.5116   -0.7733    4.2845 H   0  0  0  0  0  0  0  0  0  0  0  0
    5.4413   -2.3352    6.2207 H   0  0  0  0  0  0  0  0  0  0  0  0
    3.7424   -2.4843    8.0103 H   0  0  0  0  0  0  0  0  0  0  0  0
    1.5235   -1.4650    7.0328 H   0  0  0  0  0  0  0  0  0  0  0  0
    2.8176   -0.5409    6.4871 H   0  0  0  0  0  0  0  0  0  0  0  0
    0.6317   -0.8056    4.7980 H   0  0  0  0  0  0  0  0  0  0  0  0
    0.6928   -2.0042    3.5409 H   0  0  0  0  0  0  0  0  0  0  0  0
    1.8212   -0.6658    3.5343 H   0  0  0  0  0  0  0  0  0  0  0  0
   -0.1702   -4.4353    6.3062 H   0  0  0  0  0  0  0  0  0  0  0  0
   -0.2450   -2.7470    5.9051 H   0  0  0  0  0  0  0  0  0  0  0  0
    0.5382   -3.2949    7.3855 H   0  0  0  0  0  0  0  0  0  0  0  0
    0.3196   -4.3131    4.0982 H   0  0  0  0  0  0  0  0  0  0  0  0
    1.7926   -4.3013    3.4687 H   0  0  0  0  0  0  0  0  0  0  0  0
    0.2519   -6.3681    4.6957 H   0  0  0  0  0  0  0  0  0  0  0  0
    1.9645   -6.5604    2.6166 H   0  0  0  0  0  0  0  0  0  0  0  0
    2.8790   -6.4960    5.8300 H   0  0  0  0  0  0  0  0  0  0  0  0
    4.9160   -9.5178    4.7963 H   0  0  0  0  0  0  0  0  0  0  0  0
    3.6567   -9.7750    5.8872 H   0  0  0  0  0  0  0  0  0  0  0  0
    4.6690   -8.3385    6.0716 H   0  0  0  0  0  0  0  0  0  0  0  0
    1.7899   -8.8196    2.8628 H   0  0  0  0  0  0  0  0  0  0  0  0
    2.9760   -9.9839    3.2497 H   0  0  0  0  0  0  0  0  0  0  0  0
    0.6488  -10.5205    4.0409 H   0  0  0  0  0  0  0  0  0  0  0  0
    1.8581  -10.6950    5.2444 H   0  0  0  0  0  0  0  0  0  0  0  0
   -0.2169   -8.5244    4.9555 H   0  0  0  0  0  0  0  0  0  0  0  0
   -0.8073  -10.3499    5.9829 H   0  0  0  0  0  0  0  0  0  0  0  0
    1.6912   -8.4120    8.4901 H   0  0  0  0  0  0  0  0  0  0  0  0
    3.1317   -7.9780    7.6552 H   0  0  0  0  0  0  0  0  0  0  0  0
    2.3567   -9.5690    7.4401 H   0  0  0  0  0  0  0  0  0  0  0  0
   -0.1030   -7.5013    7.9418 H   0  0  0  0  0  0  0  0  0  0  0  0
   -0.5095   -6.6788    6.5167 H   0  0  0  0  0  0  0  0  0  0  0  0
    0.8571   -6.1099    7.4889 H   0  0  0  0  0  0  0  0  0  0  0  0
    5.3035   -7.5385    4.0112 H   0  0  0  0  0  0  0  0  0  0  0  0
    4.5924   -8.4392    2.7462 H   0  0  0  0  0  0  0  0  0  0  0  0
    3.4417   -5.8200    0.9711 H   0  0  0  0  0  0  0  0  0  0  0  0
    6.5492   -6.9473    2.1986 H   0  0  0  0  0  0  0  0  0  0  0  0
    5.6408   -6.8028    0.7365 H   0  0  0  0  0  0  0  0  0  0  0  0
    7.0227   -4.6141    2.3736 H   0  0  0  0  0  0  0  0  0  0  0  0
    7.0366   -5.4746   -0.2733 H   0  0  0  0  0  0  0  0  0  0  0  0
    4.8434   -4.3395    0.4063 H   0  0  0  0  0  0  0  0  0  0  0  0
    3.5207   -5.0780    3.8631 H   0  0  0  0  0  0  0  0  0  0  0  0
    6.2584   -5.6928    4.2073 H   0  0  0  0  0  0  0  0  0  0  0  0
    6.0440   -4.0387    4.4499 H   0  0  0  0  0  0  0  0  0  0  0  0
    4.8702   -4.3493    7.3374 H   0  0  0  0  0  0  0  0  0  0  0  0
    2.5212   -4.5592    7.4509 H   0  0  0  0  0  0  0  0  0  0  0  0
  1  2  1  0
  1 49  1  0
  1 50  1  0
  1 51  1  0
  2  9  1  0
  2  3  1  0
  2  4  1  0
  3 52  1  0
  3 53  1  0
  3 54  1  0
  4  5  1  0
  4 55  1  0
  4 56  1  0
  5  6  1  0
  5 57  1  0
  5 58  1  0
  6  7  1  0
  6 59  1  0
  6 60  1  0
  7 43  1  0
  7  8  1  1
  7  9  1  0
  8 61  1  0
  8 62  1  0
  8 63  1  0
  9 10  1  0
  9 64  1  6
 10 11  1  0
 10 65  1  0
 10 66  1  0
 11 12  1  0
 11 13  1  0
 11 67  1  1
 12 68  1  0
 13 43  1  0
 13 44  1  0
 13 14  1  1
 14 15  1  0
 15 20  1  0
 15 16  1  1
 15 17  1  0
 16 69  1  0
 16 70  1  0
 16 71  1  0
 17 47  1  0
 17 18  1  0
 17 72  1  1
 18 48  1  0
 18 19  1  0
 18 73  1  1
 19 20  1  0
 19 74  1  0
 19 75  1  0
 20 21  1  6
 20 22  1  0
 21 76  1  0
 21 77  1  0
 21 78  1  0
 22 48  1  0
 22 23  1  1
 22 24  1  0
 23 79  1  0
 23 80  1  0
 23 81  1  0
 24 25  1  0
 24 82  1  0
 24 83  1  0
 25 26  1  0
 25 27  1  0
 25 84  1  1
 26 85  1  0
 27 34  1  0
 27 28  1  0
 27 86  1  1
 28 29  1  1
 28 30  1  0
 28 37  1  0
 29 87  1  0
 29 88  1  0
 29 89  1  0
 30 31  1  0
 30 90  1  0
 30 91  1  0
 31 32  1  0
 31 92  1  0
 31 93  1  0
 32 33  1  0
 32 34  1  0
 32 94  1  6
 33 95  1  0
 34 35  1  0
 34 36  1  0
 35 96  1  0
 35 97  1  0
 35 98  1  0
 36 99  1  0
 36100  1  0
 36101  1  0
 37 38  1  0
 37102  1  0
 37103  1  0
 38 39  1  6
 38 40  1  0
 38 44  1  0
 39104  1  0
 40 41  1  0
 40105  1  0
 40106  1  0
 41 42  1  0
 41 43  1  0
 41107  1  1
 42108  1  0
 43109  1  6
 44 45  1  0
 44110  1  1
 45 46  1  0
 45111  1  0
 45112  1  0
 46 47  1  0
 47 48  1  0
 47113  1  1
 48114  1  1
M  END
>  <i_m_ct_stereo_status>  (182) 
1

>  <s_m_source_file>  (182) 
/var/tmp/pbs.5076255.sched01/tmp378oxcv0/78pm6kuo1p.sdf

>  <i_m_source_file_index>  (182) 
8

>  <i_lp_mmshare_version>  (182) 
48012

>  <i_f3d_flags>  (182) 
0

>  <s_epik_input>  (182) 
W0NIMl0xW0NIMl1bQ0gyXUMoW0NIM10pKFtDSDNdKVtDQEBIXShbQ0gyXVtDQEhdMltPSF0pW0NAQF0xKFtDSDNdKVtDQEhdKFtDQF0yMzQpW0NASF0oW09IXSlbQ0gyXVtDQF01KFtPSF0pW0NASF00W0NIMl1PW0NASF02W0NASF03W0NAXShPMykoW0NIM10pW0NAQF04KFtDSDNdKVtDQF0oW0NIM10pKFtDQEBIXTZbQ0BASF03W0NIMl04KVtDSDJdW0NAQEhdKFtPSF0pW0NAQEhdOVtDQF0oW0NIM10pKFtDSDJdNSlbQ0gyXVtDSDJdW0NAQEhdKFtPSF0pQzkoW0NIM10pW0NIM10=

>  <s_epik_cmdline>  (182) 
J2VwaWtfcHl0aG9uJywgJy1waHQnLCAnMi4wJywgJy1waCcsICc3LjAnLCAnLXRuJywgJzgnLCAnLW1hJywgJzIwMCcsICctaW1hZScsICc8aW5maWxlLm1hZT4nLCAnLW9tYWUnLCAnPG91dGZpbGUubWFlPic=

>  <r_lp_tautomer_probability>  (182) 
1

>  <r_epik_Ionization_Penalty>  (182) 
5.17653e-06

>  <r_epik_Ionization_Penalty_Charging>  (182) 
0

>  <r_epik_Ionization_Penalty_Neutral>  (182) 
5.17653e-06

>  <r_epik_State_Penalty>  (182) 
-0

>  <r_epik_Charging_Adjusted_Penalty>  (182) 
0

>  <i_epik_Tot_Q>  (182) 
0

>  <i_epik_Tot_abs_Q>  (182) 
0

>  <s_lp_Force_Field>  (182) 
OPLS3e

>  <r_lp_Energy>  (182) 
282.296

>  <b_lp_Chiralities_Consistent>  (182) 
1

>  <s_lp_Variant>  (182) 
58:0-1

>  <s_i_glide_gridfile>  (182) 
pfpi4k_grid

>  <i_i_glide_lignum>  (182) 
8

>  <i_i_glide_rotatable_bonds>  (182) 
5

>  <r_i_docking_score>  (182) 
-3.61241

>  <r_i_glide_ligand_efficiency>  (182) 
-0.0752586

>  <r_i_glide_ligand_efficiency_sa>  (182) 
-0.273508

>  <r_i_glide_ligand_efficiency_ln>  (182) 
-0.741586

>  <r_i_glide_gscore>  (182) 
-3.61241

>  <r_i_glide_lipo>  (182) 
-0.817061

>  <r_i_glide_hbond>  (182) 
-0.16

>  <r_i_glide_metal>  (182) 
-0

>  <r_i_glide_rewards>  (182) 
-0.5

>  <r_i_glide_evdw>  (182) 
-31.2588

>  <r_i_glide_ecoul>  (182) 
-3.81609

>  <r_i_glide_erotb>  (182) 
0

>  <r_i_glide_esite>  (182) 
0

>  <r_i_glide_emodel>  (182) 
-47.4899

>  <r_i_glide_energy>  (182) 
-35.0749

>  <r_i_glide_einternal>  (182) 
0.596855

>  <r_i_glide_intrahb_reward>  (182) 
-0.5

>  <i_i_glide_confnum>  (182) 
1

>  <i_i_glide_posenum>  (182) 
14

>  <r_i_glide_eff_state_penalty>  (182) 
0

>  <ligand_id>  (182) 
58

>  <original_smiles>  (182) 
CC1(C)CCCC2(C)C1CC(O)C13OC4(C)C5C6CC4(C)C4(C)CC(O)C7C(C)(CCC(O)C7(C)C)CC(O)(CC(O)C21)C3COC5C64

>  <smiles>  (182) 
[H]OC1([H])C([H])([H])C2(C([H])([H])[H])C3([H])C4([H])OC([H])([H])C5([H])C(O[H])(C([H])([H])C([H])(O[H])C6([H])C5(OC5(C([H])([H])[H])C4([H])C3([H])C([H])([H])C52C([H])([H])[H])C([H])(O[H])C([H])([H])C2([H])C(C([H])([H])[H])(C([H])([H])[H])C([H])([H])C([H])([H])C([H])([H])C62C([H])([H])[H])C([H])([H])C2(C([H])([H])[H])C([H])([H])C([H])([H])C([H])(O[H])C(C([H])([H])[H])(C([H])([H])[H])C12[H]

$$$$
58:0:2
     RDKit          3D

114122  0  0  1  0  0  0  0  0999 V2000
   -2.7296    2.9508    6.3521 C   0  0  0  0  0  0  0  0  0  0  0  0
   -1.6006    2.7866    5.3040 C   0  0  0  0  0  0  0  0  0  0  0  0
   -2.0405    1.6843    4.3299 C   0  0  0  0  0  0  0  0  0  0  0  0
   -1.5876    4.1083    4.4998 C   0  0  0  0  0  0  0  0  0  0  0  0
   -0.2847    4.3863    3.7768 C   0  0  0  0  0  0  0  0  0  0  0  0
    0.8277    4.3941    4.8141 C   0  0  0  0  0  0  0  0  0  0  0  0
    1.1078    3.0006    5.4342 C   0  0  1  0  0  0  0  0  0  0  0  0
    2.1199    3.3033    6.5665 C   0  0  0  0  0  0  0  0  0  0  0  0
   -0.2393    2.4849    6.0638 C   0  0  2  0  0  0  0  0  0  0  0  0
   -0.1049    1.0181    6.5818 C   0  0  0  0  0  0  0  0  0  0  0  0
    0.6759   -0.0125    5.7096 C   0  0  1  0  0  0  0  0  0  0  0  0
   -0.1809   -0.6264    4.7776 O   0  0  0  0  0  0  0  0  0  0  0  0
    2.0466    0.5035    5.1522 C   0  0  2  0  0  0  0  0  0  0  0  0
    2.8109    0.5553    6.3900 O   0  0  0  0  0  0  0  0  0  0  0  0
    3.4032   -0.4771    7.2849 C   0  0  2  0  0  0  0  0  0  0  0  0
    3.3746    0.5172    8.4870 C   0  0  0  0  0  0  0  0  0  0  0  0
    4.8965   -0.7917    7.0248 C   0  0  1  0  0  0  0  0  0  0  0  0
    5.1396   -2.1491    7.7264 C   0  0  1  0  0  0  0  0  0  0  0  0
    4.0335   -2.3348    8.7129 C   0  0  0  0  0  0  0  0  0  0  0  0
    2.8900   -1.9672    7.7058 C   0  0  1  0  0  0  0  0  0  0  0  0
    1.5162   -2.0841    8.4089 C   0  0  0  0  0  0  0  0  0  0  0  0
    3.2153   -3.1149    6.6177 C   0  0  1  0  0  0  0  0  0  0  0  0
    3.1065   -4.5560    7.2240 C   0  0  0  0  0  0  0  0  0  0  0  0
    2.1818   -3.2004    5.4406 C   0  0  0  0  0  0  0  0  0  0  0  0
    2.4135   -3.7700    3.9972 C   0  0  1  0  0  0  0  0  0  0  0  0
    1.2811   -3.3494    3.2793 O   0  0  0  0  0  0  0  0  0  0  0  0
    3.7824   -3.6930    3.1581 C   0  0  2  0  0  0  0  0  0  0  0  0
    3.7866   -2.8108    1.7861 C   0  0  1  0  0  0  0  0  0  0  0  0
    5.2006   -2.7823    1.1145 C   0  0  0  0  0  0  0  0  0  0  0  0
    2.8918   -3.5328    0.7328 C   0  0  0  0  0  0  0  0  0  0  0  0
    3.2216   -5.0293    0.5238 C   0  0  0  0  0  0  0  0  0  0  0  0
    3.3920   -5.8468    1.8200 C   0  0  1  0  0  0  0  0  0  0  0  0
    3.8886   -7.1231    1.4748 O   0  0  0  0  0  0  0  0  0  0  0  0
    4.2974   -5.1988    2.9168 C   0  0  0  0  0  0  0  0  0  0  0  0
    5.8155   -5.2893    2.5615 C   0  0  0  0  0  0  0  0  0  0  0  0
    4.2278   -6.0905    4.1974 C   0  0  0  0  0  0  0  0  0  0  0  0
    3.5272   -1.2179    1.7790 C   0  0  0  0  0  0  0  0  0  0  0  0
    2.6073   -0.3191    2.6804 C   0  0  2  0  0  0  0  0  0  0  0  0
    1.2986   -0.7956    2.4396 O   0  0  0  0  0  0  0  0  0  0  0  0
    2.6532    1.1656    2.1933 C   0  0  0  0  0  0  0  0  0  0  0  0
    2.6377    2.2650    3.3009 C   0  0  1  0  0  0  0  0  0  0  0  0
    2.4314    3.4766    2.6001 O   0  0  0  0  0  0  0  0  0  0  0  0
    1.6568    1.8890    4.4504 C   0  0  2  0  0  0  0  0  0  0  0  0
    2.9980   -0.3126    4.1745 C   0  0  1  0  0  0  0  0  0  0  0  0
    4.5032    0.0677    4.3230 C   0  0  0  0  0  0  0  0  0  0  0  0
    5.2307   -1.1287    4.4875 O   0  0  0  0  0  0  0  0  0  0  0  0
    5.4177   -1.5637    5.8200 C   0  0  2  0  0  0  0  0  0  0  0  0
    4.7395   -2.8294    6.3867 C   0  0  1  0  0  0  0  0  0  0  0  0
   -3.6813    3.1733    5.8667 H   0  0  0  0  0  0  0  0  0  0  0  0
   -2.5182    3.7800    7.0291 H   0  0  0  0  0  0  0  0  0  0  0  0
   -2.8721    2.0580    6.9606 H   0  0  0  0  0  0  0  0  0  0  0  0
   -1.3106    1.4743    3.5501 H   0  0  0  0  0  0  0  0  0  0  0  0
   -2.9657    1.9666    3.8269 H   0  0  0  0  0  0  0  0  0  0  0  0
   -2.2646    0.7565    4.8592 H   0  0  0  0  0  0  0  0  0  0  0  0
   -2.3973    4.1333    3.7723 H   0  0  0  0  0  0  0  0  0  0  0  0
   -1.7762    4.9419    5.1724 H   0  0  0  0  0  0  0  0  0  0  0  0
   -0.1276    3.6466    2.9920 H   0  0  0  0  0  0  0  0  0  0  0  0
   -0.3346    5.3581    3.2846 H   0  0  0  0  0  0  0  0  0  0  0  0
    1.7347    4.8609    4.4385 H   0  0  0  0  0  0  0  0  0  0  0  0
    0.5056    5.0757    5.6039 H   0  0  0  0  0  0  0  0  0  0  0  0
    2.0461    2.6019    7.3888 H   0  0  0  0  0  0  0  0  0  0  0  0
    1.9532    4.2731    7.0327 H   0  0  0  0  0  0  0  0  0  0  0  0
    3.1438    3.2945    6.1997 H   0  0  0  0  0  0  0  0  0  0  0  0
   -0.3457    3.0866    6.9712 H   0  0  0  0  0  0  0  0  0  0  0  0
    0.4078    1.0800    7.5399 H   0  0  0  0  0  0  0  0  0  0  0  0
   -1.0812    0.6126    6.8442 H   0  0  0  0  0  0  0  0  0  0  0  0
    0.8657   -0.7900    6.4189 H   0  0  0  0  0  0  0  0  0  0  0  0
    0.3378   -1.1378    4.1666 H   0  0  0  0  0  0  0  0  0  0  0  0
    3.9492    0.2425    9.3609 H   0  0  0  0  0  0  0  0  0  0  0  0
    2.3626    0.7311    8.8251 H   0  0  0  0  0  0  0  0  0  0  0  0
    3.8280    1.4685    8.2032 H   0  0  0  0  0  0  0  0  0  0  0  0
    5.5965   -0.0153    7.3401 H   0  0  0  0  0  0  0  0  0  0  0  0
    6.1619   -2.3282    8.0637 H   0  0  0  0  0  0  0  0  0  0  0  0
    3.9896   -3.3321    9.1419 H   0  0  0  0  0  0  0  0  0  0  0  0
    4.1174   -1.7157    9.5990 H   0  0  0  0  0  0  0  0  0  0  0  0
    1.5650   -2.7606    9.2579 H   0  0  0  0  0  0  0  0  0  0  0  0
    0.7506   -2.4805    7.7489 H   0  0  0  0  0  0  0  0  0  0  0  0
    1.1633   -1.1310    8.7878 H   0  0  0  0  0  0  0  0  0  0  0  0
    2.9134   -5.3089    6.4638 H   0  0  0  0  0  0  0  0  0  0  0  0
    2.2890   -4.6347    7.9387 H   0  0  0  0  0  0  0  0  0  0  0  0
    4.0166   -4.8909    7.7212 H   0  0  0  0  0  0  0  0  0  0  0  0
    1.3488   -3.7922    5.8242 H   0  0  0  0  0  0  0  0  0  0  0  0
    1.6497   -2.2804    5.3782 H   0  0  0  0  0  0  0  0  0  0  0  0
    2.1183   -4.8028    4.0996 H   0  0  0  0  0  0  0  0  0  0  0  0
    1.4185   -2.4581    2.9758 H   0  0  0  0  0  0  0  0  0  0  0  0
    4.5230   -3.2557    3.8150 H   0  0  0  0  0  0  0  0  0  0  0  0
    5.2457   -2.0590    0.2964 H   0  0  0  0  0  0  0  0  0  0  0  0
    5.4919   -3.6970    0.6182 H   0  0  0  0  0  0  0  0  0  0  0  0
    5.9774   -2.4965    1.8262 H   0  0  0  0  0  0  0  0  0  0  0  0
    1.8422   -3.4250    0.9757 H   0  0  0  0  0  0  0  0  0  0  0  0
    2.9777   -3.0314   -0.2311 H   0  0  0  0  0  0  0  0  0  0  0  0
    2.4264   -5.4742   -0.0692 H   0  0  0  0  0  0  0  0  0  0  0  0
    4.1076   -5.1402   -0.0964 H   0  0  0  0  0  0  0  0  0  0  0  0
    2.3978   -6.0042    2.2361 H   0  0  0  0  0  0  0  0  0  0  0  0
    3.2482   -7.5752    0.9429 H   0  0  0  0  0  0  0  0  0  0  0  0
    6.3296   -6.1207    3.0387 H   0  0  0  0  0  0  0  0  0  0  0  0
    6.3542   -4.4097    2.8941 H   0  0  0  0  0  0  0  0  0  0  0  0
    6.0003   -5.4630    1.5056 H   0  0  0  0  0  0  0  0  0  0  0  0
    4.7584   -7.0334    4.0685 H   0  0  0  0  0  0  0  0  0  0  0  0
    3.2318   -6.4314    4.4708 H   0  0  0  0  0  0  0  0  0  0  0  0
    4.6868   -5.5911    5.0482 H   0  0  0  0  0  0  0  0  0  0  0  0
    4.4945   -0.7262    1.8499 H   0  0  0  0  0  0  0  0  0  0  0  0
    3.2209   -0.9835    0.7544 H   0  0  0  0  0  0  0  0  0  0  0  0
    1.0943   -0.6369    1.5186 H   0  0  0  0  0  0  0  0  0  0  0  0
    3.5664    1.3313    1.6202 H   0  0  0  0  0  0  0  0  0  0  0  0
    1.8504    1.3433    1.4737 H   0  0  0  0  0  0  0  0  0  0  0  0
    3.6220    2.4018    3.7439 H   0  0  0  0  0  0  0  0  0  0  0  0
    1.5909    3.4752    2.1513 H   0  0  0  0  0  0  0  0  0  0  0  0
    0.7878    1.6588    3.8453 H   0  0  0  0  0  0  0  0  0  0  0  0
    3.0382   -1.3251    4.4409 H   0  0  0  0  0  0  0  0  0  0  0  0
    4.9092    0.5485    3.4364 H   0  0  0  0  0  0  0  0  0  0  0  0
    4.7339    0.8001    5.0914 H   0  0  0  0  0  0  0  0  0  0  0  0
    6.5017   -1.6625    5.9195 H   0  0  0  0  0  0  0  0  0  0  0  0
    5.3377   -3.7204    6.1760 H   0  0  0  0  0  0  0  0  0  0  0  0
  1  2  1  0
  1 49  1  0
  1 50  1  0
  1 51  1  0
  2  9  1  0
  2  3  1  0
  2  4  1  0
  3 52  1  0
  3 53  1  0
  3 54  1  0
  4  5  1  0
  4 55  1  0
  4 56  1  0
  5  6  1  0
  5 57  1  0
  5 58  1  0
  6  7  1  0
  6 59  1  0
  6 60  1  0
  7 43  1  0
  7  8  1  1
  7  9  1  0
  8 61  1  0
  8 62  1  0
  8 63  1  0
  9 10  1  0
  9 64  1  1
 10 11  1  0
 10 65  1  0
 10 66  1  0
 11 12  1  0
 11 13  1  0
 11 67  1  1
 12 68  1  0
 13 43  1  0
 13 44  1  0
 13 14  1  1
 14 15  1  0
 15 20  1  0
 15 16  1  1
 15 17  1  0
 16 69  1  0
 16 70  1  0
 16 71  1  0
 17 47  1  0
 17 18  1  0
 17 72  1  1
 18 48  1  0
 18 19  1  0
 18 73  1  1
 19 20  1  0
 19 74  1  0
 19 75  1  0
 20 21  1  1
 20 22  1  0
 21 76  1  0
 21 77  1  0
 21 78  1  0
 22 48  1  0
 22 23  1  1
 22 24  1  0
 23 79  1  0
 23 80  1  0
 23 81  1  0
 24 25  1  0
 24 82  1  0
 24 83  1  0
 25 26  1  0
 25 27  1  0
 25 84  1  1
 26 85  1  0
 27 34  1  0
 27 28  1  0
 27 86  1  1
 28 29  1  6
 28 30  1  0
 28 37  1  0
 29 87  1  0
 29 88  1  0
 29 89  1  0
 30 31  1  0
 30 90  1  0
 30 91  1  0
 31 32  1  0
 31 92  1  0
 31 93  1  0
 32 33  1  0
 32 34  1  0
 32 94  1  1
 33 95  1  0
 34 35  1  0
 34 36  1  0
 35 96  1  0
 35 97  1  0
 35 98  1  0
 36 99  1  0
 36100  1  0
 36101  1  0
 37 38  1  0
 37102  1  0
 37103  1  0
 38 39  1  1
 38 40  1  0
 38 44  1  0
 39104  1  0
 40 41  1  0
 40105  1  0
 40106  1  0
 41 42  1  0
 41 43  1  0
 41107  1  1
 42108  1  0
 43109  1  6
 44 45  1  0
 44110  1  1
 45 46  1  0
 45111  1  0
 45112  1  0
 46 47  1  0
 47 48  1  0
 47113  1  1
 48114  1  6
M  END
>  <i_m_ct_stereo_status>  (183) 
1

>  <s_m_source_file>  (183) 
/var/tmp/pbs.5076255.sched01/tmp378oxcv0/78pm6kuo1p.sdf

>  <i_m_source_file_index>  (183) 
8

>  <i_lp_mmshare_version>  (183) 
48012

>  <i_f3d_flags>  (183) 
0

>  <s_epik_input>  (183) 
W0NIMl0xW0NIMl1bQ0gyXUMoW0NIM10pKFtDSDNdKVtDQEBIXShbQ0gyXVtDQEhdMltPSF0pW0NAQF0xKFtDSDNdKVtDQEhdKFtDQF0yMzQpW0NASF0oW09IXSlbQ0gyXVtDQF01KFtPSF0pW0NASF00W0NIMl1PW0NASF02W0NASF03W0NAXShPMykoW0NIM10pW0NAQF04KFtDSDNdKVtDQF0oW0NIM10pKFtDQEBIXTZbQ0BASF03W0NIMl04KVtDSDJdW0NAQEhdKFtPSF0pW0NAQEhdOVtDQF0oW0NIM10pKFtDSDJdNSlbQ0gyXVtDSDJdW0NAQEhdKFtPSF0pQzkoW0NIM10pW0NIM10=

>  <s_epik_cmdline>  (183) 
J2VwaWtfcHl0aG9uJywgJy1waHQnLCAnMi4wJywgJy1waCcsICc3LjAnLCAnLXRuJywgJzgnLCAnLW1hJywgJzIwMCcsICctaW1hZScsICc8aW5maWxlLm1hZT4nLCAnLW9tYWUnLCAnPG91dGZpbGUubWFlPic=

>  <r_lp_tautomer_probability>  (183) 
1

>  <r_epik_Ionization_Penalty>  (183) 
5.17653e-06

>  <r_epik_Ionization_Penalty_Charging>  (183) 
0

>  <r_epik_Ionization_Penalty_Neutral>  (183) 
5.17653e-06

>  <r_epik_State_Penalty>  (183) 
-0

>  <r_epik_Charging_Adjusted_Penalty>  (183) 
0

>  <i_epik_Tot_Q>  (183) 
0

>  <i_epik_Tot_abs_Q>  (183) 
0

>  <s_lp_Force_Field>  (183) 
OPLS3e

>  <r_lp_Energy>  (183) 
282.296

>  <b_lp_Chiralities_Consistent>  (183) 
1

>  <s_lp_Variant>  (183) 
58:0-1

>  <s_i_glide_gridfile>  (183) 
pfpi4k_grid

>  <i_i_glide_lignum>  (183) 
8

>  <i_i_glide_rotatable_bonds>  (183) 
5

>  <r_i_docking_score>  (183) 
-3.08664

>  <r_i_glide_ligand_efficiency>  (183) 
-0.064305

>  <r_i_glide_ligand_efficiency_sa>  (183) 
-0.2337

>  <r_i_glide_ligand_efficiency_ln>  (183) 
-0.633651

>  <r_i_glide_gscore>  (183) 
-3.08664

>  <r_i_glide_lipo>  (183) 
-0.326084

>  <r_i_glide_hbond>  (183) 
-0.0883209

>  <r_i_glide_metal>  (183) 
-0

>  <r_i_glide_rewards>  (183) 
-1

>  <r_i_glide_evdw>  (183) 
-31.3217

>  <r_i_glide_ecoul>  (183) 
-0.707657

>  <r_i_glide_erotb>  (183) 
0

>  <r_i_glide_esite>  (183) 
0

>  <r_i_glide_emodel>  (183) 
-48.2529

>  <r_i_glide_energy>  (183) 
-32.0294

>  <r_i_glide_einternal>  (183) 
0.883695

>  <r_i_glide_intrahb_reward>  (183) 
-1

>  <i_i_glide_confnum>  (183) 
2

>  <i_i_glide_posenum>  (183) 
12

>  <r_i_glide_eff_state_penalty>  (183) 
0

>  <ligand_id>  (183) 
58

>  <original_smiles>  (183) 
CC1(C)CCCC2(C)C1CC(O)C13OC4(C)C5C6CC4(C)C4(C)CC(O)C7C(C)(CCC(O)C7(C)C)CC(O)(CC(O)C21)C3COC5C64

>  <smiles>  (183) 
[H]OC1([H])C([H])([H])C2(C([H])([H])[H])C3([H])C4([H])OC([H])([H])C5([H])C(O[H])(C([H])([H])C([H])(O[H])C6([H])C5(OC5(C([H])([H])[H])C4([H])C3([H])C([H])([H])C52C([H])([H])[H])C([H])(O[H])C([H])([H])C2([H])C(C([H])([H])[H])(C([H])([H])[H])C([H])([H])C([H])([H])C([H])([H])C62C([H])([H])[H])C([H])([H])C2(C([H])([H])[H])C([H])([H])C([H])([H])C([H])(O[H])C(C([H])([H])[H])(C([H])([H])[H])C12[H]

$$$$
59:0:0
     RDKit          3D

 38 41  0  0  1  0  0  0  0  0999 V2000
    4.2607   -5.3510    2.8975 C   0  0  0  0  0  0  0  0  0  0  0  0
    3.6888   -4.8995    1.7745 C   0  0  0  0  0  0  0  0  0  0  0  0
    2.3539   -5.2925    1.3256 C   0  0  0  0  0  0  0  0  0  0  0  0
    1.4798   -5.8471    1.9889 O   0  0  0  0  0  0  0  0  0  0  0  0
    2.2239   -4.8803    0.0673 O   0  0  0  0  0  0  0  0  0  0  0  0
    3.3691   -4.2790   -0.5038 C   0  0  2  0  0  0  0  0  0  0  0  0
    4.2949   -4.0555    0.6841 C   0  0  1  0  0  0  0  0  0  0  0  0
    4.3708   -2.5768    1.1131 C   0  0  0  0  0  0  0  0  0  0  0  0
    4.6767   -1.5957   -0.0527 C   0  0  1  0  0  0  0  0  0  0  0  0
    6.1448   -1.2778   -0.3273 C   0  0  1  0  0  0  0  0  0  0  0  0
    7.2012   -1.5098    0.7248 C   0  0  0  0  0  0  0  0  0  0  0  0
    8.1110   -2.3971    0.3123 C   0  0  0  0  0  0  0  0  0  0  0  0
    7.6668   -3.0018   -0.9171 C   0  0  0  0  0  0  0  0  0  0  0  0
    6.5723   -2.3271   -1.2843 C   0  0  0  0  0  0  0  0  0  0  0  0
    5.4664   -2.6070   -2.2350 C   0  0  1  0  0  0  0  0  0  0  0  0
    5.4425   -3.9084   -2.7225 O   0  0  0  0  0  0  0  0  0  0  0  0
    4.1936   -2.0772   -1.4828 C   0  0  2  0  0  0  0  0  0  0  0  0
    3.7159   -0.8932   -2.3516 C   0  0  0  0  0  0  0  0  0  0  0  0
    3.0112   -3.0427   -1.3162 C   0  0  1  0  0  0  0  0  0  0  0  0
    2.5463   -3.4031   -2.6015 O   0  0  0  0  0  0  0  0  0  0  0  0
    5.2755   -5.0839    3.1666 H   0  0  0  0  0  0  0  0  0  0  0  0
    3.7132   -6.0039    3.5699 H   0  0  0  0  0  0  0  0  0  0  0  0
    3.8669   -5.0091   -1.1177 H   0  0  0  0  0  0  0  0  0  0  0  0
    5.2901   -4.4449    0.4666 H   0  0  0  0  0  0  0  0  0  0  0  0
    3.4143   -2.2907    1.5538 H   0  0  0  0  0  0  0  0  0  0  0  0
    5.0993   -2.4925    1.9280 H   0  0  0  0  0  0  0  0  0  0  0  0
    4.2035   -0.6489    0.2236 H   0  0  0  0  0  0  0  0  0  0  0  0
    6.1803   -0.2804   -0.7540 H   0  0  0  0  0  0  0  0  0  0  0  0
    7.3229   -0.8452    1.5747 H   0  0  0  0  0  0  0  0  0  0  0  0
    9.0349   -2.6151    0.8290 H   0  0  0  0  0  0  0  0  0  0  0  0
    8.0861   -3.8762   -1.3643 H   0  0  0  0  0  0  0  0  0  0  0  0
    5.6762   -1.9927   -3.1001 H   0  0  0  0  0  0  0  0  0  0  0  0
    4.8570   -4.4438   -2.2187 H   0  0  0  0  0  0  0  0  0  0  0  0
    3.5294   -1.1755   -3.3974 H   0  0  0  0  0  0  0  0  0  0  0  0
    4.4320   -0.0574   -2.3546 H   0  0  0  0  0  0  0  0  0  0  0  0
    2.7451   -0.5818   -1.9738 H   0  0  0  0  0  0  0  0  0  0  0  0
    2.2365   -2.5096   -0.7798 H   0  0  0  0  0  0  0  0  0  0  0  0
    2.5737   -4.3498   -2.7112 H   0  0  0  0  0  0  0  0  0  0  0  0
  1  2  2  0
  1 21  1  0
  1 22  1  0
  2  7  1  0
  2  3  1  0
  3  4  2  0
  3  5  1  0
  5  6  1  0
  6 19  1  0
  6  7  1  0
  6 23  1  6
  7  8  1  0
  7 24  1  6
  8  9  1  0
  8 25  1  0
  8 26  1  0
  9 17  1  0
  9 10  1  0
  9 27  1  1
 10 14  1  0
 10 11  1  0
 10 28  1  6
 11 12  2  0
 11 29  1  0
 12 13  1  0
 12 30  1  0
 13 14  2  0
 13 31  1  0
 14 15  1  0
 15 16  1  0
 15 17  1  0
 15 32  1  6
 16 33  1  0
 17 18  1  6
 17 19  1  0
 18 34  1  0
 18 35  1  0
 18 36  1  0
 19 20  1  0
 19 37  1  1
 20 38  1  0
M  END
>  <i_m_ct_stereo_status>  (184) 
1

>  <s_m_source_file>  (184) 
/var/tmp/pbs.5076255.sched01/tmp378oxcv0/78pm6kuo1p.sdf

>  <i_m_source_file_index>  (184) 
9

>  <i_lp_mmshare_version>  (184) 
48012

>  <i_f3d_flags>  (184) 
0

>  <s_epik_input>  (184) 
W0NIMl09QzFDKD1PKU9bQ0BASF0oW0NAQEhdMltPSF0pW0NASF0xW0NIMl1bQ0BIXShbQ0BdMjNbQ0gzXSlbQ0BASF00QyhbQ0BIXTNbT0hdKT1bQ0hdW0NIXT1bQ0hdNA==

>  <s_epik_cmdline>  (184) 
J2VwaWtfcHl0aG9uJywgJy1waHQnLCAnMi4wJywgJy1waCcsICc3LjAnLCAnLXRuJywgJzgnLCAnLW1hJywgJzIwMCcsICctaW1hZScsICc8aW5maWxlLm1hZT4nLCAnLW9tYWUnLCAnPG91dGZpbGUubWFlPic=

>  <r_lp_tautomer_probability>  (184) 
1

>  <r_epik_Ionization_Penalty>  (184) 
2.0553e-06

>  <r_epik_Ionization_Penalty_Charging>  (184) 
0

>  <r_epik_Ionization_Penalty_Neutral>  (184) 
2.0553e-06

>  <r_epik_State_Penalty>  (184) 
-0

>  <r_epik_Charging_Adjusted_Penalty>  (184) 
0

>  <i_epik_Tot_Q>  (184) 
0

>  <i_epik_Tot_abs_Q>  (184) 
0

>  <s_epik_Chemistry_Notes>  (184) 
This compound has an ester and may undergo hydrolysis at high or low pH.

>  <s_lp_Force_Field>  (184) 
OPLS3e

>  <r_lp_Energy>  (184) 
18.1326

>  <b_lp_Chiralities_Consistent>  (184) 
1

>  <s_lp_Variant>  (184) 
59:0-1

>  <s_i_glide_gridfile>  (184) 
pfpi4k_grid

>  <i_i_glide_lignum>  (184) 
9

>  <i_i_glide_rotatable_bonds>  (184) 
2

>  <r_i_docking_score>  (184) 
-3.94196

>  <r_i_glide_ligand_efficiency>  (184) 
-0.197098

>  <r_i_glide_ligand_efficiency_sa>  (184) 
-0.535006

>  <r_i_glide_ligand_efficiency_ln>  (184) 
-0.986542

>  <r_i_glide_gscore>  (184) 
-3.94196

>  <r_i_glide_lipo>  (184) 
-0.322335

>  <r_i_glide_hbond>  (184) 
-0.0362519

>  <r_i_glide_metal>  (184) 
-0

>  <r_i_glide_rewards>  (184) 
-1.53878

>  <r_i_glide_evdw>  (184) 
-18.0511

>  <r_i_glide_ecoul>  (184) 
-7.39596

>  <r_i_glide_erotb>  (184) 
0

>  <r_i_glide_esite>  (184) 
-0.0326401

>  <r_i_glide_emodel>  (184) 
-29.1958

>  <r_i_glide_energy>  (184) 
-25.4471

>  <r_i_glide_einternal>  (184) 
1.65616

>  <r_i_glide_intrahb_reward>  (184) 
-0

>  <i_i_glide_confnum>  (184) 
1

>  <i_i_glide_posenum>  (184) 
16

>  <r_i_glide_eff_state_penalty>  (184) 
0

>  <ligand_id>  (184) 
59

>  <original_smiles>  (184) 
C=C1C(=O)OC2C1CC1C3C=CC=C3C(O)C1(C)C2O

>  <smiles>  (184) 
[H]OC1([H])C2=C([H])C([H])=C([H])C2([H])C2([H])C([H])([H])C3([H])C(=C([H])[H])C(=O)OC3([H])C([H])(O[H])C12C([H])([H])[H]

$$$$
59:0:1
     RDKit          3D

 38 41  0  0  1  0  0  0  0  0999 V2000
    4.8225   -5.4243    3.2708 C   0  0  0  0  0  0  0  0  0  0  0  0
    4.0633   -5.0335    2.2190 C   0  0  0  0  0  0  0  0  0  0  0  0
    2.6862   -5.4541    2.0081 C   0  0  0  0  0  0  0  0  0  0  0  0
    1.9507   -6.0222    2.8261 O   0  0  0  0  0  0  0  0  0  0  0  0
    2.3338   -5.0933    0.7793 O   0  0  0  0  0  0  0  0  0  0  0  0
    3.3811   -4.5441   -0.0150 C   0  0  2  0  0  0  0  0  0  0  0  0
    4.4926   -4.2423    1.0122 C   0  0  1  0  0  0  0  0  0  0  0  0
    4.6241   -2.7416    1.3561 C   0  0  0  0  0  0  0  0  0  0  0  0
    4.7545   -1.7880    0.1294 C   0  0  1  0  0  0  0  0  0  0  0  0
    6.1563   -1.4451   -0.3883 C   0  0  1  0  0  0  0  0  0  0  0  0
    7.3514   -1.5747    0.5152 C   0  0  0  0  0  0  0  0  0  0  0  0
    8.2310   -2.4733    0.0264 C   0  0  0  0  0  0  0  0  0  0  0  0
    7.6432   -3.1216   -1.0937 C   0  0  0  0  0  0  0  0  0  0  0  0
    6.4771   -2.5158   -1.3362 C   0  0  0  0  0  0  0  0  0  0  0  0
    5.2550   -2.8883   -2.0974 C   0  0  1  0  0  0  0  0  0  0  0  0
    5.2082   -4.2577   -2.3268 O   0  0  0  0  0  0  0  0  0  0  0  0
    4.0676   -2.3463   -1.1921 C   0  0  2  0  0  0  0  0  0  0  0  0
    3.4687   -1.1488   -1.9673 C   0  0  0  0  0  0  0  0  0  0  0  0
    2.9119   -3.3155   -0.8036 C   0  0  1  0  0  0  0  0  0  0  0  0
    2.1579   -3.7025   -1.9257 O   0  0  0  0  0  0  0  0  0  0  0  0
    5.8548   -5.1351    3.3667 H   0  0  0  0  0  0  0  0  0  0  0  0
    4.3888   -6.0462    4.0374 H   0  0  0  0  0  0  0  0  0  0  0  0
    3.7347   -5.3348   -0.6703 H   0  0  0  0  0  0  0  0  0  0  0  0
    5.4580   -4.6297    0.6810 H   0  0  0  0  0  0  0  0  0  0  0  0
    3.7436   -2.4462    1.9172 H   0  0  0  0  0  0  0  0  0  0  0  0
    5.4427   -2.6192    2.0603 H   0  0  0  0  0  0  0  0  0  0  0  0
    4.3042   -0.8329    0.4462 H   0  0  0  0  0  0  0  0  0  0  0  0
    6.1614   -0.5103   -0.9037 H   0  0  0  0  0  0  0  0  0  0  0  0
    7.5631   -0.9007    1.3519 H   0  0  0  0  0  0  0  0  0  0  0  0
    9.1989   -2.6661    0.4589 H   0  0  0  0  0  0  0  0  0  0  0  0
    8.0730   -4.0135   -1.5148 H   0  0  0  0  0  0  0  0  0  0  0  0
    5.3083   -2.3140   -3.0365 H   0  0  0  0  0  0  0  0  0  0  0  0
    4.3021   -4.5115   -2.4398 H   0  0  0  0  0  0  0  0  0  0  0  0
    3.0329   -1.4820   -2.9132 H   0  0  0  0  0  0  0  0  0  0  0  0
    4.2169   -0.3739   -2.1782 H   0  0  0  0  0  0  0  0  0  0  0  0
    2.6726   -0.6822   -1.3870 H   0  0  0  0  0  0  0  0  0  0  0  0
    2.2507   -2.7411   -0.1629 H   0  0  0  0  0  0  0  0  0  0  0  0
    2.4068   -4.5676   -2.2380 H   0  0  0  0  0  0  0  0  0  0  0  0
  1  2  2  0
  1 21  1  0
  1 22  1  0
  2  7  1  0
  2  3  1  0
  3  4  2  0
  3  5  1  0
  5  6  1  0
  6 19  1  0
  6  7  1  0
  6 23  1  6
  7  8  1  0
  7 24  1  6
  8  9  1  0
  8 25  1  0
  8 26  1  0
  9 17  1  0
  9 10  1  0
  9 27  1  1
 10 14  1  0
 10 11  1  0
 10 28  1  6
 11 12  2  0
 11 29  1  0
 12 13  1  0
 12 30  1  0
 13 14  2  0
 13 31  1  0
 14 15  1  0
 15 16  1  0
 15 17  1  0
 15 32  1  6
 16 33  1  0
 17 18  1  6
 17 19  1  0
 18 34  1  0
 18 35  1  0
 18 36  1  0
 19 20  1  0
 19 37  1  1
 20 38  1  0
M  END
>  <i_m_ct_stereo_status>  (185) 
1

>  <s_m_source_file>  (185) 
/var/tmp/pbs.5076255.sched01/tmp378oxcv0/78pm6kuo1p.sdf

>  <i_m_source_file_index>  (185) 
9

>  <i_lp_mmshare_version>  (185) 
48012

>  <i_f3d_flags>  (185) 
0

>  <s_epik_input>  (185) 
W0NIMl09QzFDKD1PKU9bQ0BASF0oW0NAQEhdMltPSF0pW0NASF0xW0NIMl1bQ0BIXShbQ0BdMjNbQ0gzXSlbQ0BASF00QyhbQ0BIXTNbT0hdKT1bQ0hdW0NIXT1bQ0hdNA==

>  <s_epik_cmdline>  (185) 
J2VwaWtfcHl0aG9uJywgJy1waHQnLCAnMi4wJywgJy1waCcsICc3LjAnLCAnLXRuJywgJzgnLCAnLW1hJywgJzIwMCcsICctaW1hZScsICc8aW5maWxlLm1hZT4nLCAnLW9tYWUnLCAnPG91dGZpbGUubWFlPic=

>  <r_lp_tautomer_probability>  (185) 
1

>  <r_epik_Ionization_Penalty>  (185) 
2.0553e-06

>  <r_epik_Ionization_Penalty_Charging>  (185) 
0

>  <r_epik_Ionization_Penalty_Neutral>  (185) 
2.0553e-06

>  <r_epik_State_Penalty>  (185) 
-0

>  <r_epik_Charging_Adjusted_Penalty>  (185) 
0

>  <i_epik_Tot_Q>  (185) 
0

>  <i_epik_Tot_abs_Q>  (185) 
0

>  <s_epik_Chemistry_Notes>  (185) 
This compound has an ester and may undergo hydrolysis at high or low pH.

>  <s_lp_Force_Field>  (185) 
OPLS3e

>  <r_lp_Energy>  (185) 
18.1326

>  <b_lp_Chiralities_Consistent>  (185) 
1

>  <s_lp_Variant>  (185) 
59:0-1

>  <s_i_glide_gridfile>  (185) 
pfpi4k_grid

>  <i_i_glide_lignum>  (185) 
9

>  <i_i_glide_rotatable_bonds>  (185) 
2

>  <r_i_docking_score>  (185) 
-3.74335

>  <r_i_glide_ligand_efficiency>  (185) 
-0.187168

>  <r_i_glide_ligand_efficiency_sa>  (185) 
-0.508051

>  <r_i_glide_ligand_efficiency_ln>  (185) 
-0.936838

>  <r_i_glide_gscore>  (185) 
-3.74335

>  <r_i_glide_lipo>  (185) 
-0.239314

>  <r_i_glide_hbond>  (185) 
-0.00026154

>  <r_i_glide_metal>  (185) 
-0

>  <r_i_glide_rewards>  (185) 
-1.53878

>  <r_i_glide_evdw>  (185) 
-16.322

>  <r_i_glide_ecoul>  (185) 
-7.59203

>  <r_i_glide_erotb>  (185) 
0

>  <r_i_glide_esite>  (185) 
-0.0100896

>  <r_i_glide_emodel>  (185) 
-27.3503

>  <r_i_glide_energy>  (185) 
-23.914

>  <r_i_glide_einternal>  (185) 
1.55566

>  <r_i_glide_intrahb_reward>  (185) 
-0

>  <i_i_glide_confnum>  (185) 
1

>  <i_i_glide_posenum>  (185) 
29

>  <r_i_glide_eff_state_penalty>  (185) 
0

>  <ligand_id>  (185) 
59

>  <original_smiles>  (185) 
C=C1C(=O)OC2C1CC1C3C=CC=C3C(O)C1(C)C2O

>  <smiles>  (185) 
[H]OC1([H])C2=C([H])C([H])=C([H])C2([H])C2([H])C([H])([H])C3([H])C(=C([H])[H])C(=O)OC3([H])C([H])(O[H])C12C([H])([H])[H]

$$$$
59:0:2
     RDKit          3D

 38 41  0  0  1  0  0  0  0  0999 V2000
    4.1163   -5.3349    2.9202 C   0  0  0  0  0  0  0  0  0  0  0  0
    3.5908   -4.8932    1.7618 C   0  0  0  0  0  0  0  0  0  0  0  0
    2.2644   -5.2812    1.2814 C   0  0  0  0  0  0  0  0  0  0  0  0
    1.3967   -5.8643    1.9045 O   0  0  0  0  0  0  0  0  0  0  0  0
    2.1580   -4.8640    0.0249 O   0  0  0  0  0  0  0  0  0  0  0  0
    3.3394   -4.2719   -0.4973 C   0  0  2  0  0  0  0  0  0  0  0  0
    4.2399   -4.0482    0.7130 C   0  0  1  0  0  0  0  0  0  0  0  0
    4.3233   -2.5743    1.1105 C   0  0  0  0  0  0  0  0  0  0  0  0
    4.6628   -1.6048   -0.0557 C   0  0  1  0  0  0  0  0  0  0  0  0
    6.1503   -1.3100   -0.2651 C   0  0  1  0  0  0  0  0  0  0  0  0
    7.1966   -1.5264    0.7979 C   0  0  0  0  0  0  0  0  0  0  0  0
    8.0854   -2.4653    0.4176 C   0  0  0  0  0  0  0  0  0  0  0  0
    7.6712   -3.0580   -0.8205 C   0  0  0  0  0  0  0  0  0  0  0  0
    6.5776   -2.3625   -1.2266 C   0  0  0  0  0  0  0  0  0  0  0  0
    5.4948   -2.6184   -2.2085 C   0  0  1  0  0  0  0  0  0  0  0  0
    5.4125   -3.9546   -2.5730 O   0  0  0  0  0  0  0  0  0  0  0  0
    4.2183   -2.0669   -1.4918 C   0  0  2  0  0  0  0  0  0  0  0  0
    3.7888   -0.8801   -2.3674 C   0  0  0  0  0  0  0  0  0  0  0  0
    3.0122   -3.0239   -1.3497 C   0  0  1  0  0  0  0  0  0  0  0  0
    2.5336   -3.4536   -2.6327 O   0  0  0  0  0  0  0  0  0  0  0  0
    5.1268   -5.0776    3.2190 H   0  0  0  0  0  0  0  0  0  0  0  0
    3.5456   -5.9805    3.5746 H   0  0  0  0  0  0  0  0  0  0  0  0
    3.8589   -5.0267   -1.0999 H   0  0  0  0  0  0  0  0  0  0  0  0
    5.2277   -4.4502    0.5085 H   0  0  0  0  0  0  0  0  0  0  0  0
    3.3575   -2.2715    1.5182 H   0  0  0  0  0  0  0  0  0  0  0  0
    5.0191   -2.4929    1.9508 H   0  0  0  0  0  0  0  0  0  0  0  0
    4.2121   -0.6492    0.2103 H   0  0  0  0  0  0  0  0  0  0  0  0
    6.1758   -0.2989   -0.6967 H   0  0  0  0  0  0  0  0  0  0  0  0
    7.2701   -0.9025    1.6621 H   0  0  0  0  0  0  0  0  0  0  0  0
    9.0037   -2.6844    0.9158 H   0  0  0  0  0  0  0  0  0  0  0  0
    8.0831   -3.9615   -1.2197 H   0  0  0  0  0  0  0  0  0  0  0  0
    5.7586   -2.0327   -3.0888 H   0  0  0  0  0  0  0  0  0  0  0  0
    6.2019   -4.1590   -3.0499 H   0  0  0  0  0  0  0  0  0  0  0  0
    3.6304   -1.1862   -3.4149 H   0  0  0  0  0  0  0  0  0  0  0  0
    4.5279   -0.0660   -2.3641 H   0  0  0  0  0  0  0  0  0  0  0  0
    2.8191   -0.5403   -2.0045 H   0  0  0  0  0  0  0  0  0  0  0  0
    2.2313   -2.4793   -0.8472 H   0  0  0  0  0  0  0  0  0  0  0  0
    2.6588   -4.3895   -2.7364 H   0  0  0  0  0  0  0  0  0  0  0  0
  1  2  2  0
  1 21  1  0
  1 22  1  0
  2  7  1  0
  2  3  1  0
  3  4  2  0
  3  5  1  0
  5  6  1  0
  6 19  1  0
  6  7  1  0
  6 23  1  6
  7  8  1  0
  7 24  1  6
  8  9  1  0
  8 25  1  0
  8 26  1  0
  9 17  1  0
  9 10  1  0
  9 27  1  1
 10 14  1  0
 10 11  1  0
 10 28  1  6
 11 12  2  0
 11 29  1  0
 12 13  1  0
 12 30  1  0
 13 14  2  0
 13 31  1  0
 14 15  1  0
 15 16  1  0
 15 17  1  0
 15 32  1  6
 16 33  1  0
 17 18  1  6
 17 19  1  0
 18 34  1  0
 18 35  1  0
 18 36  1  0
 19 20  1  0
 19 37  1  1
 20 38  1  0
M  END
>  <i_m_ct_stereo_status>  (186) 
1

>  <s_m_source_file>  (186) 
/var/tmp/pbs.5076255.sched01/tmp378oxcv0/78pm6kuo1p.sdf

>  <i_m_source_file_index>  (186) 
9

>  <i_lp_mmshare_version>  (186) 
48012

>  <i_f3d_flags>  (186) 
0

>  <s_epik_input>  (186) 
W0NIMl09QzFDKD1PKU9bQ0BASF0oW0NAQEhdMltPSF0pW0NASF0xW0NIMl1bQ0BIXShbQ0BdMjNbQ0gzXSlbQ0BASF00QyhbQ0BIXTNbT0hdKT1bQ0hdW0NIXT1bQ0hdNA==

>  <s_epik_cmdline>  (186) 
J2VwaWtfcHl0aG9uJywgJy1waHQnLCAnMi4wJywgJy1waCcsICc3LjAnLCAnLXRuJywgJzgnLCAnLW1hJywgJzIwMCcsICctaW1hZScsICc8aW5maWxlLm1hZT4nLCAnLW9tYWUnLCAnPG91dGZpbGUubWFlPic=

>  <r_lp_tautomer_probability>  (186) 
1

>  <r_epik_Ionization_Penalty>  (186) 
2.0553e-06

>  <r_epik_Ionization_Penalty_Charging>  (186) 
0

>  <r_epik_Ionization_Penalty_Neutral>  (186) 
2.0553e-06

>  <r_epik_State_Penalty>  (186) 
-0

>  <r_epik_Charging_Adjusted_Penalty>  (186) 
0

>  <i_epik_Tot_Q>  (186) 
0

>  <i_epik_Tot_abs_Q>  (186) 
0

>  <s_epik_Chemistry_Notes>  (186) 
This compound has an ester and may undergo hydrolysis at high or low pH.

>  <s_lp_Force_Field>  (186) 
OPLS3e

>  <r_lp_Energy>  (186) 
18.1326

>  <b_lp_Chiralities_Consistent>  (186) 
1

>  <s_lp_Variant>  (186) 
59:0-1

>  <s_i_glide_gridfile>  (186) 
pfpi4k_grid

>  <i_i_glide_lignum>  (186) 
9

>  <i_i_glide_rotatable_bonds>  (186) 
2

>  <r_i_docking_score>  (186) 
-3.67009

>  <r_i_glide_ligand_efficiency>  (186) 
-0.183505

>  <r_i_glide_ligand_efficiency_sa>  (186) 
-0.498108

>  <r_i_glide_ligand_efficiency_ln>  (186) 
-0.918503

>  <r_i_glide_gscore>  (186) 
-3.67009

>  <r_i_glide_lipo>  (186) 
-0.36586

>  <r_i_glide_hbond>  (186) 
-0.0702558

>  <r_i_glide_metal>  (186) 
-0

>  <r_i_glide_rewards>  (186) 
-1.53878

>  <r_i_glide_evdw>  (186) 
-16.9054

>  <r_i_glide_ecoul>  (186) 
-5.41622

>  <r_i_glide_erotb>  (186) 
0

>  <r_i_glide_esite>  (186) 
-0.0374902

>  <r_i_glide_emodel>  (186) 
-25.7436

>  <r_i_glide_energy>  (186) 
-22.3216

>  <r_i_glide_einternal>  (186) 
1.74235

>  <r_i_glide_intrahb_reward>  (186) 
-0

>  <i_i_glide_confnum>  (186) 
2

>  <i_i_glide_posenum>  (186) 
31

>  <r_i_glide_eff_state_penalty>  (186) 
0

>  <ligand_id>  (186) 
59

>  <original_smiles>  (186) 
C=C1C(=O)OC2C1CC1C3C=CC=C3C(O)C1(C)C2O

>  <smiles>  (186) 
[H]OC1([H])C2=C([H])C([H])=C([H])C2([H])C2([H])C([H])([H])C3([H])C(=C([H])[H])C(=O)OC3([H])C([H])(O[H])C12C([H])([H])[H]

$$$$
61:0:0
     RDKit          3D

 33 34  0  0  1  0  0  0  0  0999 V2000
    4.3651   -6.9355    0.9552 C   0  0  0  0  0  0  0  0  0  0  0  0
    4.0950   -5.6699    0.3143 N   0  0  0  0  0  0  0  0  0  0  0  0
    2.9678   -4.9510    0.4371 C   0  0  0  0  0  0  0  0  0  0  0  0
    1.9459   -5.3888    0.9815 O   0  0  0  0  0  0  0  0  0  0  0  0
    3.0353   -3.5114   -0.1382 C   0  0  2  0  0  0  0  0  0  0  0  0
    3.0896   -3.6207   -1.7036 C   0  0  0  0  0  0  0  0  0  0  0  0
    3.3565   -2.3541   -2.4082 C   0  0  0  0  0  0  0  0  0  0  0  0
    3.2448   -2.1855   -3.7195 N   0  0  0  0  0  0  0  0  0  0  0  0
    3.6162   -0.9032   -3.8946 N   0  0  0  0  0  0  0  0  0  0  0  0
    3.5631   -0.2953   -5.2053 C   0  0  0  0  0  0  0  0  0  0  0  0
    4.0258   -0.3245   -2.7258 C   0  0  0  0  0  0  0  0  0  0  0  0
    3.8914   -1.2542   -1.7261 C   0  0  0  0  0  0  0  0  0  0  0  0
    4.1753   -1.2373   -0.2519 C   0  0  0  0  0  0  0  0  0  0  0  0
    4.0808   -2.5682    0.4108 N   0  0  0  0  0  0  0  0  0  0  0  0
    4.7159   -2.7445    1.6109 C   0  0  0  0  0  0  0  0  0  0  0  0
    5.8948   -1.8395    1.9821 C   0  0  0  0  0  0  0  0  0  0  0  0
    4.4405   -3.6143    2.4340 O   0  0  0  0  0  0  0  0  0  0  0  0
    5.4259   -7.1675    0.8611 H   0  0  0  0  0  0  0  0  0  0  0  0
    3.7856   -7.7422    0.5092 H   0  0  0  0  0  0  0  0  0  0  0  0
    4.1369   -6.8593    2.0174 H   0  0  0  0  0  0  0  0  0  0  0  0
    4.8494   -5.2180   -0.1651 H   0  0  0  0  0  0  0  0  0  0  0  0
    2.0862   -3.0421    0.0729 H   0  0  0  0  0  0  0  0  0  0  0  0
    3.9420   -4.2325   -1.9767 H   0  0  0  0  0  0  0  0  0  0  0  0
    2.1779   -4.0719   -2.1026 H   0  0  0  0  0  0  0  0  0  0  0  0
    3.9815    0.7171   -5.1674 H   0  0  0  0  0  0  0  0  0  0  0  0
    2.5349   -0.2306   -5.5666 H   0  0  0  0  0  0  0  0  0  0  0  0
    4.1546   -0.9013   -5.8814 H   0  0  0  0  0  0  0  0  0  0  0  0
    4.3434    0.7050   -2.7117 H   0  0  0  0  0  0  0  0  0  0  0  0
    5.1510   -0.7652   -0.1360 H   0  0  0  0  0  0  0  0  0  0  0  0
    3.4748   -0.5770    0.2585 H   0  0  0  0  0  0  0  0  0  0  0  0
    6.7123   -2.0094    1.2764 H   0  0  0  0  0  0  0  0  0  0  0  0
    6.2221   -2.1400    2.9698 H   0  0  0  0  0  0  0  0  0  0  0  0
    5.6156   -0.7821    2.0448 H   0  0  0  0  0  0  0  0  0  0  0  0
  1  2  1  0
  1 18  1  0
  1 19  1  0
  1 20  1  0
  2  3  1  0
  2 21  1  0
  3  4  2  0
  3  5  1  0
  5 14  1  0
  5  6  1  0
  5 22  1  6
  6  7  1  0
  6 23  1  0
  6 24  1  0
  7 12  1  0
  7  8  2  0
  8  9  1  0
  9 10  1  0
  9 11  1  0
 10 25  1  0
 10 26  1  0
 10 27  1  0
 11 12  2  0
 11 28  1  0
 12 13  1  0
 13 14  1  0
 13 29  1  0
 13 30  1  0
 14 15  1  0
 15 16  1  0
 15 17  2  0
 16 31  1  0
 16 32  1  0
 16 33  1  0
M  END
>  <i_m_ct_stereo_status>  (187) 
1

>  <s_m_source_file>  (187) 
/var/tmp/pbs.5076255.sched01/tmp378oxcv0/78pm6kuo1p.sdf

>  <i_m_source_file_index>  (187) 
11

>  <i_lp_mmshare_version>  (187) 
48012

>  <i_f3d_flags>  (187) 
0

>  <s_epik_input>  (187) 
W0NIM11bTkhdQyg9TylbQ0BIXShbQ0gyXTEpTihDKD1PKVtDSDNdKVtDSDJdYyhjMTIpW2NIXW4objIpW0NIM10=

>  <s_epik_cmdline>  (187) 
J2VwaWtfcHl0aG9uJywgJy1waHQnLCAnMi4wJywgJy1waCcsICc3LjAnLCAnLXRuJywgJzgnLCAnLW1hJywgJzIwMCcsICctaW1hZScsICc8aW5maWxlLm1hZT4nLCAnLW9tYWUnLCAnPG91dGZpbGUubWFlPic=

>  <r_lp_tautomer_probability>  (187) 
1

>  <r_epik_Ionization_Penalty>  (187) 
0.000632405

>  <r_epik_Ionization_Penalty_Charging>  (187) 
0

>  <r_epik_Ionization_Penalty_Neutral>  (187) 
0.000632405

>  <r_epik_State_Penalty>  (187) 
-0

>  <r_epik_Charging_Adjusted_Penalty>  (187) 
0

>  <i_epik_Tot_Q>  (187) 
0

>  <i_epik_Tot_abs_Q>  (187) 
0

>  <s_lp_Force_Field>  (187) 
OPLS3e

>  <r_lp_Energy>  (187) 
27.4737

>  <b_lp_Chiralities_Consistent>  (187) 
1

>  <s_lp_Variant>  (187) 
61:0-1

>  <s_i_glide_gridfile>  (187) 
pfpi4k_grid

>  <i_i_glide_lignum>  (187) 
11

>  <i_i_glide_rotatable_bonds>  (187) 
3

>  <r_i_docking_score>  (187) 
-3.93395

>  <r_i_glide_ligand_efficiency>  (187) 
-0.231409

>  <r_i_glide_ligand_efficiency_sa>  (187) 
-0.595018

>  <r_i_glide_ligand_efficiency_ln>  (187) 
-1.02628

>  <r_i_glide_gscore>  (187) 
-3.93395

>  <r_i_glide_lipo>  (187) 
-0.567912

>  <r_i_glide_hbond>  (187) 
-0.0660067

>  <r_i_glide_metal>  (187) 
-0

>  <r_i_glide_rewards>  (187) 
-2.09219

>  <r_i_glide_evdw>  (187) 
-21.2752

>  <r_i_glide_ecoul>  (187) 
-2.79247

>  <r_i_glide_erotb>  (187) 
0.308367

>  <r_i_glide_esite>  (187) 
-0.0335813

>  <r_i_glide_emodel>  (187) 
-29.6532

>  <r_i_glide_energy>  (187) 
-24.0676

>  <r_i_glide_einternal>  (187) 
2.50788

>  <r_i_glide_intrahb_reward>  (187) 
-0

>  <i_i_glide_confnum>  (187) 
2

>  <i_i_glide_posenum>  (187) 
4

>  <r_i_glide_eff_state_penalty>  (187) 
0

>  <ligand_id>  (187) 
61

>  <original_smiles>  (187) 
CNC(=O)C1Cc2nn(C)cc2CN1C(C)=O

>  <smiles>  (187) 
[H]c1c2c(nn1C([H])([H])[H])C([H])([H])C([H])(C(=O)N([H])C([H])([H])[H])N(C(=O)C([H])([H])[H])C2([H])[H]

$$$$
61:0:1
     RDKit          3D

 33 34  0  0  1  0  0  0  0  0999 V2000
   -1.7237   -8.6067    2.3504 C   0  0  0  0  0  0  0  0  0  0  0  0
   -0.3733   -8.3457    2.8151 N   0  0  0  0  0  0  0  0  0  0  0  0
    0.3414   -7.2800    2.4287 C   0  0  0  0  0  0  0  0  0  0  0  0
   -0.1206   -6.4156    1.6821 O   0  0  0  0  0  0  0  0  0  0  0  0
    1.7798   -7.1848    2.9773 C   0  0  2  0  0  0  0  0  0  0  0  0
    1.9945   -5.8443    3.7476 C   0  0  0  0  0  0  0  0  0  0  0  0
    2.2327   -4.6919    2.8282 C   0  0  0  0  0  0  0  0  0  0  0  0
    2.0987   -3.4218    3.1767 N   0  0  0  0  0  0  0  0  0  0  0  0
    2.4119   -2.7466    2.0476 N   0  0  0  0  0  0  0  0  0  0  0  0
    2.3875   -1.2930    2.0505 C   0  0  0  0  0  0  0  0  0  0  0  0
    2.7218   -3.5985    1.0050 C   0  0  0  0  0  0  0  0  0  0  0  0
    2.6410   -4.8733    1.4910 C   0  0  0  0  0  0  0  0  0  0  0  0
    2.8627   -6.2272    0.8730 C   0  0  0  0  0  0  0  0  0  0  0  0
    2.7604   -7.3365    1.8612 N   0  0  0  0  0  0  0  0  0  0  0  0
    3.4294   -8.5000    1.6277 C   0  0  0  0  0  0  0  0  0  0  0  0
    3.1725   -9.7363    2.5006 C   0  0  0  0  0  0  0  0  0  0  0  0
    4.2218   -8.6236    0.6931 O   0  0  0  0  0  0  0  0  0  0  0  0
   -2.1542   -9.4353    2.9095 H   0  0  0  0  0  0  0  0  0  0  0  0
   -1.7098   -8.8681    1.2927 H   0  0  0  0  0  0  0  0  0  0  0  0
   -2.3538   -7.7274    2.4848 H   0  0  0  0  0  0  0  0  0  0  0  0
    0.0488   -9.0309    3.4254 H   0  0  0  0  0  0  0  0  0  0  0  0
    1.9064   -7.9515    3.7354 H   0  0  0  0  0  0  0  0  0  0  0  0
    1.1393   -5.6451    4.3973 H   0  0  0  0  0  0  0  0  0  0  0  0
    2.8517   -5.9441    4.4152 H   0  0  0  0  0  0  0  0  0  0  0  0
    2.6045   -0.9126    1.0492 H   0  0  0  0  0  0  0  0  0  0  0  0
    3.1438   -0.9103    2.7398 H   0  0  0  0  0  0  0  0  0  0  0  0
    1.4042   -0.9280    2.3546 H   0  0  0  0  0  0  0  0  0  0  0  0
    2.9677   -3.2289    0.0195 H   0  0  0  0  0  0  0  0  0  0  0  0
    2.1100   -6.4024    0.1074 H   0  0  0  0  0  0  0  0  0  0  0  0
    3.8146   -6.2366    0.3388 H   0  0  0  0  0  0  0  0  0  0  0  0
    3.5730   -9.5992    3.5024 H   0  0  0  0  0  0  0  0  0  0  0  0
    3.6581  -10.6157    2.0796 H   0  0  0  0  0  0  0  0  0  0  0  0
    2.1109   -9.9722    2.5677 H   0  0  0  0  0  0  0  0  0  0  0  0
  1  2  1  0
  1 18  1  0
  1 19  1  0
  1 20  1  0
  2  3  1  0
  2 21  1  0
  3  4  2  0
  3  5  1  0
  5 14  1  0
  5  6  1  0
  5 22  1  1
  6  7  1  0
  6 23  1  0
  6 24  1  0
  7 12  1  0
  7  8  2  0
  8  9  1  0
  9 10  1  0
  9 11  1  0
 10 25  1  0
 10 26  1  0
 10 27  1  0
 11 12  2  0
 11 28  1  0
 12 13  1  0
 13 14  1  0
 13 29  1  0
 13 30  1  0
 14 15  1  0
 15 16  1  0
 15 17  2  0
 16 31  1  0
 16 32  1  0
 16 33  1  0
M  END
>  <i_m_ct_stereo_status>  (188) 
1

>  <s_m_source_file>  (188) 
/var/tmp/pbs.5076255.sched01/tmp378oxcv0/78pm6kuo1p.sdf

>  <i_m_source_file_index>  (188) 
11

>  <i_lp_mmshare_version>  (188) 
48012

>  <i_f3d_flags>  (188) 
0

>  <s_epik_input>  (188) 
W0NIM11bTkhdQyg9TylbQ0BIXShbQ0gyXTEpTihDKD1PKVtDSDNdKVtDSDJdYyhjMTIpW2NIXW4objIpW0NIM10=

>  <s_epik_cmdline>  (188) 
J2VwaWtfcHl0aG9uJywgJy1waHQnLCAnMi4wJywgJy1waCcsICc3LjAnLCAnLXRuJywgJzgnLCAnLW1hJywgJzIwMCcsICctaW1hZScsICc8aW5maWxlLm1hZT4nLCAnLW9tYWUnLCAnPG91dGZpbGUubWFlPic=

>  <r_lp_tautomer_probability>  (188) 
1

>  <r_epik_Ionization_Penalty>  (188) 
0.000632405

>  <r_epik_Ionization_Penalty_Charging>  (188) 
0

>  <r_epik_Ionization_Penalty_Neutral>  (188) 
0.000632405

>  <r_epik_State_Penalty>  (188) 
-0

>  <r_epik_Charging_Adjusted_Penalty>  (188) 
0

>  <i_epik_Tot_Q>  (188) 
0

>  <i_epik_Tot_abs_Q>  (188) 
0

>  <s_lp_Force_Field>  (188) 
OPLS3e

>  <r_lp_Energy>  (188) 
27.4737

>  <b_lp_Chiralities_Consistent>  (188) 
1

>  <s_lp_Variant>  (188) 
61:0-1

>  <s_i_glide_gridfile>  (188) 
pfpi4k_grid

>  <i_i_glide_lignum>  (188) 
11

>  <i_i_glide_rotatable_bonds>  (188) 
3

>  <r_i_docking_score>  (188) 
-3.86088

>  <r_i_glide_ligand_efficiency>  (188) 
-0.227111

>  <r_i_glide_ligand_efficiency_sa>  (188) 
-0.583966

>  <r_i_glide_ligand_efficiency_ln>  (188) 
-1.00722

>  <r_i_glide_gscore>  (188) 
-3.86088

>  <r_i_glide_lipo>  (188) 
-0.204098

>  <r_i_glide_hbond>  (188) 
-0.302945

>  <r_i_glide_metal>  (188) 
-0

>  <r_i_glide_rewards>  (188) 
-1.80743

>  <r_i_glide_evdw>  (188) 
-19.1497

>  <r_i_glide_ecoul>  (188) 
-5.0587

>  <r_i_glide_erotb>  (188) 
0.308367

>  <r_i_glide_esite>  (188) 
-0.138486

>  <r_i_glide_emodel>  (188) 
-31.3625

>  <r_i_glide_energy>  (188) 
-24.2084

>  <r_i_glide_einternal>  (188) 
0.0542128

>  <r_i_glide_intrahb_reward>  (188) 
-0

>  <i_i_glide_confnum>  (188) 
5

>  <i_i_glide_posenum>  (188) 
1

>  <r_i_glide_eff_state_penalty>  (188) 
0

>  <ligand_id>  (188) 
61

>  <original_smiles>  (188) 
CNC(=O)C1Cc2nn(C)cc2CN1C(C)=O

>  <smiles>  (188) 
[H]c1c2c(nn1C([H])([H])[H])C([H])([H])C([H])(C(=O)N([H])C([H])([H])[H])N(C(=O)C([H])([H])[H])C2([H])[H]

$$$$
61:0:2
     RDKit          3D

 33 34  0  0  1  0  0  0  0  0999 V2000
    2.9164    5.1623    3.1423 C   0  0  0  0  0  0  0  0  0  0  0  0
    1.8239    4.2467    2.8786 N   0  0  0  0  0  0  0  0  0  0  0  0
    1.2231    3.5335    3.8297 C   0  0  0  0  0  0  0  0  0  0  0  0
    1.5201    3.6532    5.0182 O   0  0  0  0  0  0  0  0  0  0  0  0
    0.1345    2.5451    3.3594 C   0  0  2  0  0  0  0  0  0  0  0  0
   -1.2814    3.0478    3.7715 C   0  0  0  0  0  0  0  0  0  0  0  0
   -1.5892    2.7543    5.2051 C   0  0  0  0  0  0  0  0  0  0  0  0
   -2.5542    3.3445    5.8954 N   0  0  0  0  0  0  0  0  0  0  0  0
   -2.4540    2.7874    7.1255 N   0  0  0  0  0  0  0  0  0  0  0  0
   -3.3707    3.1932    8.1788 C   0  0  0  0  0  0  0  0  0  0  0  0
   -1.4304    1.8577    7.1878 C   0  0  0  0  0  0  0  0  0  0  0  0
   -0.8776    1.7860    5.9440 C   0  0  0  0  0  0  0  0  0  0  0  0
    0.2400    0.9558    5.3575 C   0  0  0  0  0  0  0  0  0  0  0  0
    0.4062    1.1772    3.8938 N   0  0  0  0  0  0  0  0  0  0  0  0
    0.9702    0.1968    3.1373 C   0  0  0  0  0  0  0  0  0  0  0  0
    1.4189    0.4802    1.6970 C   0  0  0  0  0  0  0  0  0  0  0  0
    1.1863   -0.9303    3.5888 O   0  0  0  0  0  0  0  0  0  0  0  0
    3.1360    5.7470    2.2527 H   0  0  0  0  0  0  0  0  0  0  0  0
    3.8126    4.6007    3.4196 H   0  0  0  0  0  0  0  0  0  0  0  0
    2.6712    5.8415    3.9608 H   0  0  0  0  0  0  0  0  0  0  0  0
    1.4725    4.1649    1.9259 H   0  0  0  0  0  0  0  0  0  0  0  0
    0.1116    2.5440    2.2692 H   0  0  0  0  0  0  0  0  0  0  0  0
   -1.3720    4.1165    3.5641 H   0  0  0  0  0  0  0  0  0  0  0  0
   -2.0360    2.5661    3.1467 H   0  0  0  0  0  0  0  0  0  0  0  0
   -3.1291    2.6803    9.1121 H   0  0  0  0  0  0  0  0  0  0  0  0
   -4.3961    2.9401    7.9018 H   0  0  0  0  0  0  0  0  0  0  0  0
   -3.3059    4.2708    8.3494 H   0  0  0  0  0  0  0  0  0  0  0  0
   -1.1942    1.3334    8.1008 H   0  0  0  0  0  0  0  0  0  0  0  0
    1.1906    1.2111    5.8260 H   0  0  0  0  0  0  0  0  0  0  0  0
    0.0902   -0.0980    5.6019 H   0  0  0  0  0  0  0  0  0  0  0  0
    0.5645    0.6292    1.0421 H   0  0  0  0  0  0  0  0  0  0  0  0
    1.9841   -0.3591    1.2953 H   0  0  0  0  0  0  0  0  0  0  0  0
    2.0636    1.3563    1.6366 H   0  0  0  0  0  0  0  0  0  0  0  0
  1  2  1  0
  1 18  1  0
  1 19  1  0
  1 20  1  0
  2  3  1  0
  2 21  1  0
  3  4  2  0
  3  5  1  0
  5 14  1  0
  5  6  1  0
  5 22  1  6
  6  7  1  0
  6 23  1  0
  6 24  1  0
  7 12  1  0
  7  8  2  0
  8  9  1  0
  9 10  1  0
  9 11  1  0
 10 25  1  0
 10 26  1  0
 10 27  1  0
 11 12  2  0
 11 28  1  0
 12 13  1  0
 13 14  1  0
 13 29  1  0
 13 30  1  0
 14 15  1  0
 15 16  1  0
 15 17  2  0
 16 31  1  0
 16 32  1  0
 16 33  1  0
M  END
>  <i_m_ct_stereo_status>  (189) 
1

>  <s_m_source_file>  (189) 
/var/tmp/pbs.5076255.sched01/tmp378oxcv0/78pm6kuo1p.sdf

>  <i_m_source_file_index>  (189) 
11

>  <i_lp_mmshare_version>  (189) 
48012

>  <i_f3d_flags>  (189) 
0

>  <s_epik_input>  (189) 
W0NIM11bTkhdQyg9TylbQ0BIXShbQ0gyXTEpTihDKD1PKVtDSDNdKVtDSDJdYyhjMTIpW2NIXW4objIpW0NIM10=

>  <s_epik_cmdline>  (189) 
J2VwaWtfcHl0aG9uJywgJy1waHQnLCAnMi4wJywgJy1waCcsICc3LjAnLCAnLXRuJywgJzgnLCAnLW1hJywgJzIwMCcsICctaW1hZScsICc8aW5maWxlLm1hZT4nLCAnLW9tYWUnLCAnPG91dGZpbGUubWFlPic=

>  <r_lp_tautomer_probability>  (189) 
1

>  <r_epik_Ionization_Penalty>  (189) 
0.000632405

>  <r_epik_Ionization_Penalty_Charging>  (189) 
0

>  <r_epik_Ionization_Penalty_Neutral>  (189) 
0.000632405

>  <r_epik_State_Penalty>  (189) 
-0

>  <r_epik_Charging_Adjusted_Penalty>  (189) 
0

>  <i_epik_Tot_Q>  (189) 
0

>  <i_epik_Tot_abs_Q>  (189) 
0

>  <s_lp_Force_Field>  (189) 
OPLS3e

>  <r_lp_Energy>  (189) 
27.4737

>  <b_lp_Chiralities_Consistent>  (189) 
1

>  <s_lp_Variant>  (189) 
61:0-1

>  <s_i_glide_gridfile>  (189) 
pfpi4k_grid

>  <i_i_glide_lignum>  (189) 
11

>  <i_i_glide_rotatable_bonds>  (189) 
3

>  <r_i_docking_score>  (189) 
-3.72561

>  <r_i_glide_ligand_efficiency>  (189) 
-0.219153

>  <r_i_glide_ligand_efficiency_sa>  (189) 
-0.563505

>  <r_i_glide_ligand_efficiency_ln>  (189) 
-0.971928

>  <r_i_glide_gscore>  (189) 
-3.72561

>  <r_i_glide_lipo>  (189) 
-0.115537

>  <r_i_glide_hbond>  (189) 
-0.159532

>  <r_i_glide_metal>  (189) 
-0

>  <r_i_glide_rewards>  (189) 
-1.97892

>  <r_i_glide_evdw>  (189) 
-19.8656

>  <r_i_glide_ecoul>  (189) 
-4.01572

>  <r_i_glide_erotb>  (189) 
0.308367

>  <r_i_glide_esite>  (189) 
-0.184348

>  <r_i_glide_emodel>  (189) 
-30.5351

>  <r_i_glide_energy>  (189) 
-23.8814

>  <r_i_glide_einternal>  (189) 
0.363815

>  <r_i_glide_intrahb_reward>  (189) 
-0

>  <i_i_glide_confnum>  (189) 
6

>  <i_i_glide_posenum>  (189) 
2

>  <r_i_glide_eff_state_penalty>  (189) 
0

>  <ligand_id>  (189) 
61

>  <original_smiles>  (189) 
CNC(=O)C1Cc2nn(C)cc2CN1C(C)=O

>  <smiles>  (189) 
[H]c1c2c(nn1C([H])([H])[H])C([H])([H])C([H])(C(=O)N([H])C([H])([H])[H])N(C(=O)C([H])([H])[H])C2([H])[H]

$$$$
62:0:0
     RDKit          3D

 41 45  0  0  1  0  0  0  0  0999 V2000
    4.1432   -2.3916   -3.0336 C   0  0  0  0  0  0  0  0  0  0  0  0
    3.9489   -3.4149   -1.9770 N   0  0  2  0  0  0  0  0  0  0  0  0
    2.6835   -3.1603   -1.2099 C   0  0  0  0  0  0  0  0  0  0  0  0
    2.8871   -2.3050    0.0729 C   0  0  0  0  0  0  0  0  0  0  0  0
    4.0880   -2.8572    0.8718 C   0  0  2  0  0  0  0  0  0  0  0  0
    3.7796   -4.2624    1.2363 C   0  0  0  0  0  0  0  0  0  0  0  0
    4.1411   -5.3930    0.5084 C   0  0  0  0  0  0  0  0  0  0  0  0
    3.6144   -6.6096    0.9828 C   0  0  0  0  0  0  0  0  0  0  0  0
    2.7753   -6.6069    2.1322 C   0  0  0  0  0  0  0  0  0  0  0  0
    2.5256   -5.4176    2.8731 C   0  0  0  0  0  0  0  0  0  0  0  0
    1.7764   -5.4597    4.0116 O   0  0  0  0  0  0  0  0  0  0  0  0
    3.0793   -4.1963    2.4378 C   0  0  0  0  0  0  0  0  0  0  0  0
    3.1424   -2.9442    3.0274 O   0  0  0  0  0  0  0  0  0  0  0  0
    4.2787   -2.4421    2.3178 C   0  0  2  0  0  0  0  0  0  0  0  0
    4.8614   -1.0623    2.4679 C   0  0  0  0  0  0  0  0  0  0  0  0
    4.3550   -0.1513    3.1155 O   0  0  0  0  0  0  0  0  0  0  0  0
    6.2148   -0.9609    1.7253 C   0  0  0  0  0  0  0  0  0  0  0  0
    6.5321   -2.2006    0.7886 C   0  0  0  0  0  0  0  0  0  0  0  0
    5.2784   -2.5856   -0.0395 C   0  0  1  0  0  0  0  0  0  0  0  0
    5.1867   -3.6667   -1.1485 C   0  0  1  0  0  0  0  0  0  0  0  0
    5.1635   -5.1160   -0.5932 C   0  0  0  0  0  0  0  0  0  0  0  0
    4.2341   -1.3960   -2.5985 H   0  0  0  0  0  0  0  0  0  0  0  0
    3.2895   -2.3764   -3.7117 H   0  0  0  0  0  0  0  0  0  0  0  0
    5.0354   -2.5972   -3.6229 H   0  0  0  0  0  0  0  0  0  0  0  0
    1.9344   -2.7000   -1.8571 H   0  0  0  0  0  0  0  0  0  0  0  0
    2.2481   -4.1222   -0.9397 H   0  0  0  0  0  0  0  0  0  0  0  0
    3.0413   -1.2556   -0.1975 H   0  0  0  0  0  0  0  0  0  0  0  0
    1.9779   -2.3147    0.6733 H   0  0  0  0  0  0  0  0  0  0  0  0
    3.8524   -7.5346    0.4790 H   0  0  0  0  0  0  0  0  0  0  0  0
    2.3594   -7.5431    2.4613 H   0  0  0  0  0  0  0  0  0  0  0  0
    1.5627   -6.3409    4.2768 H   0  0  0  0  0  0  0  0  0  0  0  0
    5.0991   -3.0304    2.7359 H   0  0  0  0  0  0  0  0  0  0  0  0
    6.1921   -0.0484    1.1312 H   0  0  0  0  0  0  0  0  0  0  0  0
    7.0075   -0.8309    2.4631 H   0  0  0  0  0  0  0  0  0  0  0  0
    7.3595   -1.9447    0.1255 H   0  0  0  0  0  0  0  0  0  0  0  0
    6.8732   -3.0562    1.3773 H   0  0  0  0  0  0  0  0  0  0  0  0
    5.1286   -1.6344   -0.5544 H   0  0  0  0  0  0  0  0  0  0  0  0
    6.0507   -3.5858   -1.8072 H   0  0  0  0  0  0  0  0  0  0  0  0
    6.1445   -5.3436   -0.1830 H   0  0  0  0  0  0  0  0  0  0  0  0
    5.0106   -5.8288   -1.4007 H   0  0  0  0  0  0  0  0  0  0  0  0
    3.7716   -4.2879   -2.4679 H   0  0  0  0  0  0  0  0  0  0  0  0
  1  2  1  0
  1 22  1  0
  1 23  1  0
  1 24  1  0
  2 20  1  0
  2  3  1  0
  2 41  1  6
  3  4  1  0
  3 25  1  0
  3 26  1  0
  5  4  1  6
  4 27  1  0
  4 28  1  0
  5 14  1  0
  5 19  1  0
  5  6  1  0
  6 12  2  0
  6  7  1  0
  7 21  1  0
  7  8  2  0
  8  9  1  0
  8 29  1  0
  9 10  2  0
  9 30  1  0
 10 11  1  0
 10 12  1  0
 11 31  1  0
 12 13  1  0
 13 14  1  0
 14 15  1  0
 14 32  1  1
 15 16  2  0
 15 17  1  0
 17 18  1  0
 17 33  1  0
 17 34  1  0
 18 19  1  0
 18 35  1  0
 18 36  1  0
 19 20  1  0
 19 37  1  6
 20 21  1  0
 20 38  1  6
 21 39  1  0
 21 40  1  0
M  CHG  1   2   1
M  END
>  <i_m_ct_stereo_status>  (190) 
1

>  <s_m_source_file>  (190) 
/var/tmp/pbs.5076255.sched01/tmp378oxcv0/78pm6kuo1p.sdf

>  <i_m_source_file_index>  (190) 
12

>  <i_lp_mmshare_version>  (190) 
48012

>  <i_f3d_flags>  (190) 
0

>  <s_epik_input>  (190) 
W0NIMl0xW0NIMl1OKFtDSDNdKVtDQEhdKFtDSDJdMilbQ0BASF0zW0NIMl1bQ0gyXUMoPU8pW0NASF00T2M1YyhbT0hdKVtjSF1bY0hdYzJjNVtDQF0xMzQ=

>  <s_epik_cmdline>  (190) 
J2VwaWtfcHl0aG9uJywgJy1waHQnLCAnMi4wJywgJy1waCcsICc3LjAnLCAnLXRuJywgJzgnLCAnLW1hJywgJzIwMCcsICctaW1hZScsICc8aW5maWxlLm1hZT4nLCAnLW9tYWUnLCAnPG91dGZpbGUubWFlPic=

>  <r_lp_tautomer_probability>  (190) 
1

>  <r_epik_Ionization_Penalty>  (190) 
0.0754726

>  <r_epik_Ionization_Penalty_Charging>  (190) 
0.0397053

>  <r_epik_Ionization_Penalty_Neutral>  (190) 
0.0357673

>  <r_epik_State_Penalty>  (190) 
0.0616185

>  <r_epik_Charging_Adjusted_Penalty>  (190) 
0.101324

>  <i_epik_Tot_Q>  (190) 
1

>  <i_epik_Tot_abs_Q>  (190) 
1

>  <s_lp_Force_Field>  (190) 
OPLS3e

>  <r_lp_Energy>  (190) 
84.573

>  <b_lp_Chiralities_Consistent>  (190) 
1

>  <s_lp_Variant>  (190) 
62:0-1

>  <s_i_glide_gridfile>  (190) 
pfpi4k_grid

>  <i_i_glide_lignum>  (190) 
12

>  <i_i_glide_rotatable_bonds>  (190) 
1

>  <r_i_docking_score>  (190) 
-3.57007

>  <r_i_glide_ligand_efficiency>  (190) 
-0.170004

>  <r_i_glide_ligand_efficiency_sa>  (190) 
-0.469027

>  <r_i_glide_ligand_efficiency_ln>  (190) 
-0.882693

>  <r_i_glide_gscore>  (190) 
-3.57007

>  <r_i_glide_lipo>  (190) 
-0.501823

>  <r_i_glide_hbond>  (190) 
0

>  <r_i_glide_metal>  (190) 
-0

>  <r_i_glide_rewards>  (190) 
-1.57987

>  <r_i_glide_evdw>  (190) 
-18.2526

>  <r_i_glide_ecoul>  (190) 
-3.6779

>  <r_i_glide_erotb>  (190) 
0

>  <r_i_glide_esite>  (190) 
-0.0240694

>  <r_i_glide_emodel>  (190) 
-27.2556

>  <r_i_glide_energy>  (190) 
-21.9305

>  <r_i_glide_einternal>  (190) 
0.0548883

>  <r_i_glide_intrahb_reward>  (190) 
-0

>  <i_i_glide_confnum>  (190) 
1

>  <i_i_glide_posenum>  (190) 
12

>  <r_i_glide_eff_state_penalty>  (190) 
0

>  <ligand_id>  (190) 
62

>  <original_smiles>  (190) 
CN1CCC23c4c5ccc(O)c4OC2C(=O)CCC3C1C5

>  <smiles>  (190) 
[H]Oc1c([H])c([H])c2c3c1OC1([H])C(=O)C([H])([H])C([H])([H])C4([H])C31C([H])([H])C([H])([H])[N+]([H])(C([H])([H])[H])C4([H])C2([H])[H]

$$$$
62:0:1
     RDKit          3D

 41 45  0  0  1  0  0  0  0  0999 V2000
    3.2948   -2.3024   -2.4320 C   0  0  0  0  0  0  0  0  0  0  0  0
    3.4866   -3.4159   -1.4697 N   0  0  2  0  0  0  0  0  0  0  0  0
    2.3839   -3.4362   -0.4536 C   0  0  0  0  0  0  0  0  0  0  0  0
    2.6982   -2.6428    0.8483 C   0  0  0  0  0  0  0  0  0  0  0  0
    4.1131   -3.0307    1.3418 C   0  0  2  0  0  0  0  0  0  0  0  0
    4.1114   -4.4903    1.6171 C   0  0  0  0  0  0  0  0  0  0  0  0
    4.4802   -5.4927    0.7213 C   0  0  0  0  0  0  0  0  0  0  0  0
    4.2583   -6.8114    1.1606 C   0  0  0  0  0  0  0  0  0  0  0  0
    3.6903   -7.0291    2.4471 C   0  0  0  0  0  0  0  0  0  0  0  0
    3.4227   -5.9522    3.3400 C   0  0  0  0  0  0  0  0  0  0  0  0
    2.9441   -6.1979    4.5926 O   0  0  0  0  0  0  0  0  0  0  0  0
    3.6781   -4.6273    2.9320 C   0  0  0  0  0  0  0  0  0  0  0  0
    3.6669   -3.4247    3.6210 O   0  0  0  0  0  0  0  0  0  0  0  0
    4.5368   -2.6873    2.7573 C   0  0  2  0  0  0  0  0  0  0  0  0
    4.9210   -1.2411    2.9316 C   0  0  0  0  0  0  0  0  0  0  0  0
    4.4221   -0.4744    3.7508 O   0  0  0  0  0  0  0  0  0  0  0  0
    6.0630   -0.8619    1.9584 C   0  0  0  0  0  0  0  0  0  0  0  0
    6.3621   -1.9629    0.8582 C   0  0  0  0  0  0  0  0  0  0  0  0
    5.0368   -2.4996    0.2519 C   0  0  1  0  0  0  0  0  0  0  0  0
    4.8895   -3.5041   -0.9217 C   0  0  1  0  0  0  0  0  0  0  0  0
    5.2049   -4.9700   -0.5170 C   0  0  0  0  0  0  0  0  0  0  0  0
    3.3144   -1.3367   -1.9241 H   0  0  0  0  0  0  0  0  0  0  0  0
    2.3263   -2.3863   -2.9283 H   0  0  0  0  0  0  0  0  0  0  0  0
    4.0658   -2.3075   -3.2030 H   0  0  0  0  0  0  0  0  0  0  0  0
    1.4597   -3.0702   -0.9018 H   0  0  0  0  0  0  0  0  0  0  0  0
    2.1710   -4.4746   -0.2006 H   0  0  0  0  0  0  0  0  0  0  0  0
    2.6272   -1.5668    0.6596 H   0  0  0  0  0  0  0  0  0  0  0  0
    1.9408   -2.8512    1.6049 H   0  0  0  0  0  0  0  0  0  0  0  0
    4.5263   -7.6443    0.5256 H   0  0  0  0  0  0  0  0  0  0  0  0
    3.5007   -8.0422    2.7559 H   0  0  0  0  0  0  0  0  0  0  0  0
    2.8412   -7.1192    4.7751 H   0  0  0  0  0  0  0  0  0  0  0  0
    5.5072   -3.1540    2.9485 H   0  0  0  0  0  0  0  0  0  0  0  0
    5.7816    0.0748    1.4784 H   0  0  0  0  0  0  0  0  0  0  0  0
    6.9636   -0.6605    2.5389 H   0  0  0  0  0  0  0  0  0  0  0  0
    6.9842   -1.5245    0.0776 H   0  0  0  0  0  0  0  0  0  0  0  0
    6.9461   -2.7842    1.2812 H   0  0  0  0  0  0  0  0  0  0  0  0
    4.6401   -1.5564   -0.1272 H   0  0  0  0  0  0  0  0  0  0  0  0
    5.5771   -3.2341   -1.7220 H   0  0  0  0  0  0  0  0  0  0  0  0
    6.2688   -5.0481   -0.3033 H   0  0  0  0  0  0  0  0  0  0  0  0
    5.0161   -5.6460   -1.3484 H   0  0  0  0  0  0  0  0  0  0  0  0
    3.3513   -4.2655   -2.0117 H   0  0  0  0  0  0  0  0  0  0  0  0
  1  2  1  0
  1 22  1  0
  1 23  1  0
  1 24  1  0
  2 20  1  0
  2  3  1  0
  2 41  1  6
  3  4  1  0
  3 25  1  0
  3 26  1  0
  5  4  1  6
  4 27  1  0
  4 28  1  0
  5 14  1  0
  5 19  1  0
  5  6  1  0
  6 12  2  0
  6  7  1  0
  7 21  1  0
  7  8  2  0
  8  9  1  0
  8 29  1  0
  9 10  2  0
  9 30  1  0
 10 11  1  0
 10 12  1  0
 11 31  1  0
 12 13  1  0
 13 14  1  0
 14 15  1  0
 14 32  1  6
 15 16  2  0
 15 17  1  0
 17 18  1  0
 17 33  1  0
 17 34  1  0
 18 19  1  0
 18 35  1  0
 18 36  1  0
 19 20  1  0
 19 37  1  6
 20 21  1  0
 20 38  1  6
 21 39  1  0
 21 40  1  0
M  CHG  1   2   1
M  END
>  <i_m_ct_stereo_status>  (191) 
1

>  <s_m_source_file>  (191) 
/var/tmp/pbs.5076255.sched01/tmp378oxcv0/78pm6kuo1p.sdf

>  <i_m_source_file_index>  (191) 
12

>  <i_lp_mmshare_version>  (191) 
48012

>  <i_f3d_flags>  (191) 
0

>  <s_epik_input>  (191) 
W0NIMl0xW0NIMl1OKFtDSDNdKVtDQEhdKFtDSDJdMilbQ0BASF0zW0NIMl1bQ0gyXUMoPU8pW0NASF00T2M1YyhbT0hdKVtjSF1bY0hdYzJjNVtDQF0xMzQ=

>  <s_epik_cmdline>  (191) 
J2VwaWtfcHl0aG9uJywgJy1waHQnLCAnMi4wJywgJy1waCcsICc3LjAnLCAnLXRuJywgJzgnLCAnLW1hJywgJzIwMCcsICctaW1hZScsICc8aW5maWxlLm1hZT4nLCAnLW9tYWUnLCAnPG91dGZpbGUubWFlPic=

>  <r_lp_tautomer_probability>  (191) 
1

>  <r_epik_Ionization_Penalty>  (191) 
0.0754726

>  <r_epik_Ionization_Penalty_Charging>  (191) 
0.0397053

>  <r_epik_Ionization_Penalty_Neutral>  (191) 
0.0357673

>  <r_epik_State_Penalty>  (191) 
0.0616185

>  <r_epik_Charging_Adjusted_Penalty>  (191) 
0.101324

>  <i_epik_Tot_Q>  (191) 
1

>  <i_epik_Tot_abs_Q>  (191) 
1

>  <s_lp_Force_Field>  (191) 
OPLS3e

>  <r_lp_Energy>  (191) 
84.573

>  <b_lp_Chiralities_Consistent>  (191) 
1

>  <s_lp_Variant>  (191) 
62:0-1

>  <s_i_glide_gridfile>  (191) 
pfpi4k_grid

>  <i_i_glide_lignum>  (191) 
12

>  <i_i_glide_rotatable_bonds>  (191) 
1

>  <r_i_docking_score>  (191) 
-3.53131

>  <r_i_glide_ligand_efficiency>  (191) 
-0.168158

>  <r_i_glide_ligand_efficiency_sa>  (191) 
-0.463934

>  <r_i_glide_ligand_efficiency_ln>  (191) 
-0.873109

>  <r_i_glide_gscore>  (191) 
-3.53131

>  <r_i_glide_lipo>  (191) 
-0.424824

>  <r_i_glide_hbond>  (191) 
0

>  <r_i_glide_metal>  (191) 
-0

>  <r_i_glide_rewards>  (191) 
-1.5716

>  <r_i_glide_evdw>  (191) 
-17.0592

>  <r_i_glide_ecoul>  (191) 
-4.54614

>  <r_i_glide_erotb>  (191) 
0

>  <r_i_glide_esite>  (191) 
0

>  <r_i_glide_emodel>  (191) 
-26.9066

>  <r_i_glide_energy>  (191) 
-21.6053

>  <r_i_glide_einternal>  (191) 
0.0042097

>  <r_i_glide_intrahb_reward>  (191) 
-0

>  <i_i_glide_confnum>  (191) 
1

>  <i_i_glide_posenum>  (191) 
39

>  <r_i_glide_eff_state_penalty>  (191) 
0

>  <ligand_id>  (191) 
62

>  <original_smiles>  (191) 
CN1CCC23c4c5ccc(O)c4OC2C(=O)CCC3C1C5

>  <smiles>  (191) 
[H]Oc1c([H])c([H])c2c3c1OC1([H])C(=O)C([H])([H])C([H])([H])C4([H])C31C([H])([H])C([H])([H])[N+]([H])(C([H])([H])[H])C4([H])C2([H])[H]

$$$$
62:0:2
     RDKit          3D

 41 45  0  0  1  0  0  0  0  0999 V2000
    3.1684   -1.3645   -3.0282 C   0  0  0  0  0  0  0  0  0  0  0  0
    4.1385   -2.1192   -2.2015 N   0  0  2  0  0  0  0  0  0  0  0  0
    3.5787   -3.4458   -1.7688 C   0  0  0  0  0  0  0  0  0  0  0  0
    2.8906   -3.4139   -0.3770 C   0  0  0  0  0  0  0  0  0  0  0  0
    3.8111   -2.6718    0.6251 C   0  0  2  0  0  0  0  0  0  0  0  0
    5.0865   -3.4260    0.7085 C   0  0  0  0  0  0  0  0  0  0  0  0
    6.2342   -3.1839   -0.0450 C   0  0  0  0  0  0  0  0  0  0  0  0
    7.2713   -4.1240    0.1119 C   0  0  0  0  0  0  0  0  0  0  0  0
    7.0847   -5.2254    0.9955 C   0  0  0  0  0  0  0  0  0  0  0  0
    5.9149   -5.3492    1.7960 C   0  0  0  0  0  0  0  0  0  0  0  0
    5.7944   -6.3732    2.6874 O   0  0  0  0  0  0  0  0  0  0  0  0
    4.8849   -4.3942    1.6858 C   0  0  0  0  0  0  0  0  0  0  0  0
    3.7385   -4.1787    2.4324 O   0  0  0  0  0  0  0  0  0  0  0  0
    3.5489   -2.7961    2.1133 C   0  0  2  0  0  0  0  0  0  0  0  0
    2.4092   -1.9343    2.5929 C   0  0  0  0  0  0  0  0  0  0  0  0
    1.4234   -2.3494    3.1989 O   0  0  0  0  0  0  0  0  0  0  0  0
    2.6709   -0.4453    2.2527 C   0  0  0  0  0  0  0  0  0  0  0  0
    3.8987   -0.2186    1.2735 C   0  0  0  0  0  0  0  0  0  0  0  0
    3.8604   -1.2418    0.1077 C   0  0  1  0  0  0  0  0  0  0  0  0
    4.7960   -1.2892   -1.1248 C   0  0  1  0  0  0  0  0  0  0  0  0
    6.2049   -1.8570   -0.8011 C   0  0  0  0  0  0  0  0  0  0  0  0
    2.2704   -1.1442   -2.4541 H   0  0  0  0  0  0  0  0  0  0  0  0
    2.8687   -1.9526   -3.8968 H   0  0  0  0  0  0  0  0  0  0  0  0
    3.5929   -0.4266   -3.3892 H   0  0  0  0  0  0  0  0  0  0  0  0
    2.8807   -3.8282   -2.5159 H   0  0  0  0  0  0  0  0  0  0  0  0
    4.3867   -4.1775   -1.7500 H   0  0  0  0  0  0  0  0  0  0  0  0
    1.9162   -2.9270   -0.4573 H   0  0  0  0  0  0  0  0  0  0  0  0
    2.6787   -4.4343   -0.0522 H   0  0  0  0  0  0  0  0  0  0  0  0
    8.1952   -4.0090   -0.4385 H   0  0  0  0  0  0  0  0  0  0  0  0
    7.8618   -5.9622    1.0862 H   0  0  0  0  0  0  0  0  0  0  0  0
    4.9683   -6.3605    3.1462 H   0  0  0  0  0  0  0  0  0  0  0  0
    4.3743   -2.3161    2.6455 H   0  0  0  0  0  0  0  0  0  0  0  0
    1.7595   -0.0504    1.8033 H   0  0  0  0  0  0  0  0  0  0  0  0
    2.8278    0.1046    3.1809 H   0  0  0  0  0  0  0  0  0  0  0  0
    3.8563    0.7983    0.8798 H   0  0  0  0  0  0  0  0  0  0  0  0
    4.8468   -0.2966    1.8118 H   0  0  0  0  0  0  0  0  0  0  0  0
    2.8911   -0.9741   -0.3000 H   0  0  0  0  0  0  0  0  0  0  0  0
    4.9293   -0.2817   -1.5165 H   0  0  0  0  0  0  0  0  0  0  0  0
    6.7239   -1.1326   -0.1756 H   0  0  0  0  0  0  0  0  0  0  0  0
    6.7918   -1.9686   -1.7121 H   0  0  0  0  0  0  0  0  0  0  0  0
    4.8806   -2.3607   -2.8445 H   0  0  0  0  0  0  0  0  0  0  0  0
  1  2  1  0
  1 22  1  0
  1 23  1  0
  1 24  1  0
  2 20  1  0
  2  3  1  0
  2 41  1  6
  3  4  1  0
  3 25  1  0
  3 26  1  0
  5  4  1  6
  4 27  1  0
  4 28  1  0
  5 14  1  0
  5 19  1  0
  5  6  1  0
  6 12  2  0
  6  7  1  0
  7 21  1  0
  7  8  2  0
  8  9  1  0
  8 29  1  0
  9 10  2  0
  9 30  1  0
 10 11  1  0
 10 12  1  0
 11 31  1  0
 12 13  1  0
 13 14  1  0
 14 15  1  0
 14 32  1  1
 15 16  2  0
 15 17  1  0
 17 18  1  0
 17 33  1  0
 17 34  1  0
 18 19  1  0
 18 35  1  0
 18 36  1  0
 19 20  1  0
 19 37  1  6
 20 21  1  0
 20 38  1  6
 21 39  1  0
 21 40  1  0
M  CHG  1   2   1
M  END
>  <i_m_ct_stereo_status>  (192) 
1

>  <s_m_source_file>  (192) 
/var/tmp/pbs.5076255.sched01/tmp378oxcv0/78pm6kuo1p.sdf

>  <i_m_source_file_index>  (192) 
12

>  <i_lp_mmshare_version>  (192) 
48012

>  <i_f3d_flags>  (192) 
0

>  <s_epik_input>  (192) 
W0NIMl0xW0NIMl1OKFtDSDNdKVtDQEhdKFtDSDJdMilbQ0BASF0zW0NIMl1bQ0gyXUMoPU8pW0NASF00T2M1YyhbT0hdKVtjSF1bY0hdYzJjNVtDQF0xMzQ=

>  <s_epik_cmdline>  (192) 
J2VwaWtfcHl0aG9uJywgJy1waHQnLCAnMi4wJywgJy1waCcsICc3LjAnLCAnLXRuJywgJzgnLCAnLW1hJywgJzIwMCcsICctaW1hZScsICc8aW5maWxlLm1hZT4nLCAnLW9tYWUnLCAnPG91dGZpbGUubWFlPic=

>  <r_lp_tautomer_probability>  (192) 
1

>  <r_epik_Ionization_Penalty>  (192) 
0.0754726

>  <r_epik_Ionization_Penalty_Charging>  (192) 
0.0397053

>  <r_epik_Ionization_Penalty_Neutral>  (192) 
0.0357673

>  <r_epik_State_Penalty>  (192) 
0.0616185

>  <r_epik_Charging_Adjusted_Penalty>  (192) 
0.101324

>  <i_epik_Tot_Q>  (192) 
1

>  <i_epik_Tot_abs_Q>  (192) 
1

>  <s_lp_Force_Field>  (192) 
OPLS3e

>  <r_lp_Energy>  (192) 
84.573

>  <b_lp_Chiralities_Consistent>  (192) 
1

>  <s_lp_Variant>  (192) 
62:0-1

>  <s_i_glide_gridfile>  (192) 
pfpi4k_grid

>  <i_i_glide_lignum>  (192) 
12

>  <i_i_glide_rotatable_bonds>  (192) 
1

>  <r_i_docking_score>  (192) 
-3.18076

>  <r_i_glide_ligand_efficiency>  (192) 
-0.151465

>  <r_i_glide_ligand_efficiency_sa>  (192) 
-0.41788

>  <r_i_glide_ligand_efficiency_ln>  (192) 
-0.786437

>  <r_i_glide_gscore>  (192) 
-3.18076

>  <r_i_glide_lipo>  (192) 
-0.465739

>  <r_i_glide_hbond>  (192) 
0

>  <r_i_glide_metal>  (192) 
-0

>  <r_i_glide_rewards>  (192) 
-1.45673

>  <r_i_glide_evdw>  (192) 
-19.0585

>  <r_i_glide_ecoul>  (192) 
-1.9553

>  <r_i_glide_erotb>  (192) 
0

>  <r_i_glide_esite>  (192) 
-0.0120668

>  <r_i_glide_emodel>  (192) 
-25.794

>  <r_i_glide_energy>  (192) 
-21.0138

>  <r_i_glide_einternal>  (192) 
0.00689972

>  <r_i_glide_intrahb_reward>  (192) 
-0

>  <i_i_glide_confnum>  (192) 
1

>  <i_i_glide_posenum>  (192) 
9

>  <r_i_glide_eff_state_penalty>  (192) 
0

>  <ligand_id>  (192) 
62

>  <original_smiles>  (192) 
CN1CCC23c4c5ccc(O)c4OC2C(=O)CCC3C1C5

>  <smiles>  (192) 
[H]Oc1c([H])c([H])c2c3c1OC1([H])C(=O)C([H])([H])C([H])([H])C4([H])C31C([H])([H])C([H])([H])[N+]([H])(C([H])([H])[H])C4([H])C2([H])[H]

$$$$
62:1:0
     RDKit          3D

 40 44  0  0  1  0  0  0  0  0999 V2000
    4.8010   -1.0101   -2.3106 C   0  0  0  0  0  0  0  0  0  0  0  0
    5.7457   -1.8405   -1.5727 N   0  0  0  0  0  0  0  0  0  0  0  0
    5.7360   -3.2402   -2.0639 C   0  0  0  0  0  0  0  0  0  0  0  0
    4.8021   -4.2115   -1.2866 C   0  0  0  0  0  0  0  0  0  0  0  0
    4.9930   -3.9878    0.2264 C   0  0  2  0  0  0  0  0  0  0  0  0
    6.3981   -4.3197    0.5724 C   0  0  0  0  0  0  0  0  0  0  0  0
    7.4588   -3.4162    0.6058 C   0  0  0  0  0  0  0  0  0  0  0  0
    8.7196   -3.9841    0.8714 C   0  0  0  0  0  0  0  0  0  0  0  0
    8.8348   -5.3904    1.0750 C   0  0  0  0  0  0  0  0  0  0  0  0
    7.6947   -6.2379    1.0891 C   0  0  0  0  0  0  0  0  0  0  0  0
    7.8461   -7.5729    1.3265 O   0  0  0  0  0  0  0  0  0  0  0  0
    6.4147   -5.6824    0.8763 C   0  0  0  0  0  0  0  0  0  0  0  0
    5.1448   -6.2196    1.0145 O   0  0  0  0  0  0  0  0  0  0  0  0
    4.4360   -4.9936    1.2185 C   0  0  2  0  0  0  0  0  0  0  0  0
    2.9526   -4.8591    1.4520 C   0  0  0  0  0  0  0  0  0  0  0  0
    2.1191   -5.7515    1.2944 O   0  0  0  0  0  0  0  0  0  0  0  0
    2.6136   -3.4257    1.9335 C   0  0  0  0  0  0  0  0  0  0  0  0
    3.8071   -2.3962    1.8040 C   0  0  0  0  0  0  0  0  0  0  0  0
    4.5114   -2.5561    0.4334 C   0  0  1  0  0  0  0  0  0  0  0  0
    5.6488   -1.6493   -0.1060 C   0  0  1  0  0  0  0  0  0  0  0  0
    7.0415   -1.9457    0.5112 C   0  0  0  0  0  0  0  0  0  0  0  0
    5.0027   -1.0740   -3.3809 H   0  0  0  0  0  0  0  0  0  0  0  0
    4.9189    0.0368   -2.0267 H   0  0  0  0  0  0  0  0  0  0  0  0
    3.7627   -1.2980   -2.1399 H   0  0  0  0  0  0  0  0  0  0  0  0
    5.4990   -3.2708   -3.1267 H   0  0  0  0  0  0  0  0  0  0  0  0
    6.7566   -3.6182   -1.9937 H   0  0  0  0  0  0  0  0  0  0  0  0
    3.7624   -4.0539   -1.5746 H   0  0  0  0  0  0  0  0  0  0  0  0
    5.0199   -5.2438   -1.5616 H   0  0  0  0  0  0  0  0  0  0  0  0
    9.5854   -3.3461    0.9411 H   0  0  0  0  0  0  0  0  0  0  0  0
    9.8019   -5.8226    1.2606 H   0  0  0  0  0  0  0  0  0  0  0  0
    8.7631   -7.8244    1.3641 H   0  0  0  0  0  0  0  0  0  0  0  0
    4.7841   -4.7036    2.2163 H   0  0  0  0  0  0  0  0  0  0  0  0
    1.7985   -3.0697    1.3103 H   0  0  0  0  0  0  0  0  0  0  0  0
    2.2492   -3.4713    2.9620 H   0  0  0  0  0  0  0  0  0  0  0  0
    3.4092   -1.3856    1.8953 H   0  0  0  0  0  0  0  0  0  0  0  0
    4.5200   -2.5287    2.6189 H   0  0  0  0  0  0  0  0  0  0  0  0
    3.6548   -2.3727   -0.2182 H   0  0  0  0  0  0  0  0  0  0  0  0
    5.4116   -0.6026    0.0866 H   0  0  0  0  0  0  0  0  0  0  0  0
    7.0397   -1.5340    1.5196 H   0  0  0  0  0  0  0  0  0  0  0  0
    7.8208   -1.4124   -0.0316 H   0  0  0  0  0  0  0  0  0  0  0  0
  1  2  1  0
  1 22  1  0
  1 23  1  0
  1 24  1  0
  2 20  1  0
  2  3  1  0
  3  4  1  0
  3 25  1  0
  3 26  1  0
  5  4  1  6
  4 27  1  0
  4 28  1  0
  5 14  1  0
  5 19  1  0
  5  6  1  0
  6 12  2  0
  6  7  1  0
  7 21  1  0
  7  8  2  0
  8  9  1  0
  8 29  1  0
  9 10  2  0
  9 30  1  0
 10 11  1  0
 10 12  1  0
 11 31  1  0
 12 13  1  0
 13 14  1  0
 14 15  1  0
 14 32  1  1
 15 16  2  0
 15 17  1  0
 17 18  1  0
 17 33  1  0
 17 34  1  0
 18 19  1  0
 18 35  1  0
 18 36  1  0
 19 20  1  0
 19 37  1  6
 20 21  1  0
 20 38  1  6
 21 39  1  0
 21 40  1  0
M  END
>  <i_m_ct_stereo_status>  (193) 
1

>  <s_m_source_file>  (193) 
/var/tmp/pbs.5076255.sched01/tmp378oxcv0/78pm6kuo1p.sdf

>  <i_m_source_file_index>  (193) 
13

>  <i_lp_mmshare_version>  (193) 
48012

>  <i_f3d_flags>  (193) 
0

>  <s_epik_input>  (193) 
W0NIMl0xW0NIMl1OKFtDSDNdKVtDQEhdKFtDSDJdMilbQ0BASF0zW0NIMl1bQ0gyXUMoPU8pW0NASF00T2M1YyhbT0hdKVtjSF1bY0hdYzJjNVtDQF0xMzQ=

>  <s_epik_cmdline>  (193) 
J2VwaWtfcHl0aG9uJywgJy1waHQnLCAnMi4wJywgJy1waCcsICc3LjAnLCAnLXRuJywgJzgnLCAnLW1hJywgJzIwMCcsICctaW1hZScsICc8aW5maWxlLm1hZT4nLCAnLW9tYWUnLCAnPG91dGZpbGUubWFlPic=

>  <r_lp_tautomer_probability>  (193) 
1

>  <r_epik_Ionization_Penalty>  (193) 
1.62542

>  <r_epik_Ionization_Penalty_Charging>  (193) 
0

>  <r_epik_Ionization_Penalty_Neutral>  (193) 
1.62542

>  <r_epik_State_Penalty>  (193) 
1.74913

>  <r_epik_Charging_Adjusted_Penalty>  (193) 
1.74913

>  <i_epik_Tot_Q>  (193) 
0

>  <i_epik_Tot_abs_Q>  (193) 
0

>  <s_lp_Force_Field>  (193) 
OPLS3e

>  <r_lp_Energy>  (193) 
81.4639

>  <b_lp_Chiralities_Consistent>  (193) 
1

>  <s_lp_Variant>  (193) 
62:0-2

>  <s_i_glide_gridfile>  (193) 
pfpi4k_grid

>  <i_i_glide_lignum>  (193) 
13

>  <i_i_glide_rotatable_bonds>  (193) 
1

>  <r_i_docking_score>  (193) 
-4.04085

>  <r_i_glide_ligand_efficiency>  (193) 
-0.192422

>  <r_i_glide_ligand_efficiency_sa>  (193) 
-0.530877

>  <r_i_glide_ligand_efficiency_ln>  (193) 
-0.999093

>  <r_i_glide_gscore>  (193) 
-4.04085

>  <r_i_glide_lipo>  (193) 
-0.617391

>  <r_i_glide_hbond>  (193) 
-0.0235346

>  <r_i_glide_metal>  (193) 
-0

>  <r_i_glide_rewards>  (193) 
-1.46361

>  <r_i_glide_evdw>  (193) 
-21.5426

>  <r_i_glide_ecoul>  (193) 
-5.69135

>  <r_i_glide_erotb>  (193) 
0

>  <r_i_glide_esite>  (193) 
-0.00548906

>  <r_i_glide_emodel>  (193) 
-34.3383

>  <r_i_glide_energy>  (193) 
-27.234

>  <r_i_glide_einternal>  (193) 
0.0343325

>  <r_i_glide_intrahb_reward>  (193) 
-0

>  <i_i_glide_confnum>  (193) 
2

>  <i_i_glide_posenum>  (193) 
21

>  <r_i_glide_eff_state_penalty>  (193) 
0

>  <ligand_id>  (193) 
62

>  <original_smiles>  (193) 
CN1CCC23c4c5ccc(O)c4OC2C(=O)CCC3C1C5

>  <smiles>  (193) 
[H]Oc1c([H])c([H])c2c3c1OC1([H])C(=O)C([H])([H])C([H])([H])C4([H])C([H])(N(C([H])([H])[H])C([H])([H])C([H])([H])C314)C2([H])[H]

$$$$
62:1:1
     RDKit          3D

 40 44  0  0  1  0  0  0  0  0999 V2000
    4.5391   -0.9462   -2.4865 C   0  0  0  0  0  0  0  0  0  0  0  0
    5.4088   -1.8616   -1.7448 N   0  0  0  0  0  0  0  0  0  0  0  0
    4.8998   -3.2516   -1.7976 C   0  0  0  0  0  0  0  0  0  0  0  0
    4.0056   -3.6812   -0.5989 C   0  0  0  0  0  0  0  0  0  0  0  0
    4.6871   -3.2092    0.7095 C   0  0  2  0  0  0  0  0  0  0  0  0
    6.0003   -3.9007    0.8259 C   0  0  0  0  0  0  0  0  0  0  0  0
    7.2298   -3.3944    0.3863 C   0  0  0  0  0  0  0  0  0  0  0  0
    8.3203   -4.2729    0.5253 C   0  0  0  0  0  0  0  0  0  0  0  0
    8.1221   -5.5728    1.0845 C   0  0  0  0  0  0  0  0  0  0  0  0
    6.8545   -5.9775    1.5915 C   0  0  0  0  0  0  0  0  0  0  0  0
    6.7159   -7.1902    2.1896 O   0  0  0  0  0  0  0  0  0  0  0  0
    5.7300   -5.1013    1.5015 C   0  0  0  0  0  0  0  0  0  0  0  0
    4.4859   -5.1469    2.0575 O   0  0  0  0  0  0  0  0  0  0  0  0
    4.1995   -3.7415    2.0505 C   0  0  2  0  0  0  0  0  0  0  0  0
    2.9382   -3.0902    2.5440 C   0  0  0  0  0  0  0  0  0  0  0  0
    1.9108   -3.6998    2.8647 O   0  0  0  0  0  0  0  0  0  0  0  0
    3.1068   -1.5571    2.6394 C   0  0  0  0  0  0  0  0  0  0  0  0
    4.4415   -1.0210    1.9661 C   0  0  0  0  0  0  0  0  0  0  0  0
    4.6634   -1.6933    0.5886 C   0  0  1  0  0  0  0  0  0  0  0  0
    5.7897   -1.3422   -0.4092 C   0  0  1  0  0  0  0  0  0  0  0  0
    7.1737   -1.9418   -0.0452 C   0  0  0  0  0  0  0  0  0  0  0  0
    4.4071   -1.3002   -3.5077 H   0  0  0  0  0  0  0  0  0  0  0  0
    4.9955    0.0418   -2.5413 H   0  0  0  0  0  0  0  0  0  0  0  0
    3.5519   -0.8496   -2.0278 H   0  0  0  0  0  0  0  0  0  0  0  0
    4.3620   -3.4342   -2.7310 H   0  0  0  0  0  0  0  0  0  0  0  0
    5.7559   -3.9217   -1.8348 H   0  0  0  0  0  0  0  0  0  0  0  0
    3.0032   -3.2573   -0.6939 H   0  0  0  0  0  0  0  0  0  0  0  0
    3.8650   -4.7623   -0.6043 H   0  0  0  0  0  0  0  0  0  0  0  0
    9.2942   -3.9489    0.2159 H   0  0  0  0  0  0  0  0  0  0  0  0
    8.9611   -6.2398    1.1611 H   0  0  0  0  0  0  0  0  0  0  0  0
    7.5093   -7.6825    2.2014 H   0  0  0  0  0  0  0  0  0  0  0  0
    4.8878   -3.3762    2.8176 H   0  0  0  0  0  0  0  0  0  0  0  0
    2.2448   -1.0989    2.1521 H   0  0  0  0  0  0  0  0  0  0  0  0
    3.0728   -1.2612    3.6902 H   0  0  0  0  0  0  0  0  0  0  0  0
    4.3710    0.0599    1.8437 H   0  0  0  0  0  0  0  0  0  0  0  0
    5.3012   -1.2012    2.6167 H   0  0  0  0  0  0  0  0  0  0  0  0
    3.7335   -1.3875    0.1065 H   0  0  0  0  0  0  0  0  0  0  0  0
    5.8879   -0.2596   -0.4833 H   0  0  0  0  0  0  0  0  0  0  0  0
    7.5994   -1.3444    0.7691 H   0  0  0  0  0  0  0  0  0  0  0  0
    7.8753   -1.8551   -0.8778 H   0  0  0  0  0  0  0  0  0  0  0  0
  1  2  1  0
  1 22  1  0
  1 23  1  0
  1 24  1  0
  2 20  1  0
  2  3  1  0
  3  4  1  0
  3 25  1  0
  3 26  1  0
  5  4  1  6
  4 27  1  0
  4 28  1  0
  5 14  1  0
  5 19  1  0
  5  6  1  0
  6 12  2  0
  6  7  1  0
  7 21  1  0
  7  8  2  0
  8  9  1  0
  8 29  1  0
  9 10  2  0
  9 30  1  0
 10 11  1  0
 10 12  1  0
 11 31  1  0
 12 13  1  0
 13 14  1  0
 14 15  1  0
 14 32  1  1
 15 16  2  0
 15 17  1  0
 17 18  1  0
 17 33  1  0
 17 34  1  0
 18 19  1  0
 18 35  1  0
 18 36  1  0
 19 20  1  0
 19 37  1  6
 20 21  1  0
 20 38  1  6
 21 39  1  0
 21 40  1  0
M  END
>  <i_m_ct_stereo_status>  (194) 
1

>  <s_m_source_file>  (194) 
/var/tmp/pbs.5076255.sched01/tmp378oxcv0/78pm6kuo1p.sdf

>  <i_m_source_file_index>  (194) 
13

>  <i_lp_mmshare_version>  (194) 
48012

>  <i_f3d_flags>  (194) 
0

>  <s_epik_input>  (194) 
W0NIMl0xW0NIMl1OKFtDSDNdKVtDQEhdKFtDSDJdMilbQ0BASF0zW0NIMl1bQ0gyXUMoPU8pW0NASF00T2M1YyhbT0hdKVtjSF1bY0hdYzJjNVtDQF0xMzQ=

>  <s_epik_cmdline>  (194) 
J2VwaWtfcHl0aG9uJywgJy1waHQnLCAnMi4wJywgJy1waCcsICc3LjAnLCAnLXRuJywgJzgnLCAnLW1hJywgJzIwMCcsICctaW1hZScsICc8aW5maWxlLm1hZT4nLCAnLW9tYWUnLCAnPG91dGZpbGUubWFlPic=

>  <r_lp_tautomer_probability>  (194) 
1

>  <r_epik_Ionization_Penalty>  (194) 
1.62542

>  <r_epik_Ionization_Penalty_Charging>  (194) 
0

>  <r_epik_Ionization_Penalty_Neutral>  (194) 
1.62542

>  <r_epik_State_Penalty>  (194) 
1.74913

>  <r_epik_Charging_Adjusted_Penalty>  (194) 
1.74913

>  <i_epik_Tot_Q>  (194) 
0

>  <i_epik_Tot_abs_Q>  (194) 
0

>  <s_lp_Force_Field>  (194) 
OPLS3e

>  <r_lp_Energy>  (194) 
81.4639

>  <b_lp_Chiralities_Consistent>  (194) 
1

>  <s_lp_Variant>  (194) 
62:0-2

>  <s_i_glide_gridfile>  (194) 
pfpi4k_grid

>  <i_i_glide_lignum>  (194) 
13

>  <i_i_glide_rotatable_bonds>  (194) 
1

>  <r_i_docking_score>  (194) 
-3.30209

>  <r_i_glide_ligand_efficiency>  (194) 
-0.157242

>  <r_i_glide_ligand_efficiency_sa>  (194) 
-0.433819

>  <r_i_glide_ligand_efficiency_ln>  (194) 
-0.816434

>  <r_i_glide_gscore>  (194) 
-3.30209

>  <r_i_glide_lipo>  (194) 
-0.70336

>  <r_i_glide_hbond>  (194) 
0

>  <r_i_glide_metal>  (194) 
-0

>  <r_i_glide_rewards>  (194) 
-1.46361

>  <r_i_glide_evdw>  (194) 
-21.6275

>  <r_i_glide_ecoul>  (194) 
-0.352166

>  <r_i_glide_erotb>  (194) 
0

>  <r_i_glide_esite>  (194) 
-0.000917354

>  <r_i_glide_emodel>  (194) 
-27.74

>  <r_i_glide_energy>  (194) 
-21.9797

>  <r_i_glide_einternal>  (194) 
0.00272213

>  <r_i_glide_intrahb_reward>  (194) 
-0

>  <i_i_glide_confnum>  (194) 
2

>  <i_i_glide_posenum>  (194) 
28

>  <r_i_glide_eff_state_penalty>  (194) 
0

>  <ligand_id>  (194) 
62

>  <original_smiles>  (194) 
CN1CCC23c4c5ccc(O)c4OC2C(=O)CCC3C1C5

>  <smiles>  (194) 
[H]Oc1c([H])c([H])c2c3c1OC1([H])C(=O)C([H])([H])C([H])([H])C4([H])C([H])(N(C([H])([H])[H])C([H])([H])C([H])([H])C314)C2([H])[H]

$$$$
62:1:2
     RDKit          3D

 40 44  0  0  1  0  0  0  0  0999 V2000
    3.5140   -1.3434   -3.1513 C   0  0  0  0  0  0  0  0  0  0  0  0
    4.4181   -2.1101   -2.3027 N   0  0  0  0  0  0  0  0  0  0  0  0
    3.8431   -3.4312   -1.9471 C   0  0  0  0  0  0  0  0  0  0  0  0
    3.0867   -3.4850   -0.5890 C   0  0  0  0  0  0  0  0  0  0  0  0
    3.9324   -2.7557    0.4779 C   0  0  2  0  0  0  0  0  0  0  0  0
    5.2205   -3.4839    0.6290 C   0  0  0  0  0  0  0  0  0  0  0  0
    6.4051   -3.1992   -0.0478 C   0  0  0  0  0  0  0  0  0  0  0  0
    7.4737   -4.0844    0.1989 C   0  0  0  0  0  0  0  0  0  0  0  0
    7.2832   -5.1862    1.0809 C   0  0  0  0  0  0  0  0  0  0  0  0
    6.0672   -5.3619    1.7967 C   0  0  0  0  0  0  0  0  0  0  0  0
    5.9374   -6.3800    2.6957 O   0  0  0  0  0  0  0  0  0  0  0  0
    5.0002   -4.4605    1.5992 C   0  0  0  0  0  0  0  0  0  0  0  0
    3.8086   -4.2827    2.2848 O   0  0  0  0  0  0  0  0  0  0  0  0
    3.5925   -2.9053    1.9501 C   0  0  2  0  0  0  0  0  0  0  0  0
    2.4228   -2.0640    2.3963 C   0  0  0  0  0  0  0  0  0  0  0  0
    1.4224   -2.4997    2.9637 O   0  0  0  0  0  0  0  0  0  0  0  0
    2.6740   -0.5680    2.0800 C   0  0  0  0  0  0  0  0  0  0  0  0
    3.9437   -0.3127    1.1636 C   0  0  0  0  0  0  0  0  0  0  0  0
    3.9743   -1.3162   -0.0161 C   0  0  1  0  0  0  0  0  0  0  0  0
    4.9818   -1.3060   -1.1909 C   0  0  1  0  0  0  0  0  0  0  0  0
    6.3758   -1.8907   -0.8361 C   0  0  0  0  0  0  0  0  0  0  0  0
    3.2364   -1.9258   -4.0333 H   0  0  0  0  0  0  0  0  0  0  0  0
    4.0089   -0.4364   -3.5058 H   0  0  0  0  0  0  0  0  0  0  0  0
    2.6001   -1.0575   -2.6303 H   0  0  0  0  0  0  0  0  0  0  0  0
    3.1948   -3.7932   -2.7437 H   0  0  0  0  0  0  0  0  0  0  0  0
    4.6624   -4.1502   -1.9039 H   0  0  0  0  0  0  0  0  0  0  0  0
    2.0989   -3.0355   -0.6860 H   0  0  0  0  0  0  0  0  0  0  0  0
    2.9031   -4.5245   -0.3095 H   0  0  0  0  0  0  0  0  0  0  0  0
    8.4263   -3.9296   -0.2844 H   0  0  0  0  0  0  0  0  0  0  0  0
    8.0875   -5.8848    1.2378 H   0  0  0  0  0  0  0  0  0  0  0  0
    5.0800   -6.3987    3.0934 H   0  0  0  0  0  0  0  0  0  0  0  0
    4.3808   -2.4121    2.5289 H   0  0  0  0  0  0  0  0  0  0  0  0
    1.7804   -0.1866    1.5843 H   0  0  0  0  0  0  0  0  0  0  0  0
    2.7749   -0.0232    3.0209 H   0  0  0  0  0  0  0  0  0  0  0  0
    3.9065    0.7077    0.7835 H   0  0  0  0  0  0  0  0  0  0  0  0
    4.8635   -0.3886    1.7466 H   0  0  0  0  0  0  0  0  0  0  0  0
    3.0123   -1.0697   -0.4664 H   0  0  0  0  0  0  0  0  0  0  0  0
    5.1198   -0.2863   -1.5501 H   0  0  0  0  0  0  0  0  0  0  0  0
    6.9029   -1.1565   -0.2292 H   0  0  0  0  0  0  0  0  0  0  0  0
    6.9570   -2.0377   -1.7459 H   0  0  0  0  0  0  0  0  0  0  0  0
  1  2  1  0
  1 22  1  0
  1 23  1  0
  1 24  1  0
  2 20  1  0
  2  3  1  0
  3  4  1  0
  3 25  1  0
  3 26  1  0
  5  4  1  6
  4 27  1  0
  4 28  1  0
  5 14  1  0
  5 19  1  0
  5  6  1  0
  6 12  2  0
  6  7  1  0
  7 21  1  0
  7  8  2  0
  8  9  1  0
  8 29  1  0
  9 10  2  0
  9 30  1  0
 10 11  1  0
 10 12  1  0
 11 31  1  0
 12 13  1  0
 13 14  1  0
 14 15  1  0
 14 32  1  1
 15 16  2  0
 15 17  1  0
 17 18  1  0
 17 33  1  0
 17 34  1  0
 18 19  1  0
 18 35  1  0
 18 36  1  0
 19 20  1  0
 19 37  1  6
 20 21  1  0
 20 38  1  6
 21 39  1  0
 21 40  1  0
M  END
>  <i_m_ct_stereo_status>  (195) 
1

>  <s_m_source_file>  (195) 
/var/tmp/pbs.5076255.sched01/tmp378oxcv0/78pm6kuo1p.sdf

>  <i_m_source_file_index>  (195) 
13

>  <i_lp_mmshare_version>  (195) 
48012

>  <i_f3d_flags>  (195) 
0

>  <s_epik_input>  (195) 
W0NIMl0xW0NIMl1OKFtDSDNdKVtDQEhdKFtDSDJdMilbQ0BASF0zW0NIMl1bQ0gyXUMoPU8pW0NASF00T2M1YyhbT0hdKVtjSF1bY0hdYzJjNVtDQF0xMzQ=

>  <s_epik_cmdline>  (195) 
J2VwaWtfcHl0aG9uJywgJy1waHQnLCAnMi4wJywgJy1waCcsICc3LjAnLCAnLXRuJywgJzgnLCAnLW1hJywgJzIwMCcsICctaW1hZScsICc8aW5maWxlLm1hZT4nLCAnLW9tYWUnLCAnPG91dGZpbGUubWFlPic=

>  <r_lp_tautomer_probability>  (195) 
1

>  <r_epik_Ionization_Penalty>  (195) 
1.62542

>  <r_epik_Ionization_Penalty_Charging>  (195) 
0

>  <r_epik_Ionization_Penalty_Neutral>  (195) 
1.62542

>  <r_epik_State_Penalty>  (195) 
1.74913

>  <r_epik_Charging_Adjusted_Penalty>  (195) 
1.74913

>  <i_epik_Tot_Q>  (195) 
0

>  <i_epik_Tot_abs_Q>  (195) 
0

>  <s_lp_Force_Field>  (195) 
OPLS3e

>  <r_lp_Energy>  (195) 
81.4639

>  <b_lp_Chiralities_Consistent>  (195) 
1

>  <s_lp_Variant>  (195) 
62:0-2

>  <s_i_glide_gridfile>  (195) 
pfpi4k_grid

>  <i_i_glide_lignum>  (195) 
13

>  <i_i_glide_rotatable_bonds>  (195) 
1

>  <r_i_docking_score>  (195) 
-3.14262

>  <r_i_glide_ligand_efficiency>  (195) 
-0.149648

>  <r_i_glide_ligand_efficiency_sa>  (195) 
-0.412868

>  <r_i_glide_ligand_efficiency_ln>  (195) 
-0.777005

>  <r_i_glide_gscore>  (195) 
-3.14262

>  <r_i_glide_lipo>  (195) 
-0.609414

>  <r_i_glide_hbond>  (195) 
0

>  <r_i_glide_metal>  (195) 
-0

>  <r_i_glide_rewards>  (195) 
-1.46361

>  <r_i_glide_evdw>  (195) 
-21.7797

>  <r_i_glide_ecoul>  (195) 
0.199326

>  <r_i_glide_erotb>  (195) 
0

>  <r_i_glide_esite>  (195) 
-0.0105066

>  <r_i_glide_emodel>  (195) 
-27.1096

>  <r_i_glide_energy>  (195) 
-21.5804

>  <r_i_glide_einternal>  (195) 
0.00162971

>  <r_i_glide_intrahb_reward>  (195) 
-0

>  <i_i_glide_confnum>  (195) 
2

>  <i_i_glide_posenum>  (195) 
10

>  <r_i_glide_eff_state_penalty>  (195) 
0

>  <ligand_id>  (195) 
62

>  <original_smiles>  (195) 
CN1CCC23c4c5ccc(O)c4OC2C(=O)CCC3C1C5

>  <smiles>  (195) 
[H]Oc1c([H])c([H])c2c3c1OC1([H])C(=O)C([H])([H])C([H])([H])C4([H])C([H])(N(C([H])([H])[H])C([H])([H])C([H])([H])C314)C2([H])[H]

$$$$
62:2:0
     RDKit          3D

 40 44  0  0  1  0  0  0  0  0999 V2000
    2.9509   -2.6487   -2.5273 C   0  0  0  0  0  0  0  0  0  0  0  0
    3.8824   -3.2652   -1.5543 N   0  0  2  0  0  0  0  0  0  0  0  0
    3.1569   -4.1748   -0.6073 C   0  0  0  0  0  0  0  0  0  0  0  0
    2.7185   -3.4901    0.7168 C   0  0  0  0  0  0  0  0  0  0  0  0
    3.9157   -2.6910    1.2859 C   0  0  2  0  0  0  0  0  0  0  0  0
    5.0253   -3.6481    1.5381 C   0  0  0  0  0  0  0  0  0  0  0  0
    6.0597   -3.9585    0.6560 C   0  0  0  0  0  0  0  0  0  0  0  0
    6.9058   -5.0073    1.0622 C   0  0  0  0  0  0  0  0  0  0  0  0
    6.6597   -5.6526    2.3045 C   0  0  0  0  0  0  0  0  0  0  0  0
    5.6392   -5.2129    3.1917 C   0  0  0  0  0  0  0  0  0  0  0  0
    5.4882   -5.8019    4.4140 O   0  0  0  0  0  0  0  0  0  0  0  0
    4.8024   -4.1381    2.8175 C   0  0  0  0  0  0  0  0  0  0  0  0
    3.8530   -3.4168    3.5216 O   0  0  0  0  0  0  0  0  0  0  0  0
    3.8807   -2.2272    2.7274 C   0  0  2  0  0  0  0  0  0  0  0  0
    3.0096   -1.0177    2.9403 C   0  0  0  0  0  0  0  0  0  0  0  0
    2.0713   -0.9537    3.7305 O   0  0  0  0  0  0  0  0  0  0  0  0
    3.4829    0.1552    2.0487 C   0  0  0  0  0  0  0  0  0  0  0  0
    4.5550   -0.2634    0.9604 C   0  0  0  0  0  0  0  0  0  0  0  0
    4.1330   -1.5856    0.2633 C   0  0  1  0  0  0  0  0  0  0  0  0
    4.8429   -2.2818   -0.9287 C   0  0  1  0  0  0  0  0  0  0  0  0
    6.1633   -3.0059   -0.5323 C   0  0  0  0  0  0  0  0  0  0  0  0
    2.2196   -2.0367   -2.0158 H   0  0  0  0  0  0  0  0  0  0  0  0
    2.4126   -3.4200   -3.0844 H   0  0  0  0  0  0  0  0  0  0  0  0
    3.4816   -2.0224   -3.2483 H   0  0  0  0  0  0  0  0  0  0  0  0
    2.2851   -4.6176   -1.0928 H   0  0  0  0  0  0  0  0  0  0  0  0
    3.8025   -5.0258   -0.3771 H   0  0  0  0  0  0  0  0  0  0  0  0
    1.8628   -2.8346    0.5333 H   0  0  0  0  0  0  0  0  0  0  0  0
    2.3711   -4.2470    1.4214 H   0  0  0  0  0  0  0  0  0  0  0  0
    7.7352   -5.3066    0.4402 H   0  0  0  0  0  0  0  0  0  0  0  0
    7.2935   -6.4698    2.5998 H   0  0  0  0  0  0  0  0  0  0  0  0
    4.8552   -1.7993    2.9764 H   0  0  0  0  0  0  0  0  0  0  0  0
    2.6024    0.5690    1.5563 H   0  0  0  0  0  0  0  0  0  0  0  0
    3.8831    0.9438    2.6883 H   0  0  0  0  0  0  0  0  0  0  0  0
    4.6234    0.5367    0.2276 H   0  0  0  0  0  0  0  0  0  0  0  0
    5.5488   -0.3691    1.4055 H   0  0  0  0  0  0  0  0  0  0  0  0
    3.1694   -1.2580   -0.1307 H   0  0  0  0  0  0  0  0  0  0  0  0
    5.0972   -1.5337   -1.6846 H   0  0  0  0  0  0  0  0  0  0  0  0
    6.9059   -2.2500   -0.2756 H   0  0  0  0  0  0  0  0  0  0  0  0
    6.5707   -3.5467   -1.3858 H   0  0  0  0  0  0  0  0  0  0  0  0
    4.4463   -3.8906   -2.1140 H   0  0  0  0  0  0  0  0  0  0  0  0
  1  2  1  0
  1 22  1  0
  1 23  1  0
  1 24  1  0
  2 20  1  0
  2  3  1  0
  2 40  1  6
  3  4  1  0
  3 25  1  0
  3 26  1  0
  5  4  1  6
  4 27  1  0
  4 28  1  0
  5 14  1  0
  5 19  1  0
  5  6  1  0
  6 12  2  0
  6  7  1  0
  7 21  1  0
  7  8  2  0
  8  9  1  0
  8 29  1  0
  9 10  2  0
  9 30  1  0
 10 11  1  0
 10 12  1  0
 12 13  1  0
 13 14  1  0
 14 15  1  0
 14 31  1  1
 15 16  2  0
 15 17  1  0
 17 18  1  0
 17 32  1  0
 17 33  1  0
 18 19  1  0
 18 34  1  0
 18 35  1  0
 19 20  1  0
 19 36  1  6
 20 21  1  0
 20 37  1  6
 21 38  1  0
 21 39  1  0
M  CHG  2   2   1  11  -1
M  END
>  <i_m_ct_stereo_status>  (196) 
1

>  <s_m_source_file>  (196) 
/var/tmp/pbs.5076255.sched01/tmp378oxcv0/78pm6kuo1p.sdf

>  <i_m_source_file_index>  (196) 
14

>  <i_lp_mmshare_version>  (196) 
48012

>  <i_f3d_flags>  (196) 
0

>  <s_epik_input>  (196) 
W0NIMl0xW0NIMl1OKFtDSDNdKVtDQEhdKFtDSDJdMilbQ0BASF0zW0NIMl1bQ0gyXUMoPU8pW0NASF00T2M1YyhbT0hdKVtjSF1bY0hdYzJjNVtDQF0xMzQ=

>  <s_epik_cmdline>  (196) 
J2VwaWtfcHl0aG9uJywgJy1waHQnLCAnMi4wJywgJy1waCcsICc3LjAnLCAnLXRuJywgJzgnLCAnLW1hJywgJzIwMCcsICctaW1hZScsICc8aW5maWxlLm1hZT4nLCAnLW9tYWUnLCAnPG91dGZpbGUubWFlPic=

>  <r_epik_Ionization_Penalty>  (196) 
1.71669

>  <r_epik_Ionization_Penalty_Charging>  (196) 
1.71669

>  <r_epik_Ionization_Penalty_Neutral>  (196) 
1.51878e-10

>  <r_epik_State_Penalty>  (196) 
1.81729

>  <r_epik_Charging_Adjusted_Penalty>  (196) 
3.53398

>  <i_epik_Tot_Q>  (196) 
0

>  <i_epik_Tot_abs_Q>  (196) 
2

>  <s_lp_Force_Field>  (196) 
OPLS3e

>  <r_lp_Energy>  (196) 
81.6101

>  <b_lp_Chiralities_Consistent>  (196) 
1

>  <s_lp_Variant>  (196) 
62:0-3

>  <s_i_glide_gridfile>  (196) 
pfpi4k_grid

>  <i_i_glide_lignum>  (196) 
14

>  <i_i_glide_rotatable_bonds>  (196) 
0

>  <r_i_docking_score>  (196) 
-3.20325

>  <r_i_glide_ligand_efficiency>  (196) 
-0.152536

>  <r_i_glide_ligand_efficiency_sa>  (196) 
-0.420835

>  <r_i_glide_ligand_efficiency_ln>  (196) 
-0.791998

>  <r_i_glide_gscore>  (196) 
-3.20325

>  <r_i_glide_lipo>  (196) 
-0.486895

>  <r_i_glide_hbond>  (196) 
0

>  <r_i_glide_metal>  (196) 
-0

>  <r_i_glide_rewards>  (196) 
-1.46361

>  <r_i_glide_evdw>  (196) 
-15.7551

>  <r_i_glide_ecoul>  (196) 
-3.02463

>  <r_i_glide_erotb>  (196) 
0

>  <r_i_glide_esite>  (196) 
-0.0113046

>  <r_i_glide_emodel>  (196) 
-22.9253

>  <r_i_glide_energy>  (196) 
-18.7797

>  <r_i_glide_einternal>  (196) 
0

>  <r_i_glide_intrahb_reward>  (196) 
-0

>  <i_i_glide_confnum>  (196) 
2

>  <i_i_glide_posenum>  (196) 
3

>  <r_i_glide_eff_state_penalty>  (196) 
0

>  <ligand_id>  (196) 
62

>  <original_smiles>  (196) 
CN1CCC23c4c5ccc(O)c4OC2C(=O)CCC3C1C5

>  <smiles>  (196) 
[H]c1c([H])c2c3c(c1[O-])OC1([H])C(=O)C([H])([H])C([H])([H])C4([H])C31C([H])([H])C([H])([H])[N+]([H])(C([H])([H])[H])C4([H])C2([H])[H]

$$$$
62:2:1
     RDKit          3D

 40 44  0  0  1  0  0  0  0  0999 V2000
    2.1851   -2.4493   -3.4999 C   0  0  0  0  0  0  0  0  0  0  0  0
    3.5803   -2.4114   -2.9933 N   0  0  2  0  0  0  0  0  0  0  0  0
    4.0575   -3.7873   -2.7267 C   0  0  0  0  0  0  0  0  0  0  0  0
    3.7777   -4.2608   -1.2377 C   0  0  0  0  0  0  0  0  0  0  0  0
    4.3021   -3.1769   -0.2696 C   0  0  2  0  0  0  0  0  0  0  0  0
    5.7441   -3.0290   -0.5256 C   0  0  0  0  0  0  0  0  0  0  0  0
    6.2953   -2.1508   -1.4576 C   0  0  0  0  0  0  0  0  0  0  0  0
    7.6724   -2.3740   -1.7009 C   0  0  0  0  0  0  0  0  0  0  0  0
    8.3766   -3.3160   -0.9437 C   0  0  0  0  0  0  0  0  0  0  0  0
    7.7790   -4.1122    0.0668 C   0  0  0  0  0  0  0  0  0  0  0  0
    8.5373   -5.0107    0.7226 O   0  0  0  0  0  0  0  0  0  0  0  0
    6.3841   -3.9429    0.2922 C   0  0  0  0  0  0  0  0  0  0  0  0
    5.5402   -4.4878    1.2542 O   0  0  0  0  0  0  0  0  0  0  0  0
    4.5486   -3.4647    1.1950 C   0  0  2  0  0  0  0  0  0  0  0  0
    3.2823   -3.4621    2.0009 C   0  0  0  0  0  0  0  0  0  0  0  0
    2.8865   -4.4062    2.6745 O   0  0  0  0  0  0  0  0  0  0  0  0
    2.5565   -2.1022    1.8835 C   0  0  0  0  0  0  0  0  0  0  0  0
    3.1456   -1.1581    0.7591 C   0  0  0  0  0  0  0  0  0  0  0  0
    3.3918   -1.9871   -0.5316 C   0  0  1  0  0  0  0  0  0  0  0  0
    3.8245   -1.4215   -1.8959 C   0  0  1  0  0  0  0  0  0  0  0  0
    5.3131   -1.0464   -1.9033 C   0  0  0  0  0  0  0  0  0  0  0  0
    1.4727   -2.7594   -2.7275 H   0  0  0  0  0  0  0  0  0  0  0  0
    2.0721   -3.1158   -4.3636 H   0  0  0  0  0  0  0  0  0  0  0  0
    1.9785   -1.4598   -3.8859 H   0  0  0  0  0  0  0  0  0  0  0  0
    3.6215   -4.3637   -3.5461 H   0  0  0  0  0  0  0  0  0  0  0  0
    5.1312   -3.9040   -2.9272 H   0  0  0  0  0  0  0  0  0  0  0  0
    2.7039   -4.4160   -1.0467 H   0  0  0  0  0  0  0  0  0  0  0  0
    4.2908   -5.2123   -1.0274 H   0  0  0  0  0  0  0  0  0  0  0  0
    8.2599   -1.8973   -2.4517 H   0  0  0  0  0  0  0  0  0  0  0  0
    9.4225   -3.4489   -1.1682 H   0  0  0  0  0  0  0  0  0  0  0  0
    5.0626   -2.6000    1.6377 H   0  0  0  0  0  0  0  0  0  0  0  0
    1.5086   -2.3130    1.6737 H   0  0  0  0  0  0  0  0  0  0  0  0
    2.5974   -1.5995    2.8471 H   0  0  0  0  0  0  0  0  0  0  0  0
    2.4445   -0.3449    0.5568 H   0  0  0  0  0  0  0  0  0  0  0  0
    4.0736   -0.6792    1.0839 H   0  0  0  0  0  0  0  0  0  0  0  0
    2.3884   -2.3590   -0.7107 H   0  0  0  0  0  0  0  0  0  0  0  0
    3.2661   -0.5244   -2.1588 H   0  0  0  0  0  0  0  0  0  0  0  0
    5.4735   -0.2131   -1.2174 H   0  0  0  0  0  0  0  0  0  0  0  0
    5.3973   -0.6752   -2.9132 H   0  0  0  0  0  0  0  0  0  0  0  0
    4.1190   -2.1249   -3.7716 H   0  0  0  0  0  0  0  0  0  0  0  0
  1  2  1  0
  1 22  1  0
  1 23  1  0
  1 24  1  0
  2 20  1  0
  2  3  1  0
  2 40  1  6
  3  4  1  0
  3 25  1  0
  3 26  1  0
  5  4  1  6
  4 27  1  0
  4 28  1  0
  5 14  1  0
  5 19  1  0
  5  6  1  0
  6 12  2  0
  6  7  1  0
  7 21  1  0
  7  8  2  0
  8  9  1  0
  8 29  1  0
  9 10  2  0
  9 30  1  0
 10 11  1  0
 10 12  1  0
 12 13  1  0
 13 14  1  0
 14 15  1  0
 14 31  1  1
 15 16  2  0
 15 17  1  0
 17 18  1  0
 17 32  1  0
 17 33  1  0
 18 19  1  0
 18 34  1  0
 18 35  1  0
 19 20  1  0
 19 36  1  6
 20 21  1  0
 20 37  1  6
 21 38  1  0
 21 39  1  0
M  CHG  2   2   1  11  -1
M  END
>  <i_m_ct_stereo_status>  (197) 
1

>  <s_m_source_file>  (197) 
/var/tmp/pbs.5076255.sched01/tmp378oxcv0/78pm6kuo1p.sdf

>  <i_m_source_file_index>  (197) 
14

>  <i_lp_mmshare_version>  (197) 
48012

>  <i_f3d_flags>  (197) 
0

>  <s_epik_input>  (197) 
W0NIMl0xW0NIMl1OKFtDSDNdKVtDQEhdKFtDSDJdMilbQ0BASF0zW0NIMl1bQ0gyXUMoPU8pW0NASF00T2M1YyhbT0hdKVtjSF1bY0hdYzJjNVtDQF0xMzQ=

>  <s_epik_cmdline>  (197) 
J2VwaWtfcHl0aG9uJywgJy1waHQnLCAnMi4wJywgJy1waCcsICc3LjAnLCAnLXRuJywgJzgnLCAnLW1hJywgJzIwMCcsICctaW1hZScsICc8aW5maWxlLm1hZT4nLCAnLW9tYWUnLCAnPG91dGZpbGUubWFlPic=

>  <r_epik_Ionization_Penalty>  (197) 
1.71669

>  <r_epik_Ionization_Penalty_Charging>  (197) 
1.71669

>  <r_epik_Ionization_Penalty_Neutral>  (197) 
1.51878e-10

>  <r_epik_State_Penalty>  (197) 
1.81729

>  <r_epik_Charging_Adjusted_Penalty>  (197) 
3.53398

>  <i_epik_Tot_Q>  (197) 
0

>  <i_epik_Tot_abs_Q>  (197) 
2

>  <s_lp_Force_Field>  (197) 
OPLS3e

>  <r_lp_Energy>  (197) 
81.6101

>  <b_lp_Chiralities_Consistent>  (197) 
1

>  <s_lp_Variant>  (197) 
62:0-3

>  <s_i_glide_gridfile>  (197) 
pfpi4k_grid

>  <i_i_glide_lignum>  (197) 
14

>  <i_i_glide_rotatable_bonds>  (197) 
0

>  <r_i_docking_score>  (197) 
-3.126

>  <r_i_glide_ligand_efficiency>  (197) 
-0.148857

>  <r_i_glide_ligand_efficiency_sa>  (197) 
-0.410685

>  <r_i_glide_ligand_efficiency_ln>  (197) 
-0.772896

>  <r_i_glide_gscore>  (197) 
-3.126

>  <r_i_glide_lipo>  (197) 
-0.568461

>  <r_i_glide_hbond>  (197) 
0

>  <r_i_glide_metal>  (197) 
-0

>  <r_i_glide_rewards>  (197) 
-1.46537

>  <r_i_glide_evdw>  (197) 
-7.48675

>  <r_i_glide_ecoul>  (197) 
-4.78553

>  <r_i_glide_erotb>  (197) 
0

>  <r_i_glide_esite>  (197) 
0

>  <r_i_glide_emodel>  (197) 
-15.2773

>  <r_i_glide_energy>  (197) 
-12.2723

>  <r_i_glide_einternal>  (197) 
0

>  <r_i_glide_intrahb_reward>  (197) 
-0

>  <i_i_glide_confnum>  (197) 
1

>  <i_i_glide_posenum>  (197) 
1

>  <r_i_glide_eff_state_penalty>  (197) 
0

>  <ligand_id>  (197) 
62

>  <original_smiles>  (197) 
CN1CCC23c4c5ccc(O)c4OC2C(=O)CCC3C1C5

>  <smiles>  (197) 
[H]c1c([H])c2c3c(c1[O-])OC1([H])C(=O)C([H])([H])C([H])([H])C4([H])C31C([H])([H])C([H])([H])[N+]([H])(C([H])([H])[H])C4([H])C2([H])[H]

$$$$
63:0:0
     RDKit          3D

 58 63  0  0  1  0  0  0  0  0999 V2000
    0.4426   -1.0509    6.8744 C   0  0  0  0  0  0  0  0  0  0  0  0
   -0.6289   -2.1876    5.9043 S   0  0  0  0  0  0  0  0  0  0  0  0
   -1.0288   -3.2901    6.7939 O   0  0  0  0  0  0  0  0  0  0  0  0
   -1.6537   -1.3762    5.2360 O   0  0  0  0  0  0  0  0  0  0  0  0
    0.4191   -2.8337    4.6819 N   0  0  0  0  0  0  0  0  0  0  0  0
    0.7729   -2.0492    3.4840 C   0  0  0  0  0  0  0  0  0  0  0  0
    2.2736   -1.7850    3.4248 C   0  0  0  0  0  0  0  0  0  0  0  0
    3.1319   -3.0657    3.5148 C   0  0  0  0  0  0  0  0  0  0  0  0
    2.7355   -3.7694    4.8391 C   0  0  0  0  0  0  0  0  0  0  0  0
    1.2230   -4.0411    4.9410 C   0  0  0  0  0  0  0  0  0  0  0  0
    3.0129   -3.9708    2.2933 C   0  0  2  0  0  0  0  0  0  0  0  0
    2.3054   -5.2757    1.9089 C   0  0  0  0  0  0  0  0  0  0  0  0
    3.6506   -5.6240    1.2004 C   0  0  0  0  0  0  0  0  0  0  0  0
    4.2755   -4.8103    2.3358 C   0  0  1  0  0  0  0  0  0  0  0  0
    5.3455   -3.7570    2.4591 C   0  0  1  0  0  0  0  0  0  0  0  0
    5.8752   -3.2120    1.1300 C   0  0  0  0  0  0  0  0  0  0  0  0
    7.2525   -3.1837    0.8639 C   0  0  0  0  0  0  0  0  0  0  0  0
    7.6454   -2.6829   -0.3874 C   0  0  0  0  0  0  0  0  0  0  0  0
    6.7421   -2.2641   -1.2978 N   0  0  0  0  0  0  0  0  0  0  0  0
    5.4489   -2.3345   -0.9646 C   0  0  0  0  0  0  0  0  0  0  0  0
    4.5004   -1.9003   -1.9235 N   0  0  0  0  0  0  0  0  0  0  0  0
    4.5017   -0.6575   -2.4382 N   0  0  0  0  0  0  0  0  0  0  0  0
    3.4474   -0.7440   -3.2353 C   0  0  0  0  0  0  0  0  0  0  0  0
    2.8746   -1.9787   -3.2733 N   0  0  0  0  0  0  0  0  0  0  0  0
    3.5205   -2.6992   -2.4217 N   0  0  0  0  0  0  0  0  0  0  0  0
    4.9912   -2.7684    0.2102 N   0  0  0  0  0  0  0  0  0  0  0  0
    4.6817   -2.7394    3.4633 C   0  0  1  0  0  0  0  0  0  0  0  0
    5.0732   -1.3816    3.2106 O   0  0  0  0  0  0  0  0  0  0  0  0
    4.9044   -0.4372    4.2708 C   0  0  0  0  0  0  0  0  0  0  0  0
    6.1674    0.3181    4.5758 C   0  0  0  0  0  0  0  0  0  0  0  0
    5.6579   -0.7145    5.5517 C   0  0  0  0  0  0  0  0  0  0  0  0
   -0.1585   -0.5977    7.6662 H   0  0  0  0  0  0  0  0  0  0  0  0
    0.8245   -0.2611    6.2214 H   0  0  0  0  0  0  0  0  0  0  0  0
    1.2695   -1.6109    7.3189 H   0  0  0  0  0  0  0  0  0  0  0  0
    0.4557   -2.5891    2.5941 H   0  0  0  0  0  0  0  0  0  0  0  0
    0.2541   -1.0891    3.4975 H   0  0  0  0  0  0  0  0  0  0  0  0
    2.5007   -1.2511    2.4956 H   0  0  0  0  0  0  0  0  0  0  0  0
    2.4794   -1.1317    4.2650 H   0  0  0  0  0  0  0  0  0  0  0  0
    3.2533   -4.7215    4.9618 H   0  0  0  0  0  0  0  0  0  0  0  0
    3.0449   -3.1574    5.6889 H   0  0  0  0  0  0  0  0  0  0  0  0
    0.9964   -4.4639    5.9224 H   0  0  0  0  0  0  0  0  0  0  0  0
    0.9077   -4.7900    4.2177 H   0  0  0  0  0  0  0  0  0  0  0  0
    2.9468   -3.3385    1.4041 H   0  0  0  0  0  0  0  0  0  0  0  0
    2.0498   -5.9395    2.7383 H   0  0  0  0  0  0  0  0  0  0  0  0
    1.4819   -5.1275    1.2103 H   0  0  0  0  0  0  0  0  0  0  0  0
    3.8893   -6.6860    1.2362 H   0  0  0  0  0  0  0  0  0  0  0  0
    3.7805   -5.1951    0.2027 H   0  0  0  0  0  0  0  0  0  0  0  0
    4.3069   -5.4598    3.2179 H   0  0  0  0  0  0  0  0  0  0  0  0
    6.2087   -4.1983    2.9601 H   0  0  0  0  0  0  0  0  0  0  0  0
    7.9808   -3.5318    1.5829 H   0  0  0  0  0  0  0  0  0  0  0  0
    8.6897   -2.6117   -0.6628 H   0  0  0  0  0  0  0  0  0  0  0  0
    3.1033    0.1001   -3.8191 H   0  0  0  0  0  0  0  0  0  0  0  0
    5.0829   -3.0245    4.4286 H   0  0  0  0  0  0  0  0  0  0  0  0
    3.9992    0.1632    4.2207 H   0  0  0  0  0  0  0  0  0  0  0  0
    7.0171    0.1187    3.9267 H   0  0  0  0  0  0  0  0  0  0  0  0
    6.0491    1.3450    4.8719 H   0  0  0  0  0  0  0  0  0  0  0  0
    5.1871   -0.3853    6.4699 H   0  0  0  0  0  0  0  0  0  0  0  0
    6.2136   -1.6483    5.6380 H   0  0  0  0  0  0  0  0  0  0  0  0
  1  2  1  0
  1 32  1  0
  1 33  1  0
  1 34  1  0
  2  3  2  0
  2  4  2  0
  2  5  1  0
  5 10  1  0
  5  6  1  0
  6  7  1  0
  6 35  1  0
  6 36  1  0
  7  8  1  0
  7 37  1  0
  7 38  1  0
  8 27  1  0
  8  9  1  0
  8 11  1  0
  9 10  1  0
  9 39  1  0
  9 40  1  0
 10 41  1  0
 10 42  1  0
 11 14  1  0
 11 12  1  0
 11 43  1  6
 12 13  1  0
 12 44  1  0
 12 45  1  0
 13 14  1  0
 13 46  1  0
 13 47  1  0
 14 15  1  0
 14 48  1  1
 15 16  1  0
 15 27  1  0
 15 49  1  1
 16 26  1  0
 16 17  2  0
 17 18  1  0
 17 50  1  0
 18 19  2  0
 18 51  1  0
 19 20  1  0
 20 21  1  0
 20 26  2  0
 21 25  1  0
 21 22  1  0
 22 23  2  0
 23 24  1  0
 23 52  1  0
 24 25  2  0
 27 28  1  0
 27 53  1  1
 28 29  1  0
 29 31  1  0
 29 30  1  0
 29 54  1  0
 30 31  1  0
 30 55  1  0
 30 56  1  0
 31 57  1  0
 31 58  1  0
M  END
>  <i_m_ct_stereo_status>  (198) 
1

>  <s_m_source_file>  (198) 
/var/tmp/pbs.5076255.sched01/tmp378oxcv0/78pm6kuo1p.sdf

>  <i_m_source_file_index>  (198) 
15

>  <i_lp_mmshare_version>  (198) 
48012

>  <i_f3d_flags>  (198) 
0

>  <s_epik_input>  (198) 
W0NIM11TKD1PKSg9TylOKFtDSDJdW0NIMl0xKVtDSDJdW0NIMl1DMTJbQ0BIXTNbQ0BASF0oW0NIMl1bQ0gyXTMpW0NASF0oW0NASF0yT1tDSF00W0NIMl1bQ0gyXTQpYzVbY0hdW2NIXW5jKG41KS1uNm5bY0hdbm42

>  <s_epik_cmdline>  (198) 
J2VwaWtfcHl0aG9uJywgJy1waHQnLCAnMi4wJywgJy1waCcsICc3LjAnLCAnLXRuJywgJzgnLCAnLW1hJywgJzIwMCcsICctaW1hZScsICc8aW5maWxlLm1hZT4nLCAnLW9tYWUnLCAnPG91dGZpbGUubWFlPic=

>  <r_lp_tautomer_probability>  (198) 
1

>  <r_epik_Ionization_Penalty>  (198) 
2.72604e-05

>  <r_epik_Ionization_Penalty_Charging>  (198) 
0

>  <r_epik_Ionization_Penalty_Neutral>  (198) 
2.72604e-05

>  <r_epik_State_Penalty>  (198) 
-0

>  <r_epik_Charging_Adjusted_Penalty>  (198) 
0

>  <i_epik_Tot_Q>  (198) 
0

>  <i_epik_Tot_abs_Q>  (198) 
0

>  <s_lp_Force_Field>  (198) 
OPLS3e

>  <r_lp_Energy>  (198) 
96.0482

>  <b_lp_Chiralities_Consistent>  (198) 
1

>  <s_lp_Variant>  (198) 
63:0-1

>  <s_i_glide_gridfile>  (198) 
pfpi4k_grid

>  <i_i_glide_lignum>  (198) 
15

>  <i_i_glide_rotatable_bonds>  (198) 
5

>  <r_i_docking_score>  (198) 
-3.00078

>  <r_i_glide_ligand_efficiency>  (198) 
-0.0967993

>  <r_i_glide_ligand_efficiency_sa>  (198) 
-0.304084

>  <r_i_glide_ligand_efficiency_ln>  (198) 
-0.676768

>  <r_i_glide_gscore>  (198) 
-3.00078

>  <r_i_glide_lipo>  (198) 
-0.521869

>  <r_i_glide_hbond>  (198) 
-0.16

>  <r_i_glide_metal>  (198) 
-0

>  <r_i_glide_rewards>  (198) 
-0.555879

>  <r_i_glide_evdw>  (198) 
-32.9029

>  <r_i_glide_ecoul>  (198) 
-2.12909

>  <r_i_glide_erotb>  (198) 
0.403194

>  <r_i_glide_esite>  (198) 
-0.201718

>  <r_i_glide_emodel>  (198) 
-37.9256

>  <r_i_glide_energy>  (198) 
-35.032

>  <r_i_glide_einternal>  (198) 
6.21334

>  <r_i_glide_intrahb_reward>  (198) 
-0

>  <i_i_glide_confnum>  (198) 
4

>  <i_i_glide_posenum>  (198) 
9

>  <r_i_glide_eff_state_penalty>  (198) 
0

>  <ligand_id>  (198) 
63

>  <original_smiles>  (198) 
CS(=O)(=O)N1CCC2(CC1)C1CCC1C(c1ccnc(-n3ncnn3)n1)C2OC1CC1

>  <smiles>  (198) 
[H]c1nnn(-c2nc([H])c([H])c(C3([H])C([H])(OC4([H])C([H])([H])C4([H])[H])C4(C([H])([H])C([H])([H])N(S(=O)(=O)C([H])([H])[H])C([H])([H])C4([H])[H])C4([H])C([H])([H])C([H])([H])C34[H])n2)n1

$$$$
63:0:1
     RDKit          3D

 58 63  0  0  1  0  0  0  0  0999 V2000
    3.3855   -0.1871    1.3432 C   0  0  0  0  0  0  0  0  0  0  0  0
    4.8405   -1.2698    1.6351 S   0  0  0  0  0  0  0  0  0  0  0  0
    5.2514   -1.8536    0.3506 O   0  0  0  0  0  0  0  0  0  0  0  0
    5.8011   -0.5063    2.4406 O   0  0  0  0  0  0  0  0  0  0  0  0
    4.1880   -2.5387    2.6210 N   0  0  0  0  0  0  0  0  0  0  0  0
    3.2722   -3.5441    2.0588 C   0  0  0  0  0  0  0  0  0  0  0  0
    3.8350   -4.9665    2.2086 C   0  0  0  0  0  0  0  0  0  0  0  0
    4.2399   -5.3136    3.6615 C   0  0  0  0  0  0  0  0  0  0  0  0
    5.2530   -4.2284    4.1135 C   0  0  0  0  0  0  0  0  0  0  0  0
    4.6955   -2.7954    3.9787 C   0  0  0  0  0  0  0  0  0  0  0  0
    3.0536   -5.4518    4.6023 C   0  0  2  0  0  0  0  0  0  0  0  0
    2.3779   -4.6315    5.7043 C   0  0  0  0  0  0  0  0  0  0  0  0
    2.2826   -5.9951    6.4555 C   0  0  0  0  0  0  0  0  0  0  0  0
    3.5953   -6.3020    5.7404 C   0  0  1  0  0  0  0  0  0  0  0  0
    4.1771   -7.4839    5.0147 C   0  0  1  0  0  0  0  0  0  0  0  0
    3.1852   -8.6282    4.7664 C   0  0  0  0  0  0  0  0  0  0  0  0
    3.4934   -9.9429    5.1396 C   0  0  0  0  0  0  0  0  0  0  0  0
    2.5487  -10.9332    4.8303 C   0  0  0  0  0  0  0  0  0  0  0  0
    1.3707  -10.6283    4.2454 N   0  0  0  0  0  0  0  0  0  0  0  0
    1.1360   -9.3474    3.9590 C   0  0  0  0  0  0  0  0  0  0  0  0
   -0.1218   -9.0022    3.4090 N   0  0  0  0  0  0  0  0  0  0  0  0
   -0.7841   -9.7943    2.5416 N   0  0  0  0  0  0  0  0  0  0  0  0
   -1.8631   -9.0632    2.3473 C   0  0  0  0  0  0  0  0  0  0  0  0
   -1.8683   -7.8716    3.0082 N   0  0  0  0  0  0  0  0  0  0  0  0
   -0.7743   -7.8376    3.6875 N   0  0  0  0  0  0  0  0  0  0  0  0
    1.9986   -8.3499    4.1842 N   0  0  0  0  0  0  0  0  0  0  0  0
    4.8344   -6.7836    3.7627 C   0  0  1  0  0  0  0  0  0  0  0  0
    4.6740   -7.5474    2.5685 O   0  0  0  0  0  0  0  0  0  0  0  0
    5.8246   -8.3019    2.1897 C   0  0  0  0  0  0  0  0  0  0  0  0
    5.4842   -9.4332    1.2479 C   0  0  0  0  0  0  0  0  0  0  0  0
    5.8287   -9.7285    2.6794 C   0  0  0  0  0  0  0  0  0  0  0  0
    3.7161    0.6590    0.7399 H   0  0  0  0  0  0  0  0  0  0  0  0
    2.9997    0.1823    2.2953 H   0  0  0  0  0  0  0  0  0  0  0  0
    2.6073   -0.7352    0.8045 H   0  0  0  0  0  0  0  0  0  0  0  0
    2.3146   -3.4670    2.5708 H   0  0  0  0  0  0  0  0  0  0  0  0
    3.0837   -3.3315    1.0060 H   0  0  0  0  0  0  0  0  0  0  0  0
    3.0829   -5.6736    1.8534 H   0  0  0  0  0  0  0  0  0  0  0  0
    4.6954   -5.0784    1.5456 H   0  0  0  0  0  0  0  0  0  0  0  0
    5.5620   -4.3685    5.1493 H   0  0  0  0  0  0  0  0  0  0  0  0
    6.1643   -4.3168    3.5179 H   0  0  0  0  0  0  0  0  0  0  0  0
    5.4776   -2.0884    4.2486 H   0  0  0  0  0  0  0  0  0  0  0  0
    3.8846   -2.6027    4.6760 H   0  0  0  0  0  0  0  0  0  0  0  0
    2.2355   -5.9225    4.0517 H   0  0  0  0  0  0  0  0  0  0  0  0
    3.0044   -3.8958    6.2099 H   0  0  0  0  0  0  0  0  0  0  0  0
    1.4084   -4.2341    5.4085 H   0  0  0  0  0  0  0  0  0  0  0  0
    2.3892   -5.9046    7.5342 H   0  0  0  0  0  0  0  0  0  0  0  0
    1.4423   -6.6323    6.1685 H   0  0  0  0  0  0  0  0  0  0  0  0
    4.3934   -5.7941    6.2924 H   0  0  0  0  0  0  0  0  0  0  0  0
    4.9922   -7.9140    5.6002 H   0  0  0  0  0  0  0  0  0  0  0  0
    4.4427  -10.1978    5.5843 H   0  0  0  0  0  0  0  0  0  0  0  0
    2.7595  -11.9835    4.9911 H   0  0  0  0  0  0  0  0  0  0  0  0
   -2.6695   -9.4069    1.7056 H   0  0  0  0  0  0  0  0  0  0  0  0
    5.9029   -6.6749    3.9420 H   0  0  0  0  0  0  0  0  0  0  0  0
    6.7534   -7.7468    2.0424 H   0  0  0  0  0  0  0  0  0  0  0  0
    4.4357   -9.5617    0.9811 H   0  0  0  0  0  0  0  0  0  0  0  0
    6.2062   -9.7417    0.4942 H   0  0  0  0  0  0  0  0  0  0  0  0
    6.8000  -10.1737    2.8960 H   0  0  0  0  0  0  0  0  0  0  0  0
    4.9851  -10.1225    3.2345 H   0  0  0  0  0  0  0  0  0  0  0  0
  1  2  1  0
  1 32  1  0
  1 33  1  0
  1 34  1  0
  2  3  2  0
  2  4  2  0
  2  5  1  0
  5 10  1  0
  5  6  1  0
  6  7  1  0
  6 35  1  0
  6 36  1  0
  7  8  1  0
  7 37  1  0
  7 38  1  0
  8 27  1  0
  8  9  1  0
  8 11  1  0
  9 10  1  0
  9 39  1  0
  9 40  1  0
 10 41  1  0
 10 42  1  0
 11 14  1  0
 11 12  1  0
 11 43  1  6
 12 13  1  0
 12 44  1  0
 12 45  1  0
 13 14  1  0
 13 46  1  0
 13 47  1  0
 14 15  1  0
 14 48  1  1
 15 16  1  0
 15 27  1  0
 15 49  1  1
 16 26  1  0
 16 17  2  0
 17 18  1  0
 17 50  1  0
 18 19  2  0
 18 51  1  0
 19 20  1  0
 20 21  1  0
 20 26  2  0
 21 25  1  0
 21 22  1  0
 22 23  2  0
 23 24  1  0
 23 52  1  0
 24 25  2  0
 27 28  1  0
 27 53  1  1
 28 29  1  0
 29 31  1  0
 29 30  1  0
 29 54  1  0
 30 31  1  0
 30 55  1  0
 30 56  1  0
 31 57  1  0
 31 58  1  0
M  END
>  <i_m_ct_stereo_status>  (199) 
1

>  <s_m_source_file>  (199) 
/var/tmp/pbs.5076255.sched01/tmp378oxcv0/78pm6kuo1p.sdf

>  <i_m_source_file_index>  (199) 
15

>  <i_lp_mmshare_version>  (199) 
48012

>  <i_f3d_flags>  (199) 
0

>  <s_epik_input>  (199) 
W0NIM11TKD1PKSg9TylOKFtDSDJdW0NIMl0xKVtDSDJdW0NIMl1DMTJbQ0BIXTNbQ0BASF0oW0NIMl1bQ0gyXTMpW0NASF0oW0NASF0yT1tDSF00W0NIMl1bQ0gyXTQpYzVbY0hdW2NIXW5jKG41KS1uNm5bY0hdbm42

>  <s_epik_cmdline>  (199) 
J2VwaWtfcHl0aG9uJywgJy1waHQnLCAnMi4wJywgJy1waCcsICc3LjAnLCAnLXRuJywgJzgnLCAnLW1hJywgJzIwMCcsICctaW1hZScsICc8aW5maWxlLm1hZT4nLCAnLW9tYWUnLCAnPG91dGZpbGUubWFlPic=

>  <r_lp_tautomer_probability>  (199) 
1

>  <r_epik_Ionization_Penalty>  (199) 
2.72604e-05

>  <r_epik_Ionization_Penalty_Charging>  (199) 
0

>  <r_epik_Ionization_Penalty_Neutral>  (199) 
2.72604e-05

>  <r_epik_State_Penalty>  (199) 
-0

>  <r_epik_Charging_Adjusted_Penalty>  (199) 
0

>  <i_epik_Tot_Q>  (199) 
0

>  <i_epik_Tot_abs_Q>  (199) 
0

>  <s_lp_Force_Field>  (199) 
OPLS3e

>  <r_lp_Energy>  (199) 
96.0482

>  <b_lp_Chiralities_Consistent>  (199) 
1

>  <s_lp_Variant>  (199) 
63:0-1

>  <s_i_glide_gridfile>  (199) 
pfpi4k_grid

>  <i_i_glide_lignum>  (199) 
15

>  <i_i_glide_rotatable_bonds>  (199) 
5

>  <r_i_docking_score>  (199) 
-2.57554

>  <r_i_glide_ligand_efficiency>  (199) 
-0.083082

>  <r_i_glide_ligand_efficiency_sa>  (199) 
-0.260992

>  <r_i_glide_ligand_efficiency_ln>  (199) 
-0.580863

>  <r_i_glide_gscore>  (199) 
-2.57554

>  <r_i_glide_lipo>  (199) 
-0.0788062

>  <r_i_glide_hbond>  (199) 
0

>  <r_i_glide_metal>  (199) 
-0

>  <r_i_glide_rewards>  (199) 
-0.894947

>  <r_i_glide_evdw>  (199) 
-31.2788

>  <r_i_glide_ecoul>  (199) 
-1.78296

>  <r_i_glide_erotb>  (199) 
0.403194

>  <r_i_glide_esite>  (199) 
-0.173597

>  <r_i_glide_emodel>  (199) 
-36.5143

>  <r_i_glide_energy>  (199) 
-33.0618

>  <r_i_glide_einternal>  (199) 
3.58814

>  <r_i_glide_intrahb_reward>  (199) 
-0

>  <i_i_glide_confnum>  (199) 
4

>  <i_i_glide_posenum>  (199) 
3

>  <r_i_glide_eff_state_penalty>  (199) 
0

>  <ligand_id>  (199) 
63

>  <original_smiles>  (199) 
CS(=O)(=O)N1CCC2(CC1)C1CCC1C(c1ccnc(-n3ncnn3)n1)C2OC1CC1

>  <smiles>  (199) 
[H]c1nnn(-c2nc([H])c([H])c(C3([H])C([H])(OC4([H])C([H])([H])C4([H])[H])C4(C([H])([H])C([H])([H])N(S(=O)(=O)C([H])([H])[H])C([H])([H])C4([H])[H])C4([H])C([H])([H])C([H])([H])C34[H])n2)n1

$$$$
63:0:2
     RDKit          3D

 58 63  0  0  1  0  0  0  0  0999 V2000
    1.6925   -4.1740   10.1056 C   0  0  0  0  0  0  0  0  0  0  0  0
    0.0305   -4.7423    9.5666 S   0  0  0  0  0  0  0  0  0  0  0  0
   -0.5824   -5.4794   10.6804 O   0  0  0  0  0  0  0  0  0  0  0  0
   -0.6698   -3.5965    8.9648 O   0  0  0  0  0  0  0  0  0  0  0  0
    0.3696   -5.8820    8.3032 N   0  0  0  0  0  0  0  0  0  0  0  0
    0.7603   -5.4267    6.9575 C   0  0  0  0  0  0  0  0  0  0  0  0
    2.1566   -5.9302    6.5647 C   0  0  0  0  0  0  0  0  0  0  0  0
    2.3153   -7.4603    6.7116 C   0  0  0  0  0  0  0  0  0  0  0  0
    1.9649   -7.8063    8.1849 C   0  0  0  0  0  0  0  0  0  0  0  0
    0.5688   -7.3120    8.5983 C   0  0  0  0  0  0  0  0  0  0  0  0
    1.5072   -8.2485    5.6868 C   0  0  2  0  0  0  0  0  0  0  0  0
    0.2116   -9.0622    5.6574 C   0  0  0  0  0  0  0  0  0  0  0  0
    1.0358  -10.0585    4.7864 C   0  0  0  0  0  0  0  0  0  0  0  0
    2.2041   -9.5930    5.6485 C   0  0  1  0  0  0  0  0  0  0  0  0
    3.6307   -9.2050    5.4013 C   0  0  1  0  0  0  0  0  0  0  0  0
    3.9746   -9.0656    3.9174 C   0  0  0  0  0  0  0  0  0  0  0  0
    4.7377  -10.0539    3.2810 C   0  0  0  0  0  0  0  0  0  0  0  0
    5.0505   -9.8373    1.9315 C   0  0  0  0  0  0  0  0  0  0  0  0
    4.6683   -8.7178    1.2803 N   0  0  0  0  0  0  0  0  0  0  0  0
    3.9180   -7.8428    1.9516 C   0  0  0  0  0  0  0  0  0  0  0  0
    3.5108   -6.6745    1.2664 N   0  0  0  0  0  0  0  0  0  0  0  0
    4.3436   -5.9233    0.5085 N   0  0  0  0  0  0  0  0  0  0  0  0
    3.4916   -4.9976    0.0896 C   0  0  0  0  0  0  0  0  0  0  0  0
    2.2197   -5.1588    0.5438 N   0  0  0  0  0  0  0  0  0  0  0  0
    2.2298   -6.2135    1.2877 N   0  0  0  0  0  0  0  0  0  0  0  0
    3.5327   -7.9899    3.2253 N   0  0  0  0  0  0  0  0  0  0  0  0
    3.7788   -7.9310    6.3213 C   0  0  1  0  0  0  0  0  0  0  0  0
    4.5567   -6.8949    5.7206 O   0  0  0  0  0  0  0  0  0  0  0  0
    5.9535   -6.9742    5.9908 C   0  0  0  0  0  0  0  0  0  0  0  0
    6.7751   -6.2145    4.9754 C   0  0  0  0  0  0  0  0  0  0  0  0
    6.7787   -7.7224    4.9685 C   0  0  0  0  0  0  0  0  0  0  0  0
    1.5602   -3.4509   10.9152 H   0  0  0  0  0  0  0  0  0  0  0  0
    2.2072   -3.6935    9.2712 H   0  0  0  0  0  0  0  0  0  0  0  0
    2.2745   -5.0219   10.4725 H   0  0  0  0  0  0  0  0  0  0  0  0
    0.0209   -5.7857    6.2436 H   0  0  0  0  0  0  0  0  0  0  0  0
    0.7398   -4.3376    6.9097 H   0  0  0  0  0  0  0  0  0  0  0  0
    2.3461   -5.6351    5.5315 H   0  0  0  0  0  0  0  0  0  0  0  0
    2.9048   -5.4175    7.1724 H   0  0  0  0  0  0  0  0  0  0  0  0
    1.9984   -8.8804    8.3622 H   0  0  0  0  0  0  0  0  0  0  0  0
    2.7066   -7.3731    8.8592 H   0  0  0  0  0  0  0  0  0  0  0  0
    0.4139   -7.5215    9.6562 H   0  0  0  0  0  0  0  0  0  0  0  0
   -0.2116   -7.8608    8.0787 H   0  0  0  0  0  0  0  0  0  0  0  0
    1.5563   -7.7292    4.7248 H   0  0  0  0  0  0  0  0  0  0  0  0
   -0.1107   -9.4905    6.6100 H   0  0  0  0  0  0  0  0  0  0  0  0
   -0.6009   -8.5839    5.1125 H   0  0  0  0  0  0  0  0  0  0  0  0
    0.7658  -11.1010    4.9518 H   0  0  0  0  0  0  0  0  0  0  0  0
    1.1216   -9.8039    3.7256 H   0  0  0  0  0  0  0  0  0  0  0  0
    2.1357  -10.1307    6.5997 H   0  0  0  0  0  0  0  0  0  0  0  0
    4.2996   -9.9689    5.8002 H   0  0  0  0  0  0  0  0  0  0  0  0
    5.0844  -10.9285    3.8043 H   0  0  0  0  0  0  0  0  0  0  0  0
    5.6599  -10.5403    1.3778 H   0  0  0  0  0  0  0  0  0  0  0  0
    3.7923   -4.1843   -0.5578 H   0  0  0  0  0  0  0  0  0  0  0  0
    4.2790   -8.2182    7.2456 H   0  0  0  0  0  0  0  0  0  0  0  0
    6.2488   -6.9355    7.0407 H   0  0  0  0  0  0  0  0  0  0  0  0
    6.2459   -5.7362    4.1514 H   0  0  0  0  0  0  0  0  0  0  0  0
    7.6936   -5.7269    5.2955 H   0  0  0  0  0  0  0  0  0  0  0  0
    7.6519   -8.2524    5.3472 H   0  0  0  0  0  0  0  0  0  0  0  0
    6.3207   -8.1450    4.0808 H   0  0  0  0  0  0  0  0  0  0  0  0
  1  2  1  0
  1 32  1  0
  1 33  1  0
  1 34  1  0
  2  3  2  0
  2  4  2  0
  2  5  1  0
  5 10  1  0
  5  6  1  0
  6  7  1  0
  6 35  1  0
  6 36  1  0
  7  8  1  0
  7 37  1  0
  7 38  1  0
  8 27  1  0
  8  9  1  0
  8 11  1  0
  9 10  1  0
  9 39  1  0
  9 40  1  0
 10 41  1  0
 10 42  1  0
 11 14  1  0
 11 12  1  0
 11 43  1  6
 12 13  1  0
 12 44  1  0
 12 45  1  0
 13 14  1  0
 13 46  1  0
 13 47  1  0
 14 15  1  0
 14 48  1  1
 15 16  1  0
 15 27  1  0
 15 49  1  1
 16 26  1  0
 16 17  2  0
 17 18  1  0
 17 50  1  0
 18 19  2  0
 18 51  1  0
 19 20  1  0
 20 21  1  0
 20 26  2  0
 21 25  1  0
 21 22  1  0
 22 23  2  0
 23 24  1  0
 23 52  1  0
 24 25  2  0
 27 28  1  0
 27 53  1  1
 28 29  1  0
 29 31  1  0
 29 30  1  0
 29 54  1  0
 30 31  1  0
 30 55  1  0
 30 56  1  0
 31 57  1  0
 31 58  1  0
M  END
>  <i_m_ct_stereo_status>  (200) 
1

>  <s_m_source_file>  (200) 
/var/tmp/pbs.5076255.sched01/tmp378oxcv0/78pm6kuo1p.sdf

>  <i_m_source_file_index>  (200) 
15

>  <i_lp_mmshare_version>  (200) 
48012

>  <i_f3d_flags>  (200) 
0

>  <s_epik_input>  (200) 
W0NIM11TKD1PKSg9TylOKFtDSDJdW0NIMl0xKVtDSDJdW0NIMl1DMTJbQ0BIXTNbQ0BASF0oW0NIMl1bQ0gyXTMpW0NASF0oW0NASF0yT1tDSF00W0NIMl1bQ0gyXTQpYzVbY0hdW2NIXW5jKG41KS1uNm5bY0hdbm42

>  <s_epik_cmdline>  (200) 
J2VwaWtfcHl0aG9uJywgJy1waHQnLCAnMi4wJywgJy1waCcsICc3LjAnLCAnLXRuJywgJzgnLCAnLW1hJywgJzIwMCcsICctaW1hZScsICc8aW5maWxlLm1hZT4nLCAnLW9tYWUnLCAnPG91dGZpbGUubWFlPic=

>  <r_lp_tautomer_probability>  (200) 
1

>  <r_epik_Ionization_Penalty>  (200) 
2.72604e-05

>  <r_epik_Ionization_Penalty_Charging>  (200) 
0

>  <r_epik_Ionization_Penalty_Neutral>  (200) 
2.72604e-05

>  <r_epik_State_Penalty>  (200) 
-0

>  <r_epik_Charging_Adjusted_Penalty>  (200) 
0

>  <i_epik_Tot_Q>  (200) 
0

>  <i_epik_Tot_abs_Q>  (200) 
0

>  <s_lp_Force_Field>  (200) 
OPLS3e

>  <r_lp_Energy>  (200) 
96.0482

>  <b_lp_Chiralities_Consistent>  (200) 
1

>  <s_lp_Variant>  (200) 
63:0-1

>  <s_i_glide_gridfile>  (200) 
pfpi4k_grid

>  <i_i_glide_lignum>  (200) 
15

>  <i_i_glide_rotatable_bonds>  (200) 
5

>  <r_i_docking_score>  (200) 
-2.37815

>  <r_i_glide_ligand_efficiency>  (200) 
-0.0767146

>  <r_i_glide_ligand_efficiency_sa>  (200) 
-0.24099

>  <r_i_glide_ligand_efficiency_ln>  (200) 
-0.536346

>  <r_i_glide_gscore>  (200) 
-2.37815

>  <r_i_glide_lipo>  (200) 
-0.00135281

>  <r_i_glide_hbond>  (200) 
0

>  <r_i_glide_metal>  (200) 
-0

>  <r_i_glide_rewards>  (200) 
-0.457332

>  <r_i_glide_evdw>  (200) 
-24.7783

>  <r_i_glide_ecoul>  (200) 
-5.8106

>  <r_i_glide_erotb>  (200) 
0.403194

>  <r_i_glide_esite>  (200) 
-0.21216

>  <r_i_glide_emodel>  (200) 
-34.6979

>  <r_i_glide_energy>  (200) 
-30.5889

>  <r_i_glide_einternal>  (200) 
1.5348

>  <r_i_glide_intrahb_reward>  (200) 
-0

>  <i_i_glide_confnum>  (200) 
1

>  <i_i_glide_posenum>  (200) 
1

>  <r_i_glide_eff_state_penalty>  (200) 
0

>  <ligand_id>  (200) 
63

>  <original_smiles>  (200) 
CS(=O)(=O)N1CCC2(CC1)C1CCC1C(c1ccnc(-n3ncnn3)n1)C2OC1CC1

>  <smiles>  (200) 
[H]c1nnn(-c2nc([H])c([H])c(C3([H])C([H])(OC4([H])C([H])([H])C4([H])[H])C4(C([H])([H])C([H])([H])N(S(=O)(=O)C([H])([H])[H])C([H])([H])C4([H])[H])C4([H])C([H])([H])C([H])([H])C34[H])n2)n1

$$$$
64:0:0
     RDKit          3D

 51 54  0  0  1  0  0  0  0  0999 V2000
    3.7268   -7.2013    2.4724 C   0  0  0  0  0  0  0  0  0  0  0  0
    3.8296   -5.7274    2.0205 C   0  0  2  0  0  0  0  0  0  0  0  0
    2.6192   -5.4361    1.1011 C   0  0  0  0  0  0  0  0  0  0  0  0
    2.7417   -4.2348    0.1594 C   0  0  0  0  0  0  0  0  0  0  0  0
    4.0678   -4.2415   -0.6342 C   0  0  2  0  0  0  0  0  0  0  0  0
    5.2441   -4.2167    0.3739 C   0  0  1  0  0  0  0  0  0  0  0  0
    5.3597   -2.7951    0.9905 C   0  0  0  0  0  0  0  0  0  0  0  0
    5.4788   -1.7108   -0.0933 C   0  0  0  0  0  0  0  0  0  0  0  0
    4.3377   -1.7700   -1.1309 C   0  0  1  0  0  0  0  0  0  0  0  0
    4.4614   -0.7024   -2.2219 C   0  0  0  0  0  0  0  0  0  0  0  0
    3.2940   -0.6740   -3.2098 C   0  0  1  0  0  0  0  0  0  0  0  0
    3.5431    0.2452   -4.2467 O   0  0  0  0  0  0  0  0  0  0  0  0
    3.0200   -2.0471   -3.8074 C   0  0  0  0  0  0  0  0  0  0  0  0
    2.9518   -3.1159   -2.7121 C   0  0  0  0  0  0  0  0  0  0  0  0
    4.1991   -3.1683   -1.7745 C   0  0  2  0  0  0  0  0  0  0  0  0
    5.4334   -3.5201   -2.6429 C   0  0  0  0  0  0  0  0  0  0  0  0
    5.1886   -5.4479    1.3414 C   0  0  1  0  0  0  0  0  0  0  0  0
    6.1890   -5.3238    2.5053 C   0  0  0  0  0  0  0  0  0  0  0  0
    5.4181   -4.6882    3.6744 C   0  0  0  0  0  0  0  0  0  0  0  0
    3.9638   -4.8749    3.2809 C   0  0  0  0  0  0  0  0  0  0  0  0
    3.0043   -4.4446    3.9390 O   0  0  0  0  0  0  0  0  0  0  0  0
    3.8613   -7.8829    1.6309 H   0  0  0  0  0  0  0  0  0  0  0  0
    2.7501   -7.4123    2.9042 H   0  0  0  0  0  0  0  0  0  0  0  0
    4.4677   -7.4657    3.2227 H   0  0  0  0  0  0  0  0  0  0  0  0
    2.4339   -6.3274    0.4787 H   0  0  0  0  0  0  0  0  0  0  0  0
    1.7365   -5.3023    1.7128 H   0  0  0  0  0  0  0  0  0  0  0  0
    1.8895   -4.2863   -0.5159 H   0  0  0  0  0  0  0  0  0  0  0  0
    2.6069   -3.3082    0.7268 H   0  0  0  0  0  0  0  0  0  0  0  0
    4.1632   -5.2079   -1.1226 H   0  0  0  0  0  0  0  0  0  0  0  0
    6.1700   -4.3718   -0.1771 H   0  0  0  0  0  0  0  0  0  0  0  0
    4.4991   -2.5762    1.6213 H   0  0  0  0  0  0  0  0  0  0  0  0
    6.2377   -2.7299    1.6359 H   0  0  0  0  0  0  0  0  0  0  0  0
    5.4694   -0.7333    0.3849 H   0  0  0  0  0  0  0  0  0  0  0  0
    6.4451   -1.8025   -0.5870 H   0  0  0  0  0  0  0  0  0  0  0  0
    3.4143   -1.5513   -0.6006 H   0  0  0  0  0  0  0  0  0  0  0  0
    4.4796    0.2373   -1.7156 H   0  0  0  0  0  0  0  0  0  0  0  0
    5.4115   -0.7898   -2.7372 H   0  0  0  0  0  0  0  0  0  0  0  0
    2.3954   -0.3515   -2.6844 H   0  0  0  0  0  0  0  0  0  0  0  0
    3.2263    1.0918   -3.9476 H   0  0  0  0  0  0  0  0  0  0  0  0
    2.0624   -2.0303   -4.3228 H   0  0  0  0  0  0  0  0  0  0  0  0
    3.7672   -2.3020   -4.5576 H   0  0  0  0  0  0  0  0  0  0  0  0
    2.0540   -2.9129   -2.1373 H   0  0  0  0  0  0  0  0  0  0  0  0
    2.7956   -4.0667   -3.2200 H   0  0  0  0  0  0  0  0  0  0  0  0
    5.5653   -2.8682   -3.5011 H   0  0  0  0  0  0  0  0  0  0  0  0
    5.3461   -4.5306   -3.0389 H   0  0  0  0  0  0  0  0  0  0  0  0
    6.3756   -3.4670   -2.1057 H   0  0  0  0  0  0  0  0  0  0  0  0
    5.4592   -6.3209    0.7382 H   0  0  0  0  0  0  0  0  0  0  0  0
    6.5309   -6.3168    2.8001 H   0  0  0  0  0  0  0  0  0  0  0  0
    7.0907   -4.7638    2.2286 H   0  0  0  0  0  0  0  0  0  0  0  0
    5.6454   -5.1780    4.6235 H   0  0  0  0  0  0  0  0  0  0  0  0
    5.6322   -3.6275    3.7764 H   0  0  0  0  0  0  0  0  0  0  0  0
  2  1  1  1
  1 22  1  0
  1 23  1  0
  1 24  1  0
  2 17  1  0
  2 20  1  0
  2  3  1  0
  3  4  1  0
  3 25  1  0
  3 26  1  0
  4  5  1  0
  4 27  1  0
  4 28  1  0
  5 15  1  0
  5  6  1  0
  5 29  1  6
  6  7  1  0
  6 17  1  0
  6 30  1  6
  7  8  1  0
  7 31  1  0
  7 32  1  0
  8  9  1  0
  8 33  1  0
  8 34  1  0
  9 15  1  0
  9 10  1  0
  9 35  1  1
 10 11  1  0
 10 36  1  0
 10 37  1  0
 11 12  1  0
 11 13  1  0
 11 38  1  1
 12 39  1  0
 13 14  1  0
 13 40  1  0
 13 41  1  0
 14 15  1  0
 14 42  1  0
 14 43  1  0
 15 16  1  6
 16 44  1  0
 16 45  1  0
 16 46  1  0
 17 18  1  0
 17 47  1  6
 18 19  1  0
 18 48  1  0
 18 49  1  0
 19 20  1  0
 19 50  1  0
 19 51  1  0
 20 21  2  0
M  END
>  <i_m_ct_stereo_status>  (201) 
1

>  <s_m_source_file>  (201) 
/var/tmp/pbs.5076255.sched01/tmp378oxcv0/78pm6kuo1p.sdf

>  <i_m_source_file_index>  (201) 
16

>  <i_lp_mmshare_version>  (201) 
48012

>  <i_f3d_flags>  (201) 
0

>  <s_epik_input>  (201) 
Tz1DMVtDSDJdW0NIMl1bQ0BASF0oW0NAQF0xMltDSDNdKVtDQEhdM1tDQEBIXShbQ0gyXVtDSDJdMilbQ0BdNChbQ0gzXSlbQ0BASF0oW0NIMl1bQ0gyXTMpW0NIMl1bQ0BASF0oW09IXSlbQ0gyXVtDSDJdNA==

>  <s_epik_cmdline>  (201) 
J2VwaWtfcHl0aG9uJywgJy1waHQnLCAnMi4wJywgJy1waCcsICc3LjAnLCAnLXRuJywgJzgnLCAnLW1hJywgJzIwMCcsICctaW1hZScsICc8aW5maWxlLm1hZT4nLCAnLW9tYWUnLCAnPG91dGZpbGUubWFlPic=

>  <r_lp_tautomer_probability>  (201) 
1

>  <r_epik_Ionization_Penalty>  (201) 
2.96302e-06

>  <r_epik_Ionization_Penalty_Charging>  (201) 
0

>  <r_epik_Ionization_Penalty_Neutral>  (201) 
2.96302e-06

>  <r_epik_State_Penalty>  (201) 
-0

>  <r_epik_Charging_Adjusted_Penalty>  (201) 
0

>  <i_epik_Tot_Q>  (201) 
0

>  <i_epik_Tot_abs_Q>  (201) 
0

>  <s_lp_Force_Field>  (201) 
OPLS3e

>  <r_lp_Energy>  (201) 
32.0637

>  <b_lp_Chiralities_Consistent>  (201) 
1

>  <s_lp_Variant>  (201) 
64:0-1

>  <s_i_glide_gridfile>  (201) 
pfpi4k_grid

>  <i_i_glide_lignum>  (201) 
16

>  <i_i_glide_rotatable_bonds>  (201) 
1

>  <r_i_docking_score>  (201) 
-4.06262

>  <r_i_glide_ligand_efficiency>  (201) 
-0.193458

>  <r_i_glide_ligand_efficiency_sa>  (201) 
-0.533736

>  <r_i_glide_ligand_efficiency_ln>  (201) 
-1.00447

>  <r_i_glide_gscore>  (201) 
-4.06262

>  <r_i_glide_lipo>  (201) 
-0.648948

>  <r_i_glide_hbond>  (201) 
-0.270825

>  <r_i_glide_metal>  (201) 
-0

>  <r_i_glide_rewards>  (201) 
-1.42882

>  <r_i_glide_evdw>  (201) 
-24.2118

>  <r_i_glide_ecoul>  (201) 
-3.35628

>  <r_i_glide_erotb>  (201) 
0

>  <r_i_glide_esite>  (201) 
0

>  <r_i_glide_emodel>  (201) 
-32.9196

>  <r_i_glide_energy>  (201) 
-27.5681

>  <r_i_glide_einternal>  (201) 
0.822794

>  <r_i_glide_intrahb_reward>  (201) 
-0

>  <i_i_glide_confnum>  (201) 
1

>  <i_i_glide_posenum>  (201) 
14

>  <r_i_glide_eff_state_penalty>  (201) 
0

>  <ligand_id>  (201) 
64

>  <original_smiles>  (201) 
CC12CCC3C(CCC4CC(O)CCC43C)C1CCC2=O

>  <smiles>  (201) 
[H]OC1([H])C([H])([H])C([H])([H])C2(C([H])([H])[H])C([H])(C([H])([H])C([H])([H])C3([H])C4([H])C([H])([H])C([H])([H])C(=O)C4(C([H])([H])[H])C([H])([H])C([H])([H])C32[H])C1([H])[H]

$$$$
64:0:1
     RDKit          3D

 51 54  0  0  1  0  0  0  0  0999 V2000
    2.7952   -7.3499    2.4630 C   0  0  0  0  0  0  0  0  0  0  0  0
    2.9231   -5.8565    2.0677 C   0  0  2  0  0  0  0  0  0  0  0  0
    2.0486   -5.6514    0.8107 C   0  0  0  0  0  0  0  0  0  0  0  0
    2.3493   -4.4189   -0.0538 C   0  0  0  0  0  0  0  0  0  0  0  0
    3.8493   -4.3131   -0.3962 C   0  0  2  0  0  0  0  0  0  0  0  0
    4.6466   -4.2119    0.9221 C   0  0  1  0  0  0  0  0  0  0  0  0
    4.4494   -2.7986    1.5383 C   0  0  0  0  0  0  0  0  0  0  0  0
    4.8178   -1.6870    0.5359 C   0  0  0  0  0  0  0  0  0  0  0  0
    4.0733   -1.8177   -0.8079 C   0  0  1  0  0  0  0  0  0  0  0  0
    4.4481   -0.7271   -1.8158 C   0  0  0  0  0  0  0  0  0  0  0  0
    3.5891   -0.7644   -3.0939 C   0  0  1  0  0  0  0  0  0  0  0  0
    3.9906    0.2019   -4.0367 O   0  0  0  0  0  0  0  0  0  0  0  0
    3.6499   -2.1347   -3.7576 C   0  0  0  0  0  0  0  0  0  0  0  0
    3.3461   -3.2383   -2.7353 C   0  0  0  0  0  0  0  0  0  0  0  0
    4.2336   -3.2059   -1.4478 C   0  0  2  0  0  0  0  0  0  0  0  0
    5.6942   -3.4447   -1.8954 C   0  0  0  0  0  0  0  0  0  0  0  0
    4.3973   -5.4609    1.8329 C   0  0  1  0  0  0  0  0  0  0  0  0
    4.9767   -5.2798    3.2528 C   0  0  0  0  0  0  0  0  0  0  0  0
    3.8267   -4.7312    4.1213 C   0  0  0  0  0  0  0  0  0  0  0  0
    2.5885   -5.0313    3.3022 C   0  0  0  0  0  0  0  0  0  0  0  0
    1.4415   -4.6855    3.6154 O   0  0  0  0  0  0  0  0  0  0  0  0
    3.2368   -7.9997    1.7073 H   0  0  0  0  0  0  0  0  0  0  0  0
    1.7493   -7.6414    2.5697 H   0  0  0  0  0  0  0  0  0  0  0  0
    3.2847   -7.5731    3.4109 H   0  0  0  0  0  0  0  0  0  0  0  0
    2.1294   -6.5310    0.1697 H   0  0  0  0  0  0  0  0  0  0  0  0
    1.0142   -5.6259    1.1253 H   0  0  0  0  0  0  0  0  0  0  0  0
    1.7486   -4.5234   -0.9573 H   0  0  0  0  0  0  0  0  0  0  0  0
    1.9893   -3.5169    0.4344 H   0  0  0  0  0  0  0  0  0  0  0  0
    4.1332   -5.2702   -0.8345 H   0  0  0  0  0  0  0  0  0  0  0  0
    5.7044   -4.2873    0.6890 H   0  0  0  0  0  0  0  0  0  0  0  0
    3.4200   -2.6587    1.8683 H   0  0  0  0  0  0  0  0  0  0  0  0
    5.0739   -2.6805    2.4242 H   0  0  0  0  0  0  0  0  0  0  0  0
    4.5742   -0.7259    0.9864 H   0  0  0  0  0  0  0  0  0  0  0  0
    5.8936   -1.6885    0.3767 H   0  0  0  0  0  0  0  0  0  0  0  0
    3.0172   -1.6699   -0.5818 H   0  0  0  0  0  0  0  0  0  0  0  0
    4.2193    0.1644   -1.2798 H   0  0  0  0  0  0  0  0  0  0  0  0
    5.5150   -0.7125   -2.0397 H   0  0  0  0  0  0  0  0  0  0  0  0
    2.5603   -0.5367   -2.8391 H   0  0  0  0  0  0  0  0  0  0  0  0
    3.6886    1.0456   -3.7377 H   0  0  0  0  0  0  0  0  0  0  0  0
    2.9201   -2.1834   -4.5664 H   0  0  0  0  0  0  0  0  0  0  0  0
    4.6202   -2.2980   -4.2272 H   0  0  0  0  0  0  0  0  0  0  0  0
    2.2983   -3.1253   -2.4681 H   0  0  0  0  0  0  0  0  0  0  0  0
    3.4616   -4.1905   -3.2523 H   0  0  0  0  0  0  0  0  0  0  0  0
    6.0384   -2.7665   -2.6756 H   0  0  0  0  0  0  0  0  0  0  0  0
    5.7513   -4.4467   -2.3080 H   0  0  0  0  0  0  0  0  0  0  0  0
    6.4245   -3.3519   -1.0880 H   0  0  0  0  0  0  0  0  0  0  0  0
    4.9027   -6.3020    1.3500 H   0  0  0  0  0  0  0  0  0  0  0  0
    5.2834   -6.2554    3.6383 H   0  0  0  0  0  0  0  0  0  0  0  0
    5.8677   -4.6484    3.2686 H   0  0  0  0  0  0  0  0  0  0  0  0
    3.7943   -5.2210    5.0933 H   0  0  0  0  0  0  0  0  0  0  0  0
    3.9215   -3.6611    4.2840 H   0  0  0  0  0  0  0  0  0  0  0  0
  2  1  1  1
  1 22  1  0
  1 23  1  0
  1 24  1  0
  2 17  1  0
  2 20  1  0
  2  3  1  0
  3  4  1  0
  3 25  1  0
  3 26  1  0
  4  5  1  0
  4 27  1  0
  4 28  1  0
  5 15  1  0
  5  6  1  0
  5 29  1  6
  6  7  1  0
  6 17  1  0
  6 30  1  6
  7  8  1  0
  7 31  1  0
  7 32  1  0
  8  9  1  0
  8 33  1  0
  8 34  1  0
  9 15  1  0
  9 10  1  0
  9 35  1  1
 10 11  1  0
 10 36  1  0
 10 37  1  0
 11 12  1  0
 11 13  1  0
 11 38  1  1
 12 39  1  0
 13 14  1  0
 13 40  1  0
 13 41  1  0
 14 15  1  0
 14 42  1  0
 14 43  1  0
 15 16  1  6
 16 44  1  0
 16 45  1  0
 16 46  1  0
 17 18  1  0
 17 47  1  6
 18 19  1  0
 18 48  1  0
 18 49  1  0
 19 20  1  0
 19 50  1  0
 19 51  1  0
 20 21  2  0
M  END
>  <i_m_ct_stereo_status>  (202) 
1

>  <s_m_source_file>  (202) 
/var/tmp/pbs.5076255.sched01/tmp378oxcv0/78pm6kuo1p.sdf

>  <i_m_source_file_index>  (202) 
16

>  <i_lp_mmshare_version>  (202) 
48012

>  <i_f3d_flags>  (202) 
0

>  <s_epik_input>  (202) 
Tz1DMVtDSDJdW0NIMl1bQ0BASF0oW0NAQF0xMltDSDNdKVtDQEhdM1tDQEBIXShbQ0gyXVtDSDJdMilbQ0BdNChbQ0gzXSlbQ0BASF0oW0NIMl1bQ0gyXTMpW0NIMl1bQ0BASF0oW09IXSlbQ0gyXVtDSDJdNA==

>  <s_epik_cmdline>  (202) 
J2VwaWtfcHl0aG9uJywgJy1waHQnLCAnMi4wJywgJy1waCcsICc3LjAnLCAnLXRuJywgJzgnLCAnLW1hJywgJzIwMCcsICctaW1hZScsICc8aW5maWxlLm1hZT4nLCAnLW9tYWUnLCAnPG91dGZpbGUubWFlPic=

>  <r_lp_tautomer_probability>  (202) 
1

>  <r_epik_Ionization_Penalty>  (202) 
2.96302e-06

>  <r_epik_Ionization_Penalty_Charging>  (202) 
0

>  <r_epik_Ionization_Penalty_Neutral>  (202) 
2.96302e-06

>  <r_epik_State_Penalty>  (202) 
-0

>  <r_epik_Charging_Adjusted_Penalty>  (202) 
0

>  <i_epik_Tot_Q>  (202) 
0

>  <i_epik_Tot_abs_Q>  (202) 
0

>  <s_lp_Force_Field>  (202) 
OPLS3e

>  <r_lp_Energy>  (202) 
32.0637

>  <b_lp_Chiralities_Consistent>  (202) 
1

>  <s_lp_Variant>  (202) 
64:0-1

>  <s_i_glide_gridfile>  (202) 
pfpi4k_grid

>  <i_i_glide_lignum>  (202) 
16

>  <i_i_glide_rotatable_bonds>  (202) 
1

>  <r_i_docking_score>  (202) 
-3.37095

>  <r_i_glide_ligand_efficiency>  (202) 
-0.160521

>  <r_i_glide_ligand_efficiency_sa>  (202) 
-0.442867

>  <r_i_glide_ligand_efficiency_ln>  (202) 
-0.833461

>  <r_i_glide_gscore>  (202) 
-3.37095

>  <r_i_glide_lipo>  (202) 
-0.489725

>  <r_i_glide_hbond>  (202) 
-0.115477

>  <r_i_glide_metal>  (202) 
-0

>  <r_i_glide_rewards>  (202) 
-1.42882

>  <r_i_glide_evdw>  (202) 
-20.3957

>  <r_i_glide_ecoul>  (202) 
-2.11037

>  <r_i_glide_erotb>  (202) 
0

>  <r_i_glide_esite>  (202) 
-0.000596223

>  <r_i_glide_emodel>  (202) 
-27.1929

>  <r_i_glide_energy>  (202) 
-22.506

>  <r_i_glide_einternal>  (202) 
0.606076

>  <r_i_glide_intrahb_reward>  (202) 
-0

>  <i_i_glide_confnum>  (202) 
2

>  <i_i_glide_posenum>  (202) 
38

>  <r_i_glide_eff_state_penalty>  (202) 
0

>  <ligand_id>  (202) 
64

>  <original_smiles>  (202) 
CC12CCC3C(CCC4CC(O)CCC43C)C1CCC2=O

>  <smiles>  (202) 
[H]OC1([H])C([H])([H])C([H])([H])C2(C([H])([H])[H])C([H])(C([H])([H])C([H])([H])C3([H])C4([H])C([H])([H])C([H])([H])C(=O)C4(C([H])([H])[H])C([H])([H])C([H])([H])C32[H])C1([H])[H]

$$$$
65:0:0
     RDKit          3D

 41 44  0  0  1  0  0  0  0  0999 V2000
    4.2784   -0.9775    0.5095 C   0  0  0  0  0  0  0  0  0  0  0  0
    4.0249   -1.8836    1.4668 C   0  0  0  0  0  0  0  0  0  0  0  0
    4.2572   -3.3822    1.3277 C   0  0  2  0  0  0  0  0  0  0  0  0
    2.8766   -4.1438    1.4127 C   0  0  1  0  0  0  0  0  0  0  0  0
    2.7043   -5.1925    0.2974 C   0  0  0  0  0  0  0  0  0  0  0  0
    1.4344   -5.8408    0.2999 O   0  0  0  0  0  0  0  0  0  0  0  0
    0.9617   -6.2751    1.5083 C   0  0  0  0  0  0  0  0  0  0  0  0
   -0.1119   -7.2335    1.4624 C   0  0  0  0  0  0  0  0  0  0  0  0
   -0.6359   -7.6869    2.6082 C   0  0  0  0  0  0  0  0  0  0  0  0
   -1.7413   -8.7110    2.7128 C   0  0  0  0  0  0  0  0  0  0  0  0
   -0.1923   -7.2463    3.8341 O   0  0  0  0  0  0  0  0  0  0  0  0
    0.8224   -6.3227    3.9666 C   0  0  0  0  0  0  0  0  0  0  0  0
    1.1627   -5.9222    5.0780 O   0  0  0  0  0  0  0  0  0  0  0  0
    1.4409   -5.8305    2.6948 C   0  0  0  0  0  0  0  0  0  0  0  0
    2.5136   -4.7394    2.8164 C   0  0  1  0  0  0  0  0  0  0  0  0
    3.7645   -5.1636    3.6425 C   0  0  1  0  0  0  0  0  0  0  0  0
    4.6851   -6.0989    2.8623 C   0  0  0  0  0  0  0  0  0  0  0  0
    4.4905   -7.3035    2.7129 O   0  0  0  0  0  0  0  0  0  0  0  0
    5.8350   -5.3088    2.2329 C   0  0  1  0  0  0  0  0  0  0  0  0
    6.3276   -5.7879    0.8654 C   0  0  0  0  0  0  0  0  0  0  0  0
    5.3528   -3.8446    2.3520 C   0  0  2  0  0  0  0  0  0  0  0  0
    4.6740   -3.9592    3.6992 C   0  0  0  0  0  0  0  0  0  0  0  0
    4.8542   -3.2220    4.6665 O   0  0  0  0  0  0  0  0  0  0  0  0
    4.6742   -1.2646   -0.4544 H   0  0  0  0  0  0  0  0  0  0  0  0
    4.0896    0.0722    0.6809 H   0  0  0  0  0  0  0  0  0  0  0  0
    3.6267   -1.5423    2.4130 H   0  0  0  0  0  0  0  0  0  0  0  0
    4.6604   -3.5252    0.3250 H   0  0  0  0  0  0  0  0  0  0  0  0
    2.1034   -3.4084    1.1934 H   0  0  0  0  0  0  0  0  0  0  0  0
    2.8271   -4.7108   -0.6714 H   0  0  0  0  0  0  0  0  0  0  0  0
    3.4565   -5.9755    0.3543 H   0  0  0  0  0  0  0  0  0  0  0  0
   -0.4680   -7.5977    0.5084 H   0  0  0  0  0  0  0  0  0  0  0  0
   -2.0688   -9.0627    1.7331 H   0  0  0  0  0  0  0  0  0  0  0  0
   -2.5912   -8.2784    3.2389 H   0  0  0  0  0  0  0  0  0  0  0  0
   -1.3904   -9.5711    3.2853 H   0  0  0  0  0  0  0  0  0  0  0  0
    2.0388   -3.9294    3.3774 H   0  0  0  0  0  0  0  0  0  0  0  0
    6.6772   -5.4284    2.9160 H   0  0  0  0  0  0  0  0  0  0  0  0
    6.6497   -6.8277    0.9141 H   0  0  0  0  0  0  0  0  0  0  0  0
    7.1839   -5.1997    0.5394 H   0  0  0  0  0  0  0  0  0  0  0  0
    5.5723   -5.7134    0.0894 H   0  0  0  0  0  0  0  0  0  0  0  0
    6.1960   -3.1521    2.3848 H   0  0  0  0  0  0  0  0  0  0  0  0
    3.5501   -5.5387    4.6421 H   0  0  0  0  0  0  0  0  0  0  0  0
  1  2  2  0
  1 24  1  0
  1 25  1  0
  2  3  1  0
  2 26  1  0
  3  4  1  0
  3 27  1  6
  3 21  1  0
  4 15  1  0
  4  5  1  0
  4 28  1  6
  5  6  1  0
  5 29  1  0
  5 30  1  0
  6  7  1  0
  7 14  2  0
  7  8  1  0
  8  9  2  0
  8 31  1  0
  9 10  1  0
  9 11  1  0
 10 32  1  0
 10 33  1  0
 10 34  1  0
 11 12  1  0
 12 13  2  0
 12 14  1  0
 14 15  1  0
 15 35  1  1
 15 16  1  0
 16 22  1  0
 16 17  1  0
 16 41  1  1
 17 19  1  0
 17 18  2  0
 19 20  1  0
 19 36  1  1
 19 21  1  0
 20 37  1  0
 20 38  1  0
 20 39  1  0
 21 40  1  1
 21 22  1  0
 22 23  2  0
M  END
>  <i_m_ct_stereo_status>  (203) 
1

>  <s_m_source_file>  (203) 
/var/tmp/pbs.5076255.sched01/tmp378oxcv0/78pm6kuo1p.sdf

>  <i_m_source_file_index>  (203) 
17

>  <i_lp_mmshare_version>  (203) 
48012

>  <i_f3d_flags>  (203) 
0

>  <s_epik_input>  (203) 
W0NIMl09W0NIXVtDQEhdMVtDQEhdKEMyPU8pW0NASF0oW0NIM10pQyg9TylbQ0BIXTJbQ0BASF0oW0NAQEhdMTMpYzRjKE9bQ0gyXTMpW2NIXWMoW0NIM10pb2M0PU8=

>  <s_epik_cmdline>  (203) 
J2VwaWtfcHl0aG9uJywgJy1waHQnLCAnMi4wJywgJy1waCcsICc3LjAnLCAnLXRuJywgJzgnLCAnLW1hJywgJzIwMCcsICctaW1hZScsICc8aW5maWxlLm1hZT4nLCAnLW9tYWUnLCAnPG91dGZpbGUubWFlPic=

>  <r_lp_tautomer_probability>  (203) 
1

>  <r_epik_Ionization_Penalty>  (203) 
0.00581655

>  <r_epik_Ionization_Penalty_Charging>  (203) 
0

>  <r_epik_Ionization_Penalty_Neutral>  (203) 
0.00581655

>  <r_epik_State_Penalty>  (203) 
-0

>  <r_epik_Charging_Adjusted_Penalty>  (203) 
0

>  <i_epik_Tot_Q>  (203) 
0

>  <i_epik_Tot_abs_Q>  (203) 
0

>  <s_lp_Force_Field>  (203) 
OPLS3e

>  <r_lp_Energy>  (203) 
12.7255

>  <b_lp_Chiralities_Consistent>  (203) 
1

>  <s_lp_Variant>  (203) 
65:0-1

>  <s_i_glide_gridfile>  (203) 
pfpi4k_grid

>  <i_i_glide_lignum>  (203) 
17

>  <i_i_glide_rotatable_bonds>  (203) 
1

>  <r_i_docking_score>  (203) 
-2.9511

>  <r_i_glide_ligand_efficiency>  (203) 
-0.128309

>  <r_i_glide_ligand_efficiency_sa>  (203) 
-0.364893

>  <r_i_glide_ligand_efficiency_ln>  (203) 
-0.713603

>  <r_i_glide_gscore>  (203) 
-2.9511

>  <r_i_glide_lipo>  (203) 
-0.231971

>  <r_i_glide_hbond>  (203) 
-0.150441

>  <r_i_glide_metal>  (203) 
-0

>  <r_i_glide_rewards>  (203) 
-1.28369

>  <r_i_glide_evdw>  (203) 
-22.0423

>  <r_i_glide_ecoul>  (203) 
-2.47335

>  <r_i_glide_erotb>  (203) 
0.188117

>  <r_i_glide_esite>  (203) 
0

>  <r_i_glide_emodel>  (203) 
-29.7836

>  <r_i_glide_energy>  (203) 
-24.5156

>  <r_i_glide_einternal>  (203) 
0.0036505

>  <r_i_glide_intrahb_reward>  (203) 
-0

>  <i_i_glide_confnum>  (203) 
1

>  <i_i_glide_posenum>  (203) 
3

>  <r_i_glide_eff_state_penalty>  (203) 
0

>  <ligand_id>  (203) 
65

>  <original_smiles>  (203) 
C=CC1C2COc3cc(C)oc(=O)c3C2C2C(=O)C(C)C1C2=O

>  <smiles>  (203) 
[H]C([H])=C([H])C1([H])C2([H])C(=O)C([H])(C(=O)C2([H])C([H])([H])[H])C2([H])c3c(c([H])c(C([H])([H])[H])oc3=O)OC([H])([H])C12[H]

$$$$
65:0:1
     RDKit          3D

 41 44  0  0  1  0  0  0  0  0999 V2000
   -3.4062    4.3568    2.4801 C   0  0  0  0  0  0  0  0  0  0  0  0
   -2.9443    3.3386    3.2216 C   0  0  0  0  0  0  0  0  0  0  0  0
   -1.4812    3.1315    3.5756 C   0  0  2  0  0  0  0  0  0  0  0  0
   -1.0536    1.6480    3.2441 C   0  0  1  0  0  0  0  0  0  0  0  0
    0.2792    1.5660    2.4744 C   0  0  0  0  0  0  0  0  0  0  0  0
    0.6419    0.2462    2.0949 O   0  0  0  0  0  0  0  0  0  0  0  0
    0.5337   -0.7278    3.0493 C   0  0  0  0  0  0  0  0  0  0  0  0
    1.2405   -1.9555    2.7914 C   0  0  0  0  0  0  0  0  0  0  0  0
    1.1481   -2.9657    3.6710 C   0  0  0  0  0  0  0  0  0  0  0  0
    1.8480   -4.3004    3.5413 C   0  0  0  0  0  0  0  0  0  0  0  0
    0.3849   -2.8627    4.8094 O   0  0  0  0  0  0  0  0  0  0  0  0
   -0.3326   -1.7275    5.1210 C   0  0  0  0  0  0  0  0  0  0  0  0
   -1.0407   -1.6867    6.1248 O   0  0  0  0  0  0  0  0  0  0  0  0
   -0.2185   -0.5847    4.1649 C   0  0  0  0  0  0  0  0  0  0  0  0
   -1.0767    0.6532    4.4549 C   0  0  1  0  0  0  0  0  0  0  0  0
   -0.7580    1.3373    5.8162 C   0  0  1  0  0  0  0  0  0  0  0  0
    0.5411    2.1361    5.7721 C   0  0  0  0  0  0  0  0  0  0  0  0
    1.6624    1.6442    5.8852 O   0  0  0  0  0  0  0  0  0  0  0  0
    0.2461    3.6183    5.5220 C   0  0  1  0  0  0  0  0  0  0  0  0
    1.2634    4.3879    4.6693 C   0  0  0  0  0  0  0  0  0  0  0  0
   -1.2261    3.5985    5.0511 C   0  0  2  0  0  0  0  0  0  0  0  0
   -1.7183    2.4918    5.9538 C   0  0  0  0  0  0  0  0  0  0  0  0
   -2.7012    2.5366    6.6899 O   0  0  0  0  0  0  0  0  0  0  0  0
   -2.7448    5.1133    2.0785 H   0  0  0  0  0  0  0  0  0  0  0  0
   -4.4606    4.4364    2.2570 H   0  0  0  0  0  0  0  0  0  0  0  0
   -3.6408    2.6065    3.6040 H   0  0  0  0  0  0  0  0  0  0  0  0
   -0.9239    3.7987    2.9169 H   0  0  0  0  0  0  0  0  0  0  0  0
   -1.7820    1.2632    2.5297 H   0  0  0  0  0  0  0  0  0  0  0  0
    0.2056    2.1443    1.5577 H   0  0  0  0  0  0  0  0  0  0  0  0
    1.1074    1.9754    3.0475 H   0  0  0  0  0  0  0  0  0  0  0  0
    1.8359   -2.0489    1.8960 H   0  0  0  0  0  0  0  0  0  0  0  0
    2.4623   -4.3529    2.6397 H   0  0  0  0  0  0  0  0  0  0  0  0
    1.1098   -5.1039    3.5134 H   0  0  0  0  0  0  0  0  0  0  0  0
    2.4920   -4.4571    4.4092 H   0  0  0  0  0  0  0  0  0  0  0  0
   -2.1034    0.2823    4.5263 H   0  0  0  0  0  0  0  0  0  0  0  0
    0.2665    4.0863    6.5091 H   0  0  0  0  0  0  0  0  0  0  0  0
    2.2577    4.3334    5.1139 H   0  0  0  0  0  0  0  0  0  0  0  0
    0.9948    5.4420    4.6094 H   0  0  0  0  0  0  0  0  0  0  0  0
    1.3355    4.0167    3.6515 H   0  0  0  0  0  0  0  0  0  0  0  0
   -1.7215    4.5421    5.2758 H   0  0  0  0  0  0  0  0  0  0  0  0
   -0.8058    0.6835    6.6858 H   0  0  0  0  0  0  0  0  0  0  0  0
  1  2  2  0
  1 24  1  0
  1 25  1  0
  2  3  1  0
  2 26  1  0
  3  4  1  0
  3 27  1  6
  3 21  1  0
  4 15  1  0
  4  5  1  0
  4 28  1  6
  5  6  1  0
  5 29  1  0
  5 30  1  0
  6  7  1  0
  7 14  2  0
  7  8  1  0
  8  9  2  0
  8 31  1  0
  9 10  1  0
  9 11  1  0
 10 32  1  0
 10 33  1  0
 10 34  1  0
 11 12  1  0
 12 13  2  0
 12 14  1  0
 14 15  1  0
 15 35  1  1
 15 16  1  0
 16 22  1  0
 16 17  1  0
 16 41  1  1
 17 19  1  0
 17 18  2  0
 19 20  1  0
 19 36  1  1
 19 21  1  0
 20 37  1  0
 20 38  1  0
 20 39  1  0
 21 40  1  1
 21 22  1  0
 22 23  2  0
M  END
>  <i_m_ct_stereo_status>  (204) 
1

>  <s_m_source_file>  (204) 
/var/tmp/pbs.5076255.sched01/tmp378oxcv0/78pm6kuo1p.sdf

>  <i_m_source_file_index>  (204) 
17

>  <i_lp_mmshare_version>  (204) 
48012

>  <i_f3d_flags>  (204) 
0

>  <s_epik_input>  (204) 
W0NIMl09W0NIXVtDQEhdMVtDQEhdKEMyPU8pW0NASF0oW0NIM10pQyg9TylbQ0BIXTJbQ0BASF0oW0NAQEhdMTMpYzRjKE9bQ0gyXTMpW2NIXWMoW0NIM10pb2M0PU8=

>  <s_epik_cmdline>  (204) 
J2VwaWtfcHl0aG9uJywgJy1waHQnLCAnMi4wJywgJy1waCcsICc3LjAnLCAnLXRuJywgJzgnLCAnLW1hJywgJzIwMCcsICctaW1hZScsICc8aW5maWxlLm1hZT4nLCAnLW9tYWUnLCAnPG91dGZpbGUubWFlPic=

>  <r_lp_tautomer_probability>  (204) 
1

>  <r_epik_Ionization_Penalty>  (204) 
0.00581655

>  <r_epik_Ionization_Penalty_Charging>  (204) 
0

>  <r_epik_Ionization_Penalty_Neutral>  (204) 
0.00581655

>  <r_epik_State_Penalty>  (204) 
-0

>  <r_epik_Charging_Adjusted_Penalty>  (204) 
0

>  <i_epik_Tot_Q>  (204) 
0

>  <i_epik_Tot_abs_Q>  (204) 
0

>  <s_lp_Force_Field>  (204) 
OPLS3e

>  <r_lp_Energy>  (204) 
12.7255

>  <b_lp_Chiralities_Consistent>  (204) 
1

>  <s_lp_Variant>  (204) 
65:0-1

>  <s_i_glide_gridfile>  (204) 
pfpi4k_grid

>  <i_i_glide_lignum>  (204) 
17

>  <i_i_glide_rotatable_bonds>  (204) 
1

>  <r_i_docking_score>  (204) 
-2.8762

>  <r_i_glide_ligand_efficiency>  (204) 
-0.125052

>  <r_i_glide_ligand_efficiency_sa>  (204) 
-0.355632

>  <r_i_glide_ligand_efficiency_ln>  (204) 
-0.695492

>  <r_i_glide_gscore>  (204) 
-2.8762

>  <r_i_glide_lipo>  (204) 
-0.0479723

>  <r_i_glide_hbond>  (204) 
0

>  <r_i_glide_metal>  (204) 
-0

>  <r_i_glide_rewards>  (204) 
-1.31247

>  <r_i_glide_evdw>  (204) 
-24.7646

>  <r_i_glide_ecoul>  (204) 
-3.09854

>  <r_i_glide_erotb>  (204) 
0.188117

>  <r_i_glide_esite>  (204) 
-0.000867648

>  <r_i_glide_emodel>  (204) 
-32.8126

>  <r_i_glide_energy>  (204) 
-27.8631

>  <r_i_glide_einternal>  (204) 
0.296728

>  <r_i_glide_intrahb_reward>  (204) 
-0

>  <i_i_glide_confnum>  (204) 
1

>  <i_i_glide_posenum>  (204) 
23

>  <r_i_glide_eff_state_penalty>  (204) 
0

>  <ligand_id>  (204) 
65

>  <original_smiles>  (204) 
C=CC1C2COc3cc(C)oc(=O)c3C2C2C(=O)C(C)C1C2=O

>  <smiles>  (204) 
[H]C([H])=C([H])C1([H])C2([H])C(=O)C([H])(C(=O)C2([H])C([H])([H])[H])C2([H])c3c(c([H])c(C([H])([H])[H])oc3=O)OC([H])([H])C12[H]

$$$$
65:0:2
     RDKit          3D

 41 44  0  0  1  0  0  0  0  0999 V2000
    3.3948   -2.5612   -3.0485 C   0  0  0  0  0  0  0  0  0  0  0  0
    3.4179   -2.1787   -1.7626 C   0  0  0  0  0  0  0  0  0  0  0  0
    4.1006   -2.9480   -0.6407 C   0  0  2  0  0  0  0  0  0  0  0  0
    3.0117   -3.6011    0.2961 C   0  0  1  0  0  0  0  0  0  0  0  0
    3.3016   -5.0807    0.6090 C   0  0  0  0  0  0  0  0  0  0  0  0
    2.2771   -5.7105    1.3681 O   0  0  0  0  0  0  0  0  0  0  0  0
    1.8145   -5.0350    2.4664 C   0  0  0  0  0  0  0  0  0  0  0  0
    1.0950   -5.8142    3.4431 C   0  0  0  0  0  0  0  0  0  0  0  0
    0.5909   -5.2069    4.5270 C   0  0  0  0  0  0  0  0  0  0  0  0
   -0.1641   -5.8971    5.6425 C   0  0  0  0  0  0  0  0  0  0  0  0
    0.7275   -3.8532    4.7281 O   0  0  0  0  0  0  0  0  0  0  0  0
    1.3950   -3.0349    3.8409 C   0  0  0  0  0  0  0  0  0  0  0  0
    1.4617   -1.8239    4.0391 O   0  0  0  0  0  0  0  0  0  0  0  0
    1.9914   -3.7032    2.6410 C   0  0  0  0  0  0  0  0  0  0  0  0
    2.6660   -2.7999    1.5994 C   0  0  1  0  0  0  0  0  0  0  0  0
    3.8695   -1.9816    2.1514 C   0  0  1  0  0  0  0  0  0  0  0  0
    5.1147   -2.8436    2.3362 C   0  0  0  0  0  0  0  0  0  0  0  0
    5.3074   -3.5912    3.2938 O   0  0  0  0  0  0  0  0  0  0  0  0
    6.0500   -2.6964    1.1324 C   0  0  1  0  0  0  0  0  0  0  0  0
    6.8330   -3.9458    0.7109 C   0  0  0  0  0  0  0  0  0  0  0  0
    5.1445   -2.0208    0.0763 C   0  0  2  0  0  0  0  0  0  0  0  0
    4.3657   -1.1230    1.0129 C   0  0  0  0  0  0  0  0  0  0  0  0
    4.2055    0.0886    0.8883 O   0  0  0  0  0  0  0  0  0  0  0  0
    3.8716   -3.4740   -3.3780 H   0  0  0  0  0  0  0  0  0  0  0  0
    2.8878   -1.9583   -3.7867 H   0  0  0  0  0  0  0  0  0  0  0  0
    2.9210   -1.2587   -1.4858 H   0  0  0  0  0  0  0  0  0  0  0  0
    4.6490   -3.7535   -1.1300 H   0  0  0  0  0  0  0  0  0  0  0  0
    2.0875   -3.6403   -0.2799 H   0  0  0  0  0  0  0  0  0  0  0  0
    3.4041   -5.6409   -0.3178 H   0  0  0  0  0  0  0  0  0  0  0  0
    4.2352   -5.2105    1.1481 H   0  0  0  0  0  0  0  0  0  0  0  0
    0.9871   -6.8809    3.3050 H   0  0  0  0  0  0  0  0  0  0  0  0
   -0.2466   -6.9728    5.4756 H   0  0  0  0  0  0  0  0  0  0  0  0
   -1.1675   -5.4790    5.7248 H   0  0  0  0  0  0  0  0  0  0  0  0
    0.3509   -5.7310    6.5903 H   0  0  0  0  0  0  0  0  0  0  0  0
    1.9042   -2.0672    1.3160 H   0  0  0  0  0  0  0  0  0  0  0  0
    6.7957   -1.9590    1.4354 H   0  0  0  0  0  0  0  0  0  0  0  0
    7.4393   -4.3163    1.5375 H   0  0  0  0  0  0  0  0  0  0  0  0
    7.5111   -3.7141   -0.1091 H   0  0  0  0  0  0  0  0  0  0  0  0
    6.1931   -4.7582    0.3816 H   0  0  0  0  0  0  0  0  0  0  0  0
    5.7318   -1.4397   -0.6362 H   0  0  0  0  0  0  0  0  0  0  0  0
    3.6519   -1.3799    3.0321 H   0  0  0  0  0  0  0  0  0  0  0  0
  1  2  2  0
  1 24  1  0
  1 25  1  0
  2  3  1  0
  2 26  1  0
  3  4  1  0
  3 27  1  6
  3 21  1  0
  4 15  1  0
  4  5  1  0
  4 28  1  6
  5  6  1  0
  5 29  1  0
  5 30  1  0
  6  7  1  0
  7 14  2  0
  7  8  1  0
  8  9  2  0
  8 31  1  0
  9 10  1  0
  9 11  1  0
 10 32  1  0
 10 33  1  0
 10 34  1  0
 11 12  1  0
 12 13  2  0
 12 14  1  0
 14 15  1  0
 15 35  1  6
 15 16  1  0
 16 22  1  0
 16 17  1  0
 16 41  1  1
 17 19  1  0
 17 18  2  0
 19 20  1  0
 19 36  1  1
 19 21  1  0
 20 37  1  0
 20 38  1  0
 20 39  1  0
 21 40  1  6
 21 22  1  0
 22 23  2  0
M  END
>  <i_m_ct_stereo_status>  (205) 
1

>  <s_m_source_file>  (205) 
/var/tmp/pbs.5076255.sched01/tmp378oxcv0/78pm6kuo1p.sdf

>  <i_m_source_file_index>  (205) 
17

>  <i_lp_mmshare_version>  (205) 
48012

>  <i_f3d_flags>  (205) 
0

>  <s_epik_input>  (205) 
W0NIMl09W0NIXVtDQEhdMVtDQEhdKEMyPU8pW0NASF0oW0NIM10pQyg9TylbQ0BIXTJbQ0BASF0oW0NAQEhdMTMpYzRjKE9bQ0gyXTMpW2NIXWMoW0NIM10pb2M0PU8=

>  <s_epik_cmdline>  (205) 
J2VwaWtfcHl0aG9uJywgJy1waHQnLCAnMi4wJywgJy1waCcsICc3LjAnLCAnLXRuJywgJzgnLCAnLW1hJywgJzIwMCcsICctaW1hZScsICc8aW5maWxlLm1hZT4nLCAnLW9tYWUnLCAnPG91dGZpbGUubWFlPic=

>  <r_lp_tautomer_probability>  (205) 
1

>  <r_epik_Ionization_Penalty>  (205) 
0.00581655

>  <r_epik_Ionization_Penalty_Charging>  (205) 
0

>  <r_epik_Ionization_Penalty_Neutral>  (205) 
0.00581655

>  <r_epik_State_Penalty>  (205) 
-0

>  <r_epik_Charging_Adjusted_Penalty>  (205) 
0

>  <i_epik_Tot_Q>  (205) 
0

>  <i_epik_Tot_abs_Q>  (205) 
0

>  <s_lp_Force_Field>  (205) 
OPLS3e

>  <r_lp_Energy>  (205) 
12.7255

>  <b_lp_Chiralities_Consistent>  (205) 
1

>  <s_lp_Variant>  (205) 
65:0-1

>  <s_i_glide_gridfile>  (205) 
pfpi4k_grid

>  <i_i_glide_lignum>  (205) 
17

>  <i_i_glide_rotatable_bonds>  (205) 
1

>  <r_i_docking_score>  (205) 
-2.87448

>  <r_i_glide_ligand_efficiency>  (205) 
-0.124977

>  <r_i_glide_ligand_efficiency_sa>  (205) 
-0.355419

>  <r_i_glide_ligand_efficiency_ln>  (205) 
-0.695075

>  <r_i_glide_gscore>  (205) 
-2.87448

>  <r_i_glide_lipo>  (205) 
-0.304872

>  <r_i_glide_hbond>  (205) 
0

>  <r_i_glide_metal>  (205) 
-0

>  <r_i_glide_rewards>  (205) 
-1.37194

>  <r_i_glide_evdw>  (205) 
-23.2132

>  <r_i_glide_ecoul>  (205) 
-1.50082

>  <r_i_glide_erotb>  (205) 
0.188117

>  <r_i_glide_esite>  (205) 
0

>  <r_i_glide_emodel>  (205) 
-29.7656

>  <r_i_glide_energy>  (205) 
-24.714

>  <r_i_glide_einternal>  (205) 
0.131889

>  <r_i_glide_intrahb_reward>  (205) 
-0

>  <i_i_glide_confnum>  (205) 
1

>  <i_i_glide_posenum>  (205) 
20

>  <r_i_glide_eff_state_penalty>  (205) 
0

>  <ligand_id>  (205) 
65

>  <original_smiles>  (205) 
C=CC1C2COc3cc(C)oc(=O)c3C2C2C(=O)C(C)C1C2=O

>  <smiles>  (205) 
[H]C([H])=C([H])C1([H])C2([H])C(=O)C([H])(C(=O)C2([H])C([H])([H])[H])C2([H])c3c(c([H])c(C([H])([H])[H])oc3=O)OC([H])([H])C12[H]

$$$$
67:0:0
     RDKit          3D

 66 71  0  0  1  0  0  0  0  0999 V2000
    1.3979    2.1662    3.1406 C   0  0  0  0  0  0  0  0  0  0  0  0
    2.6643    1.3013    3.0741 C   0  0  2  0  0  0  0  0  0  0  0  0
    2.8125    0.5574    1.7022 C   0  0  0  0  0  0  0  0  0  0  0  0
    4.0718   -0.3586    1.7238 C   0  0  2  0  0  0  0  0  0  0  0  0
    4.3572   -1.3958    0.6749 C   0  0  0  0  0  0  0  0  0  0  0  0
    3.5466   -1.8110   -0.3028 C   0  0  0  0  0  0  0  0  0  0  0  0
    3.7798   -3.1058   -1.0474 C   0  0  0  0  0  0  0  0  0  0  0  0
    4.6244   -4.1371   -0.2365 C   0  0  2  0  0  0  0  0  0  0  0  0
    3.8367   -4.9039    0.8694 C   0  0  1  0  0  0  0  0  0  0  0  0
    2.4798   -5.4392    0.3681 C   0  0  0  0  0  0  0  0  0  0  0  0
    1.7757   -6.3624    1.3573 C   0  0  0  0  0  0  0  0  0  0  0  0
    0.5781   -6.2616    1.5733 O   0  0  0  0  0  0  0  0  0  0  0  0
    2.6362   -7.4470    1.9960 C   0  0  0  0  0  0  0  0  0  0  0  0
    3.9256   -6.8242    2.5461 C   0  0  0  0  0  0  0  0  0  0  0  0
    4.7162   -6.0405    1.4695 C   0  0  1  0  0  0  0  0  0  0  0  0
    5.0169   -6.8850    0.4807 F   0  0  0  0  0  0  0  0  0  0  0  0
    6.0379   -5.4781    2.0433 C   0  0  1  0  0  0  0  0  0  0  0  0
    6.9275   -6.5231    2.3686 O   0  0  0  0  0  0  0  0  0  0  0  0
    6.7754   -4.5117    1.0981 C   0  0  0  0  0  0  0  0  0  0  0  0
    5.9032   -3.4667    0.3463 C   0  0  1  0  0  0  0  0  0  0  0  0
    6.7842   -3.0037   -0.8449 C   0  0  0  0  0  0  0  0  0  0  0  0
    5.5654   -2.1698    1.1719 C   0  0  2  0  0  0  0  0  0  0  0  0
    5.3196   -2.1945    2.7143 C   0  0  0  0  0  0  0  0  0  0  0  0
    4.1333   -1.2420    2.9704 C   0  0  1  0  0  0  0  0  0  0  0  0
    4.1441   -0.3018    4.1554 C   0  0  1  0  0  0  0  0  0  0  0  0
    2.6971    0.2121    4.1360 C   0  0  1  0  0  0  0  0  0  0  0  0
    3.3822   -0.1032    5.4383 C   0  0  0  0  0  0  0  0  0  0  0  0
    3.0337   -1.3491    6.2287 C   0  0  0  0  0  0  0  0  0  0  0  0
    3.6911    1.0536    6.3660 C   0  0  0  0  0  0  0  0  0  0  0  0
    0.4888    1.5961    2.9506 H   0  0  0  0  0  0  0  0  0  0  0  0
    1.4512    2.9508    2.3833 H   0  0  0  0  0  0  0  0  0  0  0  0
    1.2970    2.6651    4.1062 H   0  0  0  0  0  0  0  0  0  0  0  0
    3.5050    1.9712    3.2412 H   0  0  0  0  0  0  0  0  0  0  0  0
    1.9159   -0.0245    1.4899 H   0  0  0  0  0  0  0  0  0  0  0  0
    2.9099    1.2948    0.9095 H   0  0  0  0  0  0  0  0  0  0  0  0
    4.9376    0.2951    1.6968 H   0  0  0  0  0  0  0  0  0  0  0  0
    2.6375   -1.2784   -0.5232 H   0  0  0  0  0  0  0  0  0  0  0  0
    2.8201   -3.5210   -1.3470 H   0  0  0  0  0  0  0  0  0  0  0  0
    4.2743   -2.8583   -1.9851 H   0  0  0  0  0  0  0  0  0  0  0  0
    4.9351   -4.8870   -0.9668 H   0  0  0  0  0  0  0  0  0  0  0  0
    3.5937   -4.2017    1.6662 H   0  0  0  0  0  0  0  0  0  0  0  0
    1.8139   -4.6112    0.1419 H   0  0  0  0  0  0  0  0  0  0  0  0
    2.6002   -5.9993   -0.5506 H   0  0  0  0  0  0  0  0  0  0  0  0
    2.0776   -7.9574    2.7817 H   0  0  0  0  0  0  0  0  0  0  0  0
    2.8764   -8.2014    1.2472 H   0  0  0  0  0  0  0  0  0  0  0  0
    3.6713   -6.1443    3.3627 H   0  0  0  0  0  0  0  0  0  0  0  0
    4.5465   -7.6077    2.9832 H   0  0  0  0  0  0  0  0  0  0  0  0
    5.8332   -5.0043    2.9989 H   0  0  0  0  0  0  0  0  0  0  0  0
    7.1775   -6.9601    1.5634 H   0  0  0  0  0  0  0  0  0  0  0  0
    7.5306   -3.9844    1.6738 H   0  0  0  0  0  0  0  0  0  0  0  0
    7.3230   -5.1019    0.3597 H   0  0  0  0  0  0  0  0  0  0  0  0
    7.7686   -2.6649   -0.5151 H   0  0  0  0  0  0  0  0  0  0  0  0
    6.3342   -2.1906   -1.4181 H   0  0  0  0  0  0  0  0  0  0  0  0
    6.9479   -3.8222   -1.5446 H   0  0  0  0  0  0  0  0  0  0  0  0
    6.3955   -1.4740    1.0381 H   0  0  0  0  0  0  0  0  0  0  0  0
    5.0230   -3.1641    3.1011 H   0  0  0  0  0  0  0  0  0  0  0  0
    6.2046   -1.8754    3.2490 H   0  0  0  0  0  0  0  0  0  0  0  0
    3.2418   -1.8644    2.9992 H   0  0  0  0  0  0  0  0  0  0  0  0
    4.9631    0.4046    4.0953 H   0  0  0  0  0  0  0  0  0  0  0  0
    1.8721   -0.4730    3.9859 H   0  0  0  0  0  0  0  0  0  0  0  0
    2.1494   -1.1899    6.8444 H   0  0  0  0  0  0  0  0  0  0  0  0
    3.8708   -1.6388    6.8630 H   0  0  0  0  0  0  0  0  0  0  0  0
    2.8362   -2.1710    5.5406 H   0  0  0  0  0  0  0  0  0  0  0  0
    2.8207    1.2874    6.9808 H   0  0  0  0  0  0  0  0  0  0  0  0
    3.9345    1.9347    5.7729 H   0  0  0  0  0  0  0  0  0  0  0  0
    4.5388    0.8178    7.0080 H   0  0  0  0  0  0  0  0  0  0  0  0
  1  2  1  0
  1 30  1  0
  1 31  1  0
  1 32  1  0
  2 26  1  0
  2  3  1  0
  2 33  1  1
  3  4  1  0
  3 34  1  0
  3 35  1  0
  4 24  1  0
  4  5  1  0
  4 36  1  1
  5 22  1  0
  5  6  2  0
  6  7  1  0
  6 37  1  0
  7  8  1  0
  7 38  1  0
  7 39  1  0
  8 20  1  0
  8  9  1  0
  8 40  1  6
  9 15  1  0
  9 10  1  0
  9 41  1  1
 10 11  1  0
 10 42  1  0
 10 43  1  0
 11 12  2  0
 11 13  1  0
 13 14  1  0
 13 44  1  0
 13 45  1  0
 14 15  1  0
 14 46  1  0
 14 47  1  0
 15 16  1  6
 15 17  1  0
 17 18  1  0
 17 19  1  0
 17 48  1  1
 18 49  1  0
 19 20  1  0
 19 50  1  0
 19 51  1  0
 20 21  1  6
 20 22  1  0
 21 52  1  0
 21 53  1  0
 21 54  1  0
 22 23  1  0
 22 55  1  1
 23 24  1  0
 23 56  1  0
 23 57  1  0
 24 25  1  0
 24 58  1  1
 25 27  1  0
 25 26  1  0
 25 59  1  1
 26 27  1  0
 26 60  1  6
 27 28  1  0
 27 29  1  0
 28 61  1  0
 28 62  1  0
 28 63  1  0
 29 64  1  0
 29 65  1  0
 29 66  1  0
M  END
>  <i_m_ct_stereo_status>  (206) 
1

>  <s_m_source_file>  (206) 
/var/tmp/pbs.5076255.sched01/tmp378oxcv0/78pm6kuo1p.sdf

>  <i_m_source_file_index>  (206) 
19

>  <i_lp_mmshare_version>  (206) 
48012

>  <i_f3d_flags>  (206) 
0

>  <s_epik_input>  (206) 
W0NIM11bQ0BIXShbQ0gyXTEpW0NASF0oQzIoW0NIM10pW0NIM10pW0NAQEhdMltDQEhdKFtDSDJdMylbQ0BIXTFDKD1bQ0hdW0NIMl00KVtDQEBIXTNbQ0BAXShbQ0gzXSkoW0NIMl1bQ0BASF01W09IXSlbQ0BIXTRbQ0BIXShbQ0BAXTU2RilbQ0gyXUMoPU8pW0NIMl1bQ0gyXTY=

>  <s_epik_cmdline>  (206) 
J2VwaWtfcHl0aG9uJywgJy1waHQnLCAnMi4wJywgJy1waCcsICc3LjAnLCAnLXRuJywgJzgnLCAnLW1hJywgJzIwMCcsICctaW1hZScsICc8aW5maWxlLm1hZT4nLCAnLW9tYWUnLCAnPG91dGZpbGUubWFlPic=

>  <r_lp_tautomer_probability>  (206) 
1

>  <r_epik_Ionization_Penalty>  (206) 
5.95033e-08

>  <r_epik_Ionization_Penalty_Charging>  (206) 
0

>  <r_epik_Ionization_Penalty_Neutral>  (206) 
5.95033e-08

>  <r_epik_State_Penalty>  (206) 
-0

>  <r_epik_Charging_Adjusted_Penalty>  (206) 
0

>  <i_epik_Tot_Q>  (206) 
0

>  <i_epik_Tot_abs_Q>  (206) 
0

>  <s_lp_Force_Field>  (206) 
OPLS3e

>  <r_lp_Energy>  (206) 
63.4492

>  <b_lp_Chiralities_Consistent>  (206) 
1

>  <s_lp_Variant>  (206) 
67:0-1

>  <s_i_glide_gridfile>  (206) 
pfpi4k_grid

>  <i_i_glide_lignum>  (206) 
19

>  <i_i_glide_rotatable_bonds>  (206) 
1

>  <r_i_docking_score>  (206) 
-3.42769

>  <r_i_glide_ligand_efficiency>  (206) 
-0.118196

>  <r_i_glide_ligand_efficiency_sa>  (206) 
-0.363136

>  <r_i_glide_ligand_efficiency_ln>  (206) 
-0.784854

>  <r_i_glide_gscore>  (206) 
-3.42769

>  <r_i_glide_lipo>  (206) 
-0.648239

>  <r_i_glide_hbond>  (206) 
-0.16

>  <r_i_glide_metal>  (206) 
-0

>  <r_i_glide_rewards>  (206) 
-0.798062

>  <r_i_glide_evdw>  (206) 
-25.5929

>  <r_i_glide_ecoul>  (206) 
-3.32005

>  <r_i_glide_erotb>  (206) 
0

>  <r_i_glide_esite>  (206) 
-0.0437325

>  <r_i_glide_emodel>  (206) 
-35.3377

>  <r_i_glide_energy>  (206) 
-28.913

>  <r_i_glide_einternal>  (206) 
0.00575276

>  <r_i_glide_intrahb_reward>  (206) 
-0

>  <i_i_glide_confnum>  (206) 
1

>  <i_i_glide_posenum>  (206) 
27

>  <r_i_glide_eff_state_penalty>  (206) 
0

>  <ligand_id>  (206) 
67

>  <original_smiles>  (206) 
CC1CC2C3=CCC4C5CC(=O)CCC5(F)C(O)CC4(C)C3CC2C2C1C2(C)C

>  <smiles>  (206) 
[H]OC1([H])C([H])([H])C2(C([H])([H])[H])C3([H])C(=C([H])C([H])([H])C2([H])C2([H])C([H])([H])C(=O)C([H])([H])C([H])([H])C12F)C1([H])C([H])([H])C([H])(C([H])([H])[H])C2([H])C([H])(C1([H])C3([H])[H])C2(C([H])([H])[H])C([H])([H])[H]

$$$$
67:0:1
     RDKit          3D

 66 71  0  0  1  0  0  0  0  0999 V2000
    1.3510    2.0592    2.4869 C   0  0  0  0  0  0  0  0  0  0  0  0
    2.4024    1.0311    2.9263 C   0  0  2  0  0  0  0  0  0  0  0  0
    2.9313    0.1754    1.7241 C   0  0  0  0  0  0  0  0  0  0  0  0
    3.9314   -0.8984    2.2325 C   0  0  2  0  0  0  0  0  0  0  0  0
    4.3784   -2.0648    1.3907 C   0  0  0  0  0  0  0  0  0  0  0  0
    3.9191   -2.4411    0.1870 C   0  0  0  0  0  0  0  0  0  0  0  0
    4.2217   -3.8121   -0.3859 C   0  0  0  0  0  0  0  0  0  0  0  0
    4.5480   -4.8682    0.7145 C   0  0  2  0  0  0  0  0  0  0  0  0
    3.3100   -5.4367    1.4741 C   0  0  1  0  0  0  0  0  0  0  0  0
    2.1667   -5.8279    0.5125 C   0  0  0  0  0  0  0  0  0  0  0  0
    1.0314   -6.6050    1.1876 C   0  0  0  0  0  0  0  0  0  0  0  0
   -0.1441   -6.3109    0.9912 O   0  0  0  0  0  0  0  0  0  0  0  0
    1.4236   -7.7236    2.1392 C   0  0  0  0  0  0  0  0  0  0  0  0
    2.4964   -7.2167    3.1146 C   0  0  0  0  0  0  0  0  0  0  0  0
    3.7295   -6.6309    2.3854 C   0  0  1  0  0  0  0  0  0  0  0  0
    4.2417   -7.5868    1.6031 F   0  0  0  0  0  0  0  0  0  0  0  0
    4.8167   -6.2059    3.3972 C   0  0  1  0  0  0  0  0  0  0  0  0
    5.3722   -7.3320    4.0522 O   0  0  0  0  0  0  0  0  0  0  0  0
    5.9814   -5.4246    2.7635 C   0  0  0  0  0  0  0  0  0  0  0  0
    5.6228   -4.3339    1.7087 C   0  0  1  0  0  0  0  0  0  0  0  0
    6.9376   -4.1066    0.9128 C   0  0  0  0  0  0  0  0  0  0  0  0
    5.2046   -2.9391    2.3172 C   0  0  2  0  0  0  0  0  0  0  0  0
    4.4400   -2.8063    3.6702 C   0  0  0  0  0  0  0  0  0  0  0  0
    3.4006   -1.6866    3.4406 C   0  0  1  0  0  0  0  0  0  0  0  0
    3.1235   -0.6643    4.5199 C   0  0  1  0  0  0  0  0  0  0  0  0
    1.8711    0.0279    3.9440 C   0  0  1  0  0  0  0  0  0  0  0  0
    1.9822   -0.2651    5.4137 C   0  0  0  0  0  0  0  0  0  0  0  0
    1.1827   -1.3865    6.0528 C   0  0  0  0  0  0  0  0  0  0  0  0
    2.1091    0.9138    6.3599 C   0  0  0  0  0  0  0  0  0  0  0  0
    0.4977    1.5998    1.9890 H   0  0  0  0  0  0  0  0  0  0  0  0
    1.7941    2.7685    1.7852 H   0  0  0  0  0  0  0  0  0  0  0  0
    0.9770    2.6373    3.3315 H   0  0  0  0  0  0  0  0  0  0  0  0
    3.2317    1.5898    3.3697 H   0  0  0  0  0  0  0  0  0  0  0  0
    2.0890   -0.2988    1.2167 H   0  0  0  0  0  0  0  0  0  0  0  0
    3.4193    0.8205    0.9916 H   0  0  0  0  0  0  0  0  0  0  0  0
    4.8402   -0.3676    2.5167 H   0  0  0  0  0  0  0  0  0  0  0  0
    3.2502   -1.8055   -0.3753 H   0  0  0  0  0  0  0  0  0  0  0  0
    3.3872   -4.1244   -1.0098 H   0  0  0  0  0  0  0  0  0  0  0  0
    5.0598   -3.7057   -1.0755 H   0  0  0  0  0  0  0  0  0  0  0  0
    4.9850   -5.7110    0.1748 H   0  0  0  0  0  0  0  0  0  0  0  0
    2.9082   -4.6481    2.1086 H   0  0  0  0  0  0  0  0  0  0  0  0
    1.7392   -4.9419    0.0464 H   0  0  0  0  0  0  0  0  0  0  0  0
    2.5804   -6.4035   -0.3059 H   0  0  0  0  0  0  0  0  0  0  0  0
    0.5433   -8.0731    2.6787 H   0  0  0  0  0  0  0  0  0  0  0  0
    1.7976   -8.5658    1.5560 H   0  0  0  0  0  0  0  0  0  0  0  0
    2.0638   -6.4429    3.7542 H   0  0  0  0  0  0  0  0  0  0  0  0
    2.7806   -8.0363    3.7777 H   0  0  0  0  0  0  0  0  0  0  0  0
    4.3561   -5.6296    4.1929 H   0  0  0  0  0  0  0  0  0  0  0  0
    4.6763   -7.8435    4.4320 H   0  0  0  0  0  0  0  0  0  0  0  0
    6.5632   -4.9832    3.5681 H   0  0  0  0  0  0  0  0  0  0  0  0
    6.6523   -6.1530    2.3002 H   0  0  0  0  0  0  0  0  0  0  0  0
    7.7689   -3.8674    1.5772 H   0  0  0  0  0  0  0  0  0  0  0  0
    6.8586   -3.2874    0.1982 H   0  0  0  0  0  0  0  0  0  0  0  0
    7.2212   -5.0006    0.3552 H   0  0  0  0  0  0  0  0  0  0  0  0
    6.1307   -2.3808    2.4709 H   0  0  0  0  0  0  0  0  0  0  0  0
    3.8726   -3.6854    3.9391 H   0  0  0  0  0  0  0  0  0  0  0  0
    5.1233   -2.5905    4.4883 H   0  0  0  0  0  0  0  0  0  0  0  0
    2.4700   -2.1898    3.1493 H   0  0  0  0  0  0  0  0  0  0  0  0
    4.0141   -0.0796    4.7480 H   0  0  0  0  0  0  0  0  0  0  0  0
    1.0553   -0.5503    3.5086 H   0  0  0  0  0  0  0  0  0  0  0  0
    0.1697   -1.0610    6.2928 H   0  0  0  0  0  0  0  0  0  0  0  0
    1.6738   -1.7287    6.9645 H   0  0  0  0  0  0  0  0  0  0  0  0
    1.1230   -2.2338    5.3681 H   0  0  0  0  0  0  0  0  0  0  0  0
    1.1234    1.3143    6.6063 H   0  0  0  0  0  0  0  0  0  0  0  0
    2.6868    1.7053    5.8809 H   0  0  0  0  0  0  0  0  0  0  0  0
    2.6188    0.6213    7.2796 H   0  0  0  0  0  0  0  0  0  0  0  0
  1  2  1  0
  1 30  1  0
  1 31  1  0
  1 32  1  0
  2 26  1  0
  2  3  1  0
  2 33  1  1
  3  4  1  0
  3 34  1  0
  3 35  1  0
  4 24  1  0
  4  5  1  0
  4 36  1  1
  5 22  1  0
  5  6  2  0
  6  7  1  0
  6 37  1  0
  7  8  1  0
  7 38  1  0
  7 39  1  0
  8 20  1  0
  8  9  1  0
  8 40  1  6
  9 15  1  0
  9 10  1  0
  9 41  1  1
 10 11  1  0
 10 42  1  0
 10 43  1  0
 11 12  2  0
 11 13  1  0
 13 14  1  0
 13 44  1  0
 13 45  1  0
 14 15  1  0
 14 46  1  0
 14 47  1  0
 15 16  1  6
 15 17  1  0
 17 18  1  0
 17 19  1  0
 17 48  1  1
 18 49  1  0
 19 20  1  0
 19 50  1  0
 19 51  1  0
 20 21  1  6
 20 22  1  0
 21 52  1  0
 21 53  1  0
 21 54  1  0
 22 23  1  0
 22 55  1  1
 23 24  1  0
 23 56  1  0
 23 57  1  0
 24 25  1  0
 24 58  1  6
 25 27  1  0
 25 26  1  0
 25 59  1  1
 26 27  1  0
 26 60  1  6
 27 28  1  0
 27 29  1  0
 28 61  1  0
 28 62  1  0
 28 63  1  0
 29 64  1  0
 29 65  1  0
 29 66  1  0
M  END
>  <i_m_ct_stereo_status>  (207) 
1

>  <s_m_source_file>  (207) 
/var/tmp/pbs.5076255.sched01/tmp378oxcv0/78pm6kuo1p.sdf

>  <i_m_source_file_index>  (207) 
19

>  <i_lp_mmshare_version>  (207) 
48012

>  <i_f3d_flags>  (207) 
0

>  <s_epik_input>  (207) 
W0NIM11bQ0BIXShbQ0gyXTEpW0NASF0oQzIoW0NIM10pW0NIM10pW0NAQEhdMltDQEhdKFtDSDJdMylbQ0BIXTFDKD1bQ0hdW0NIMl00KVtDQEBIXTNbQ0BAXShbQ0gzXSkoW0NIMl1bQ0BASF01W09IXSlbQ0BIXTRbQ0BIXShbQ0BAXTU2RilbQ0gyXUMoPU8pW0NIMl1bQ0gyXTY=

>  <s_epik_cmdline>  (207) 
J2VwaWtfcHl0aG9uJywgJy1waHQnLCAnMi4wJywgJy1waCcsICc3LjAnLCAnLXRuJywgJzgnLCAnLW1hJywgJzIwMCcsICctaW1hZScsICc8aW5maWxlLm1hZT4nLCAnLW9tYWUnLCAnPG91dGZpbGUubWFlPic=

>  <r_lp_tautomer_probability>  (207) 
1

>  <r_epik_Ionization_Penalty>  (207) 
5.95033e-08

>  <r_epik_Ionization_Penalty_Charging>  (207) 
0

>  <r_epik_Ionization_Penalty_Neutral>  (207) 
5.95033e-08

>  <r_epik_State_Penalty>  (207) 
-0

>  <r_epik_Charging_Adjusted_Penalty>  (207) 
0

>  <i_epik_Tot_Q>  (207) 
0

>  <i_epik_Tot_abs_Q>  (207) 
0

>  <s_lp_Force_Field>  (207) 
OPLS3e

>  <r_lp_Energy>  (207) 
63.4492

>  <b_lp_Chiralities_Consistent>  (207) 
1

>  <s_lp_Variant>  (207) 
67:0-1

>  <s_i_glide_gridfile>  (207) 
pfpi4k_grid

>  <i_i_glide_lignum>  (207) 
19

>  <i_i_glide_rotatable_bonds>  (207) 
1

>  <r_i_docking_score>  (207) 
-3.29104

>  <r_i_glide_ligand_efficiency>  (207) 
-0.113484

>  <r_i_glide_ligand_efficiency_sa>  (207) 
-0.348659

>  <r_i_glide_ligand_efficiency_ln>  (207) 
-0.753564

>  <r_i_glide_gscore>  (207) 
-3.29104

>  <r_i_glide_lipo>  (207) 
-0.336162

>  <r_i_glide_hbond>  (207) 
-0.226594

>  <r_i_glide_metal>  (207) 
-0

>  <r_i_glide_rewards>  (207) 
-0.737687

>  <r_i_glide_evdw>  (207) 
-23.6665

>  <r_i_glide_ecoul>  (207) 
-4.84339

>  <r_i_glide_erotb>  (207) 
0

>  <r_i_glide_esite>  (207) 
-0.0807588

>  <r_i_glide_emodel>  (207) 
-34.5161

>  <r_i_glide_energy>  (207) 
-28.5099

>  <r_i_glide_einternal>  (207) 
0.334489

>  <r_i_glide_intrahb_reward>  (207) 
-0

>  <i_i_glide_confnum>  (207) 
2

>  <i_i_glide_posenum>  (207) 
13

>  <r_i_glide_eff_state_penalty>  (207) 
0

>  <ligand_id>  (207) 
67

>  <original_smiles>  (207) 
CC1CC2C3=CCC4C5CC(=O)CCC5(F)C(O)CC4(C)C3CC2C2C1C2(C)C

>  <smiles>  (207) 
[H]OC1([H])C([H])([H])C2(C([H])([H])[H])C3([H])C(=C([H])C([H])([H])C2([H])C2([H])C([H])([H])C(=O)C([H])([H])C([H])([H])C12F)C1([H])C([H])([H])C([H])(C([H])([H])[H])C2([H])C([H])(C1([H])C3([H])[H])C2(C([H])([H])[H])C([H])([H])[H]

$$$$
67:0:2
     RDKit          3D

 66 71  0  0  1  0  0  0  0  0999 V2000
    5.0130   -2.3960   -1.1025 C   0  0  0  0  0  0  0  0  0  0  0  0
    5.3136   -3.1571    0.1983 C   0  0  2  0  0  0  0  0  0  0  0  0
    5.1159   -4.7061    0.0411 C   0  0  0  0  0  0  0  0  0  0  0  0
    5.3631   -5.4143    1.4051 C   0  0  2  0  0  0  0  0  0  0  0  0
    4.9713   -6.8433    1.6744 C   0  0  0  0  0  0  0  0  0  0  0  0
    4.2648   -7.6619    0.8849 C   0  0  0  0  0  0  0  0  0  0  0  0
    3.6464   -8.9471    1.4057 C   0  0  0  0  0  0  0  0  0  0  0  0
    3.4095   -8.9207    2.9439 C   0  0  2  0  0  0  0  0  0  0  0  0
    2.1479   -8.1276    3.4012 C   0  0  1  0  0  0  0  0  0  0  0  0
    0.8871   -8.4717    2.5621 C   0  0  0  0  0  0  0  0  0  0  0  0
   -0.3861   -7.8367    3.1248 C   0  0  0  0  0  0  0  0  0  0  0  0
   -1.1627   -7.1908    2.4304 O   0  0  0  0  0  0  0  0  0  0  0  0
   -0.6158   -7.9911    4.6186 C   0  0  0  0  0  0  0  0  0  0  0  0
    0.6428   -7.5546    5.3819 C   0  0  0  0  0  0  0  0  0  0  0  0
    1.9026   -8.3317    4.9291 C   0  0  1  0  0  0  0  0  0  0  0  0
    1.6886   -9.6332    5.1432 F   0  0  0  0  0  0  0  0  0  0  0  0
    3.1328   -7.9216    5.7687 C   0  0  1  0  0  0  0  0  0  0  0  0
    2.9682   -8.3420    7.1094 O   0  0  0  0  0  0  0  0  0  0  0  0
    4.4662   -8.4866    5.2414 C   0  0  0  0  0  0  0  0  0  0  0  0
    4.6899   -8.4495    3.7009 C   0  0  1  0  0  0  0  0  0  0  0  0
    5.8050   -9.5002    3.4417 C   0  0  0  0  0  0  0  0  0  0  0  0
    5.2245   -7.0706    3.1511 C   0  0  2  0  0  0  0  0  0  0  0  0
    4.8190   -5.6984    3.7701 C   0  0  0  0  0  0  0  0  0  0  0  0
    4.6010   -4.7546    2.5648 C   0  0  1  0  0  0  0  0  0  0  0  0
    5.0798   -3.3228    2.6148 C   0  0  1  0  0  0  0  0  0  0  0  0
    4.4101   -2.7435    1.3533 C   0  0  1  0  0  0  0  0  0  0  0  0
    4.4852   -1.9431    2.6244 C   0  0  0  0  0  0  0  0  0  0  0  0
    3.2573   -1.7292    3.4892 C   0  0  0  0  0  0  0  0  0  0  0  0
    5.3687   -0.7108    2.6273 C   0  0  0  0  0  0  0  0  0  0  0  0
    4.0026   -2.5812   -1.4644 H   0  0  0  0  0  0  0  0  0  0  0  0
    5.7050   -2.7092   -1.8857 H   0  0  0  0  0  0  0  0  0  0  0  0
    5.1303   -1.3199   -0.9735 H   0  0  0  0  0  0  0  0  0  0  0  0
    6.3533   -2.9438    0.4629 H   0  0  0  0  0  0  0  0  0  0  0  0
    4.1056   -4.9132   -0.3191 H   0  0  0  0  0  0  0  0  0  0  0  0
    5.7992   -5.0966   -0.7140 H   0  0  0  0  0  0  0  0  0  0  0  0
    6.4352   -5.3633    1.5948 H   0  0  0  0  0  0  0  0  0  0  0  0
    4.0630   -7.3769   -0.1321 H   0  0  0  0  0  0  0  0  0  0  0  0
    2.7228   -9.1497    0.8702 H   0  0  0  0  0  0  0  0  0  0  0  0
    4.3097   -9.7685    1.1326 H   0  0  0  0  0  0  0  0  0  0  0  0
    3.2224   -9.9603    3.2195 H   0  0  0  0  0  0  0  0  0  0  0  0
    2.3402   -7.0688    3.2347 H   0  0  0  0  0  0  0  0  0  0  0  0
    1.0012   -8.1130    1.5392 H   0  0  0  0  0  0  0  0  0  0  0  0
    0.7400   -9.5505    2.5048 H   0  0  0  0  0  0  0  0  0  0  0  0
   -1.4753   -7.3859    4.9038 H   0  0  0  0  0  0  0  0  0  0  0  0
   -0.8628   -9.0306    4.8396 H   0  0  0  0  0  0  0  0  0  0  0  0
    0.8082   -6.4855    5.2239 H   0  0  0  0  0  0  0  0  0  0  0  0
    0.4699   -7.6810    6.4519 H   0  0  0  0  0  0  0  0  0  0  0  0
    3.1799   -6.8412    5.8333 H   0  0  0  0  0  0  0  0  0  0  0  0
    2.8619   -9.2839    7.1046 H   0  0  0  0  0  0  0  0  0  0  0  0
    5.2829   -7.9592    5.7301 H   0  0  0  0  0  0  0  0  0  0  0  0
    4.5468   -9.5234    5.5790 H   0  0  0  0  0  0  0  0  0  0  0  0
    6.6865   -9.3090    4.0552 H   0  0  0  0  0  0  0  0  0  0  0  0
    6.1377   -9.5134    2.4033 H   0  0  0  0  0  0  0  0  0  0  0  0
    5.4587  -10.5068    3.6810 H   0  0  0  0  0  0  0  0  0  0  0  0
    6.3131   -7.1032    3.2377 H   0  0  0  0  0  0  0  0  0  0  0  0
    3.8792   -5.7235    4.3025 H   0  0  0  0  0  0  0  0  0  0  0  0
    5.5830   -5.3415    4.4569 H   0  0  0  0  0  0  0  0  0  0  0  0
    3.5271   -4.7862    2.3420 H   0  0  0  0  0  0  0  0  0  0  0  0
    6.1619   -3.2734    2.7203 H   0  0  0  0  0  0  0  0  0  0  0  0
    3.3699   -2.9669    1.1142 H   0  0  0  0  0  0  0  0  0  0  0  0
    2.6506   -0.9029    3.1145 H   0  0  0  0  0  0  0  0  0  0  0  0
    3.5509   -1.5195    4.5182 H   0  0  0  0  0  0  0  0  0  0  0  0
    2.6471   -2.6335    3.4932 H   0  0  0  0  0  0  0  0  0  0  0  0
    4.8226    0.1430    2.2207 H   0  0  0  0  0  0  0  0  0  0  0  0
    6.2451   -0.8869    2.0028 H   0  0  0  0  0  0  0  0  0  0  0  0
    5.7059   -0.4764    3.6384 H   0  0  0  0  0  0  0  0  0  0  0  0
  1  2  1  0
  1 30  1  0
  1 31  1  0
  1 32  1  0
  2 26  1  0
  2  3  1  0
  2 33  1  1
  3  4  1  0
  3 34  1  0
  3 35  1  0
  4 24  1  0
  4  5  1  0
  4 36  1  1
  5 22  1  0
  5  6  2  0
  6  7  1  0
  6 37  1  0
  7  8  1  0
  7 38  1  0
  7 39  1  0
  8 20  1  0
  8  9  1  0
  8 40  1  1
  9 15  1  0
  9 10  1  0
  9 41  1  1
 10 11  1  0
 10 42  1  0
 10 43  1  0
 11 12  2  0
 11 13  1  0
 13 14  1  0
 13 44  1  0
 13 45  1  0
 14 15  1  0
 14 46  1  0
 14 47  1  0
 15 16  1  6
 15 17  1  0
 17 18  1  0
 17 19  1  0
 17 48  1  1
 18 49  1  0
 19 20  1  0
 19 50  1  0
 19 51  1  0
 20 21  1  1
 20 22  1  0
 21 52  1  0
 21 53  1  0
 21 54  1  0
 22 23  1  0
 22 55  1  6
 23 24  1  0
 23 56  1  0
 23 57  1  0
 24 25  1  0
 24 58  1  6
 25 27  1  0
 25 26  1  0
 25 59  1  6
 26 27  1  0
 26 60  1  6
 27 28  1  0
 27 29  1  0
 28 61  1  0
 28 62  1  0
 28 63  1  0
 29 64  1  0
 29 65  1  0
 29 66  1  0
M  END
>  <i_m_ct_stereo_status>  (208) 
1

>  <s_m_source_file>  (208) 
/var/tmp/pbs.5076255.sched01/tmp378oxcv0/78pm6kuo1p.sdf

>  <i_m_source_file_index>  (208) 
19

>  <i_lp_mmshare_version>  (208) 
48012

>  <i_f3d_flags>  (208) 
0

>  <s_epik_input>  (208) 
W0NIM11bQ0BIXShbQ0gyXTEpW0NASF0oQzIoW0NIM10pW0NIM10pW0NAQEhdMltDQEhdKFtDSDJdMylbQ0BIXTFDKD1bQ0hdW0NIMl00KVtDQEBIXTNbQ0BAXShbQ0gzXSkoW0NIMl1bQ0BASF01W09IXSlbQ0BIXTRbQ0BIXShbQ0BAXTU2RilbQ0gyXUMoPU8pW0NIMl1bQ0gyXTY=

>  <s_epik_cmdline>  (208) 
J2VwaWtfcHl0aG9uJywgJy1waHQnLCAnMi4wJywgJy1waCcsICc3LjAnLCAnLXRuJywgJzgnLCAnLW1hJywgJzIwMCcsICctaW1hZScsICc8aW5maWxlLm1hZT4nLCAnLW9tYWUnLCAnPG91dGZpbGUubWFlPic=

>  <r_lp_tautomer_probability>  (208) 
1

>  <r_epik_Ionization_Penalty>  (208) 
5.95033e-08

>  <r_epik_Ionization_Penalty_Charging>  (208) 
0

>  <r_epik_Ionization_Penalty_Neutral>  (208) 
5.95033e-08

>  <r_epik_State_Penalty>  (208) 
-0

>  <r_epik_Charging_Adjusted_Penalty>  (208) 
0

>  <i_epik_Tot_Q>  (208) 
0

>  <i_epik_Tot_abs_Q>  (208) 
0

>  <s_lp_Force_Field>  (208) 
OPLS3e

>  <r_lp_Energy>  (208) 
63.4492

>  <b_lp_Chiralities_Consistent>  (208) 
1

>  <s_lp_Variant>  (208) 
67:0-1

>  <s_i_glide_gridfile>  (208) 
pfpi4k_grid

>  <i_i_glide_lignum>  (208) 
19

>  <i_i_glide_rotatable_bonds>  (208) 
1

>  <r_i_docking_score>  (208) 
-3.20787

>  <r_i_glide_ligand_efficiency>  (208) 
-0.110616

>  <r_i_glide_ligand_efficiency_sa>  (208) 
-0.339848

>  <r_i_glide_ligand_efficiency_ln>  (208) 
-0.73452

>  <r_i_glide_gscore>  (208) 
-3.20787

>  <r_i_glide_lipo>  (208) 
-0.488591

>  <r_i_glide_hbond>  (208) 
-0.16

>  <r_i_glide_metal>  (208) 
-0

>  <r_i_glide_rewards>  (208) 
-0.677937

>  <r_i_glide_evdw>  (208) 
-26.8041

>  <r_i_glide_ecoul>  (208) 
-3.01847

>  <r_i_glide_erotb>  (208) 
0

>  <r_i_glide_esite>  (208) 
-0.0883636

>  <r_i_glide_emodel>  (208) 
-35.8096

>  <r_i_glide_energy>  (208) 
-29.8226

>  <r_i_glide_einternal>  (208) 
0.0319572

>  <r_i_glide_intrahb_reward>  (208) 
-0

>  <i_i_glide_confnum>  (208) 
2

>  <i_i_glide_posenum>  (208) 
18

>  <r_i_glide_eff_state_penalty>  (208) 
0

>  <ligand_id>  (208) 
67

>  <original_smiles>  (208) 
CC1CC2C3=CCC4C5CC(=O)CCC5(F)C(O)CC4(C)C3CC2C2C1C2(C)C

>  <smiles>  (208) 
[H]OC1([H])C([H])([H])C2(C([H])([H])[H])C3([H])C(=C([H])C([H])([H])C2([H])C2([H])C([H])([H])C(=O)C([H])([H])C([H])([H])C12F)C1([H])C([H])([H])C([H])(C([H])([H])[H])C2([H])C([H])(C1([H])C3([H])[H])C2(C([H])([H])[H])C([H])([H])[H]

$$$$
68:0:0
     RDKit          3D

 75 82  0  0  1  0  0  0  0  0999 V2000
    8.5343   -6.2861    3.7679 C   0  0  0  0  0  0  0  0  0  0  0  0
    7.0044   -6.1152    3.8187 C   0  0  2  0  0  0  0  0  0  0  0  0
    6.3058   -7.3001    4.5308 C   0  0  0  0  0  0  0  0  0  0  0  0
    4.7741   -7.1857    4.3888 C   0  0  1  0  0  0  0  0  0  0  0  0
    4.4609   -5.9376    3.8509 O   0  0  0  0  0  0  0  0  0  0  0  0
    4.8613   -5.4298    2.6049 C   0  0  1  0  0  0  0  0  0  0  0  0
    4.2854   -5.8653    1.4188 O   0  0  0  0  0  0  0  0  0  0  0  0
    2.9329   -6.0148    1.1721 C   0  0  2  0  0  0  0  0  0  0  0  0
    2.3943   -4.7760    0.4215 C   0  0  0  0  0  0  0  0  0  0  0  0
    3.4236   -3.9916   -0.4246 C   0  0  0  0  0  0  0  0  0  0  0  0
    4.7978   -3.4569    0.1304 C   0  0  1  0  0  0  0  0  0  0  0  0
    5.3954   -2.4285   -0.9205 C   0  0  0  0  0  0  0  0  0  0  0  0
    6.9390   -2.2561   -0.7851 C   0  0  0  0  0  0  0  0  0  0  0  0
    5.2181   -2.9238   -2.3830 C   0  0  0  0  0  0  0  0  0  0  0  0
    4.6423   -1.0711   -0.8134 C   0  0  0  0  0  0  0  0  0  0  0  0
    4.3343   -0.5641    0.6094 C   0  0  0  0  0  0  0  0  0  0  0  0
    3.8437   -1.6603    1.5792 C   0  0  0  0  0  0  0  0  0  0  0  0
    4.7592   -2.9098    1.6256 C   0  0  2  0  0  0  0  0  0  0  0  0
    6.1336   -2.3870    2.1312 C   0  0  0  0  0  0  0  0  0  0  0  0
    4.3364   -3.9472    2.7794 C   0  0  1  0  0  0  0  0  0  0  0  0
    2.8091   -3.9450    3.3152 C   0  0  0  0  0  0  0  0  0  0  0  0
    2.0463   -5.3120    3.5048 C   0  0  1  0  0  0  0  0  0  0  0  0
    0.9882   -5.8054    2.6604 O   0  0  0  0  0  0  0  0  0  0  0  0
    2.2776   -6.3910    2.4722 C   0  0  1  0  0  0  0  0  0  0  0  0
    2.6277   -7.8661    2.9294 C   0  0  1  0  0  0  0  0  0  0  0  0
    3.0174   -8.9946    1.9466 C   0  0  0  0  0  0  0  0  0  0  0  0
    4.5205   -8.9150    2.3405 C   0  0  1  0  0  0  0  0  0  0  0  0
    5.1544  -10.1775    2.4705 O   0  0  0  0  0  0  0  0  0  0  0  0
    5.1553   -8.0538    1.3754 O   0  0  0  0  0  0  0  0  0  0  0  0
    6.3835   -7.3270    1.6496 C   0  0  0  0  0  0  0  0  0  0  0  0
    6.3428   -5.9447    2.4353 C   0  0  2  0  0  0  0  0  0  0  0  0
    3.9696   -8.2787    3.6644 C   0  0  1  0  0  0  0  0  0  0  0  0
    3.7528   -9.3444    4.7758 C   0  0  0  0  0  0  0  0  0  0  0  0
    8.8412   -7.2085    3.2704 H   0  0  0  0  0  0  0  0  0  0  0  0
    8.9545   -6.3116    4.7737 H   0  0  0  0  0  0  0  0  0  0  0  0
    9.0076   -5.4580    3.2422 H   0  0  0  0  0  0  0  0  0  0  0  0
    6.8164   -5.2080    4.3938 H   0  0  0  0  0  0  0  0  0  0  0  0
    6.6510   -8.2716    4.1752 H   0  0  0  0  0  0  0  0  0  0  0  0
    6.5718   -7.2732    5.5876 H   0  0  0  0  0  0  0  0  0  0  0  0
    4.3874   -7.0838    5.4055 H   0  0  0  0  0  0  0  0  0  0  0  0
    2.8320   -6.8168    0.4744 H   0  0  0  0  0  0  0  0  0  0  0  0
    1.6309   -5.1379   -0.2669 H   0  0  0  0  0  0  0  0  0  0  0  0
    1.8297   -4.0796    1.0253 H   0  0  0  0  0  0  0  0  0  0  0  0
    3.6744   -4.6545   -1.2419 H   0  0  0  0  0  0  0  0  0  0  0  0
    2.8572   -3.1657   -0.8538 H   0  0  0  0  0  0  0  0  0  0  0  0
    5.4831   -4.3019    0.1060 H   0  0  0  0  0  0  0  0  0  0  0  0
    7.4660   -2.2618   -1.7444 H   0  0  0  0  0  0  0  0  0  0  0  0
    7.3985   -3.0592   -0.2075 H   0  0  0  0  0  0  0  0  0  0  0  0
    7.2082   -1.3127   -0.3161 H   0  0  0  0  0  0  0  0  0  0  0  0
    5.7191   -2.2708   -3.0979 H   0  0  0  0  0  0  0  0  0  0  0  0
    4.1766   -2.9359   -2.6995 H   0  0  0  0  0  0  0  0  0  0  0  0
    5.6176   -3.9301   -2.5241 H   0  0  0  0  0  0  0  0  0  0  0  0
    5.1956   -0.2995   -1.3470 H   0  0  0  0  0  0  0  0  0  0  0  0
    3.6934   -1.1429   -1.3421 H   0  0  0  0  0  0  0  0  0  0  0  0
    5.1834   -0.0241    1.0192 H   0  0  0  0  0  0  0  0  0  0  0  0
    3.5512    0.1895    0.5346 H   0  0  0  0  0  0  0  0  0  0  0  0
    3.7076   -1.2462    2.5797 H   0  0  0  0  0  0  0  0  0  0  0  0
    2.8505   -1.9462    1.2350 H   0  0  0  0  0  0  0  0  0  0  0  0
    6.0786   -2.0420    3.1651 H   0  0  0  0  0  0  0  0  0  0  0  0
    6.5203   -1.5145    1.6223 H   0  0  0  0  0  0  0  0  0  0  0  0
    6.9127   -3.1428    2.0699 H   0  0  0  0  0  0  0  0  0  0  0  0
    4.8613   -3.6343    3.6855 H   0  0  0  0  0  0  0  0  0  0  0  0
    2.8591   -3.5276    4.3153 H   0  0  0  0  0  0  0  0  0  0  0  0
    2.1518   -3.2378    2.8270 H   0  0  0  0  0  0  0  0  0  0  0  0
    1.9562   -5.6360    4.5431 H   0  0  0  0  0  0  0  0  0  0  0  0
    1.8172   -8.2345    3.5590 H   0  0  0  0  0  0  0  0  0  0  0  0
    2.5827   -9.9585    2.2347 H   0  0  0  0  0  0  0  0  0  0  0  0
    2.8057   -8.8286    0.8992 H   0  0  0  0  0  0  0  0  0  0  0  0
    4.8372  -10.7160    1.7442 H   0  0  0  0  0  0  0  0  0  0  0  0
    7.1298   -8.0211    2.0289 H   0  0  0  0  0  0  0  0  0  0  0  0
    6.7641   -7.0539    0.6711 H   0  0  0  0  0  0  0  0  0  0  0  0
    6.8960   -5.2259    1.8397 H   0  0  0  0  0  0  0  0  0  0  0  0
    3.2155  -10.2198    4.4085 H   0  0  0  0  0  0  0  0  0  0  0  0
    3.1701   -8.9609    5.6193 H   0  0  0  0  0  0  0  0  0  0  0  0
    4.7046   -9.7115    5.1712 H   0  0  0  0  0  0  0  0  0  0  0  0
  1  2  1  0
  1 34  1  0
  1 35  1  0
  1 36  1  0
  2 31  1  0
  2  3  1  0
  2 37  1  1
  3  4  1  0
  3 38  1  0
  3 39  1  0
  4 32  1  0
  4  5  1  0
  4 40  1  1
  6  5  1  1
  6 20  1  0
  6 31  1  0
  6  7  1  0
  7  8  1  0
  8 24  1  0
  8  9  1  0
  8 41  1  6
  9 10  1  0
  9 42  1  0
  9 43  1  0
 10 11  1  0
 10 44  1  0
 10 45  1  0
 11 18  1  0
 11 12  1  0
 11 46  1  1
 12 13  1  0
 12 14  1  0
 12 15  1  0
 13 47  1  0
 13 48  1  0
 13 49  1  0
 14 50  1  0
 14 51  1  0
 14 52  1  0
 15 16  1  0
 15 53  1  0
 15 54  1  0
 16 17  1  0
 16 55  1  0
 16 56  1  0
 17 18  1  0
 17 57  1  0
 17 58  1  0
 18 19  1  1
 18 20  1  0
 19 59  1  0
 19 60  1  0
 19 61  1  0
 20 21  1  0
 20 62  1  1
 21 22  1  0
 21 63  1  0
 21 64  1  0
 22 24  1  0
 22 23  1  0
 22 65  1  1
 24 23  1  6
 24 25  1  0
 25 32  1  0
 25 26  1  0
 25 66  1  1
 26 27  1  0
 26 67  1  0
 26 68  1  0
 27 28  1  1
 27 29  1  0
 27 32  1  0
 28 69  1  0
 29 30  1  0
 30 31  1  0
 30 70  1  0
 30 71  1  0
 31 72  1  6
 32 33  1  1
 33 73  1  0
 33 74  1  0
 33 75  1  0
M  END
>  <i_m_ct_stereo_status>  (209) 
1

>  <s_m_source_file>  (209) 
/var/tmp/pbs.5076255.sched01/tmp378oxcv0/78pm6kuo1p.sdf

>  <i_m_source_file_index>  (209) 
20

>  <i_lp_mmshare_version>  (209) 
48012

>  <i_f3d_flags>  (209) 
0

>  <s_epik_input>  (209) 
W0NIMl0xW0NAQF0yKFtPSF0pT1tDSDJdW0NAQEhdM1tDQEhdKFtDSDNdKVtDSDJdW0NAQEhdKE80KVtDQEBdMihbQ0gzXSlbQ0BIXTFbQ0BAXTUoW0NASF0oTzUpW0NIMl02KVtDQEhdKE83KVtDSDJdW0NIMl1bQ0BIXShbQ0BdOChbQ0gzXSlbQ0BASF02W0NAQF0zNDcpQyhbQ0gzXSkoW0NIM10pW0NIMl1bQ0gyXVtDSDJdOA==

>  <s_epik_cmdline>  (209) 
J2VwaWtfcHl0aG9uJywgJy1waHQnLCAnMi4wJywgJy1waCcsICc3LjAnLCAnLXRuJywgJzgnLCAnLW1hJywgJzIwMCcsICctaW1hZScsICc8aW5maWxlLm1hZT4nLCAnLW9tYWUnLCAnPG91dGZpbGUubWFlPic=

>  <r_lp_tautomer_probability>  (209) 
1

>  <r_epik_Ionization_Penalty>  (209) 
4.99699e-08

>  <r_epik_Ionization_Penalty_Charging>  (209) 
0

>  <r_epik_Ionization_Penalty_Neutral>  (209) 
4.99699e-08

>  <r_epik_State_Penalty>  (209) 
-0

>  <r_epik_Charging_Adjusted_Penalty>  (209) 
0

>  <i_epik_Tot_Q>  (209) 
0

>  <i_epik_Tot_abs_Q>  (209) 
0

>  <s_lp_Force_Field>  (209) 
OPLS3e

>  <r_lp_Energy>  (209) 
173.141

>  <b_lp_Chiralities_Consistent>  (209) 
1

>  <s_lp_Variant>  (209) 
68:0-1

>  <s_i_glide_gridfile>  (209) 
pfpi4k_grid

>  <i_i_glide_lignum>  (209) 
20

>  <i_i_glide_rotatable_bonds>  (209) 
1

>  <r_i_docking_score>  (209) 
-2.29164

>  <r_i_glide_ligand_efficiency>  (209) 
-0.0694437

>  <r_i_glide_ligand_efficiency_sa>  (209) 
-0.222743

>  <r_i_glide_ligand_efficiency_ln>  (209) 
-0.509649

>  <r_i_glide_gscore>  (209) 
-2.29164

>  <r_i_glide_lipo>  (209) 
-0.472226

>  <r_i_glide_hbond>  (209) 
0

>  <r_i_glide_metal>  (209) 
-0

>  <r_i_glide_rewards>  (209) 
-0.282068

>  <r_i_glide_evdw>  (209) 
-21.0696

>  <r_i_glide_ecoul>  (209) 
-3.10704

>  <r_i_glide_erotb>  (209) 
0

>  <r_i_glide_esite>  (209) 
-0.0178096

>  <r_i_glide_emodel>  (209) 
-27.3868

>  <r_i_glide_energy>  (209) 
-24.1767

>  <r_i_glide_einternal>  (209) 
0.262778

>  <r_i_glide_intrahb_reward>  (209) 
-0

>  <i_i_glide_confnum>  (209) 
2

>  <i_i_glide_posenum>  (209) 
8

>  <r_i_glide_eff_state_penalty>  (209) 
0

>  <ligand_id>  (209) 
68

>  <original_smiles>  (209) 
CC1CC2OC34OC5CCC6C(C)(C)CCCC6(C)C3CC3OC53C3CC(O)(OCC14)C23C

>  <smiles>  (209) 
[H]OC12OC([H])([H])C3([H])C45OC6([H])C([H])([H])C([H])([H])C7([H])C(C([H])([H])[H])(C([H])([H])[H])C([H])([H])C([H])([H])C([H])([H])C7(C([H])([H])[H])C4([H])C([H])([H])C4([H])OC64C([H])(C1([H])[H])C2(C([H])([H])[H])C([H])(O5)C([H])([H])C3([H])C([H])([H])[H]

$$$$
69:0:0
     RDKit          3D

 69 75  0  0  1  0  0  0  0  0999 V2000
   -2.9448    3.0502    3.4165 C   0  0  0  0  0  0  0  0  0  0  0  0
   -1.9674    3.7994    4.3606 C   0  0  2  0  0  0  0  0  0  0  0  0
   -0.7437    4.3248    3.5418 C   0  0  0  0  0  0  0  0  0  0  0  0
    0.5210    3.4454    3.6799 C   0  0  2  0  0  0  0  0  0  0  0  0
    0.1945    1.9965    4.1967 C   0  0  0  0  0  0  0  0  0  0  0  0
   -0.8251    1.8227    5.3039 N   0  0  2  0  0  0  0  0  0  0  0  0
   -1.6204    0.5572    5.1229 C   0  0  0  0  0  0  0  0  0  0  0  0
   -1.5989    3.0173    5.6780 C   0  0  1  0  0  0  0  0  0  0  0  0
   -0.7160    3.8088    6.6820 C   0  0  0  0  0  0  0  0  0  0  0  0
   -0.2475    5.0128    6.3859 C   0  0  0  0  0  0  0  0  0  0  0  0
    0.9767    5.4180    7.1058 C   0  0  1  0  0  0  0  0  0  0  0  0
    1.0231    4.3671    8.1891 C   0  0  1  0  0  0  0  0  0  0  0  0
   -0.2101    3.4675    8.0930 C   0  0  2  0  0  0  0  0  0  0  0  0
    0.4305    2.1122    8.4794 C   0  0  2  0  0  0  0  0  0  0  0  0
   -0.4985    0.9292    8.5245 C   0  0  0  0  0  0  0  0  0  0  0  0
   -1.6753    1.1212    8.1265 O   0  0  0  0  0  0  0  0  0  0  0  0
   -0.0569   -0.1873    8.8677 O   0  0  0  0  0  0  0  0  0  0  0  0
    1.3119    2.2265    9.7694 C   0  0  0  0  0  0  0  0  0  0  0  0
    2.6074    2.9512    9.2873 C   0  0  0  0  0  0  0  0  0  0  0  0
    2.1577    3.3630    7.8734 C   0  0  1  0  0  0  0  0  0  0  0  0
    1.5444    2.0042    7.4865 C   0  0  0  0  0  0  0  0  0  0  0  0
    3.0893    4.0230    6.7868 C   0  0  1  0  0  0  0  0  0  0  0  0
    4.3866    4.5132    7.4776 C   0  0  0  0  0  0  0  0  0  0  0  0
    3.5276    2.9751    5.6884 C   0  0  0  0  0  0  0  0  0  0  0  0
    4.2502    2.0534    5.9810 O   0  0  0  0  0  0  0  0  0  0  0  0
    3.0795    3.1090    4.2066 C   0  0  0  0  0  0  0  0  0  0  0  0
    1.9826    4.1281    3.8389 C   0  0  1  0  0  0  0  0  0  0  0  0
    2.3054    4.4538    2.4883 O   0  0  0  0  0  0  0  0  0  0  0  0
    2.2936    5.4811    4.6593 C   0  0  0  0  0  0  0  0  0  0  0  0
    3.7464    5.9654    4.3272 C   0  0  0  0  0  0  0  0  0  0  0  0
    1.4847    6.7232    4.2149 C   0  0  0  0  0  0  0  0  0  0  0  0
    2.2903    5.2639    6.2429 C   0  0  1  0  0  0  0  0  0  0  0  0
   -2.4871    2.2184    2.8755 H   0  0  0  0  0  0  0  0  0  0  0  0
   -3.3485    3.7192    2.6511 H   0  0  0  0  0  0  0  0  0  0  0  0
   -3.7966    2.6726    3.9755 H   0  0  0  0  0  0  0  0  0  0  0  0
   -2.5634    4.6495    4.6554 H   0  0  0  0  0  0  0  0  0  0  0  0
   -1.0568    4.3815    2.5005 H   0  0  0  0  0  0  0  0  0  0  0  0
   -0.5332    5.3787    3.7036 H   0  0  0  0  0  0  0  0  0  0  0  0
    0.5879    3.1079    2.6408 H   0  0  0  0  0  0  0  0  0  0  0  0
   -0.2183    1.4796    3.3351 H   0  0  0  0  0  0  0  0  0  0  0  0
    1.0897    1.4383    4.4298 H   0  0  0  0  0  0  0  0  0  0  0  0
   -2.1100    0.5159    4.1443 H   0  0  0  0  0  0  0  0  0  0  0  0
   -2.3555    0.4068    5.9128 H   0  0  0  0  0  0  0  0  0  0  0  0
   -0.8891   -0.2577    5.1658 H   0  0  0  0  0  0  0  0  0  0  0  0
   -2.5195    2.7624    6.2027 H   0  0  0  0  0  0  0  0  0  0  0  0
   -0.6412    5.6086    5.5989 H   0  0  0  0  0  0  0  0  0  0  0  0
    0.8391    6.4303    7.5161 H   0  0  0  0  0  0  0  0  0  0  0  0
    1.1095    4.8424    9.1648 H   0  0  0  0  0  0  0  0  0  0  0  0
   -0.9751    3.7373    8.8099 H   0  0  0  0  0  0  0  0  0  0  0  0
    0.7641    2.8202   10.4997 H   0  0  0  0  0  0  0  0  0  0  0  0
    1.5607    1.2651   10.2197 H   0  0  0  0  0  0  0  0  0  0  0  0
    2.8699    3.8002    9.9272 H   0  0  0  0  0  0  0  0  0  0  0  0
    3.4601    2.2623    9.2696 H   0  0  0  0  0  0  0  0  0  0  0  0
    2.2065    1.1477    7.6422 H   0  0  0  0  0  0  0  0  0  0  0  0
    1.2636    1.9297    6.4673 H   0  0  0  0  0  0  0  0  0  0  0  0
    4.1663    5.2025    8.2927 H   0  0  0  0  0  0  0  0  0  0  0  0
    5.0535    5.0256    6.7827 H   0  0  0  0  0  0  0  0  0  0  0  0
    4.9510    3.6867    7.9036 H   0  0  0  0  0  0  0  0  0  0  0  0
    3.9812    3.4097    3.6839 H   0  0  0  0  0  0  0  0  0  0  0  0
    2.8945    2.1180    3.7804 H   0  0  0  0  0  0  0  0  0  0  0  0
    1.5042    4.5378    1.9700 H   0  0  0  0  0  0  0  0  0  0  0  0
    3.9900    6.8686    4.8827 H   0  0  0  0  0  0  0  0  0  0  0  0
    3.8525    6.2310    3.2760 H   0  0  0  0  0  0  0  0  0  0  0  0
    4.5357    5.2621    4.5601 H   0  0  0  0  0  0  0  0  0  0  0  0
    2.0598    7.6425    4.3071 H   0  0  0  0  0  0  0  0  0  0  0  0
    0.5929    6.9289    4.7866 H   0  0  0  0  0  0  0  0  0  0  0  0
    1.2154    6.6510    3.1627 H   0  0  0  0  0  0  0  0  0  0  0  0
    2.8328    6.1398    6.5871 H   0  0  0  0  0  0  0  0  0  0  0  0
   -0.3225    1.6987    6.1521 H   0  0  0  0  0  0  0  0  0  0  0  0
  1  2  1  0
  1 33  1  0
  1 34  1  0
  1 35  1  0
  2  8  1  0
  2  3  1  0
  2 36  1  1
  3  4  1  0
  3 37  1  0
  3 38  1  0
  4 27  1  0
  4  5  1  0
  4 39  1  6
  5  6  1  0
  5 40  1  0
  5 41  1  0
  6  7  1  0
  6  8  1  0
  6 69  1  1
  7 42  1  0
  7 43  1  0
  7 44  1  0
  8  9  1  0
  8 45  1  1
  9 13  1  0
  9 10  2  0
 10 11  1  0
 10 46  1  0
 11 32  1  0
 11 12  1  0
 11 47  1  1
 12 20  1  0
 12 13  1  0
 12 48  1  1
 13 14  1  0
 13 49  1  1
 14 21  1  0
 14 15  1  1
 14 18  1  0
 15 16  2  0
 15 17  1  0
 18 19  1  0
 18 50  1  0
 18 51  1  0
 20 19  1  1
 19 52  1  0
 19 53  1  0
 20 21  1  0
 20 22  1  0
 21 54  1  0
 21 55  1  0
 22 32  1  0
 22 23  1  1
 22 24  1  0
 23 56  1  0
 23 57  1  0
 23 58  1  0
 24 25  2  0
 24 26  1  0
 26 27  1  0
 26 59  1  0
 26 60  1  0
 27 28  1  6
 27 29  1  0
 28 61  1  0
 29 30  1  0
 29 31  1  0
 29 32  1  0
 30 62  1  0
 30 63  1  0
 30 64  1  0
 31 65  1  0
 31 66  1  0
 31 67  1  0
 32 68  1  1
M  CHG  2   6   1  17  -1
M  END
>  <i_m_ct_stereo_status>  (210) 
1

>  <s_m_source_file>  (210) 
/var/tmp/pbs.5076255.sched01/tmp378oxcv0/78pm6kuo1p.sdf

>  <i_m_source_file_index>  (210) 
21

>  <i_lp_mmshare_version>  (210) 
48012

>  <i_f3d_flags>  (210) 
0

>  <s_epik_input>  (210) 
Tz1DKFtPSF0pW0NAXShbQ0gyXTEpKFtDSDJdW0NIMl0yKVtDQEBIXTNDKD1bQ0hdNClbQ0BIXShOKFtDSDJdNSlbQ0gzXSlbQ0BIXShbQ0gzXSlbQ0gyXVtDQEhdNVtDQEBdKFtPSF0pKEM2KFtDSDNdKVtDSDNdKVtDSDJdQyg9TylbQ0BAXTcoW0NIM10pW0NAQEhdNltDQEBIXTRbQ0BASF0zW0NAXTEyNw==

>  <s_epik_cmdline>  (210) 
J2VwaWtfcHl0aG9uJywgJy1waHQnLCAnMi4wJywgJy1waCcsICc3LjAnLCAnLXRuJywgJzgnLCAnLW1hJywgJzIwMCcsICctaW1hZScsICc8aW5maWxlLm1hZT4nLCAnLW9tYWUnLCAnPG91dGZpbGUubWFlPic=

>  <r_lp_tautomer_probability>  (210) 
1

>  <r_epik_Ionization_Penalty>  (210) 
0.00220354

>  <r_epik_Ionization_Penalty_Charging>  (210) 
0.0022035

>  <r_epik_Ionization_Penalty_Neutral>  (210) 
3.43196e-08

>  <r_epik_State_Penalty>  (210) 
-0

>  <r_epik_Charging_Adjusted_Penalty>  (210) 
0.0022035

>  <i_epik_Tot_Q>  (210) 
0

>  <i_epik_Tot_abs_Q>  (210) 
2

>  <s_lp_Force_Field>  (210) 
OPLS3e

>  <r_lp_Energy>  (210) 
158.251

>  <b_lp_Chiralities_Consistent>  (210) 
1

>  <s_lp_Variant>  (210) 
69:0-1

>  <s_i_glide_gridfile>  (210) 
pfpi4k_grid

>  <i_i_glide_lignum>  (210) 
21

>  <i_i_glide_rotatable_bonds>  (210) 
2

>  <r_i_docking_score>  (210) 
-2.57583

>  <r_i_glide_ligand_efficiency>  (210) 
-0.0804948

>  <r_i_glide_ligand_efficiency_sa>  (210) 
-0.255555

>  <r_i_glide_ligand_efficiency_ln>  (210) 
-0.576799

>  <r_i_glide_gscore>  (210) 
-2.57583

>  <r_i_glide_lipo>  (210) 
-0.0147573

>  <r_i_glide_hbond>  (210) 
-0.279968

>  <r_i_glide_metal>  (210) 
-0

>  <r_i_glide_rewards>  (210) 
-0.411907

>  <r_i_glide_evdw>  (210) 
-16.0045

>  <r_i_glide_ecoul>  (210) 
-6.74951

>  <r_i_glide_erotb>  (210) 
0

>  <r_i_glide_esite>  (210) 
-0.0565476

>  <r_i_glide_emodel>  (210) 
-26.0211

>  <r_i_glide_energy>  (210) 
-22.754

>  <r_i_glide_einternal>  (210) 
1.18799

>  <r_i_glide_intrahb_reward>  (210) 
-0

>  <i_i_glide_confnum>  (210) 
2

>  <i_i_glide_posenum>  (210) 
40

>  <r_i_glide_eff_state_penalty>  (210) 
0

>  <ligand_id>  (210) 
69

>  <original_smiles>  (210) 
CC1CC2CN(C)C1C1=CC3C4C1C1(C(=O)O)CCC4(C1)C1(C)C(=O)CC2(O)C(C)(C)C31

>  <smiles>  (210) 
[H]OC12C([H])([H])C(=O)C3(C([H])([H])[H])C([H])(C4([H])C([H])=C(C5([H])C4([H])C34C([H])([H])C([H])([H])C5(C(=O)[O-])C4([H])[H])C3([H])C([H])(C([H])([H])[H])C([H])([H])C1([H])C([H])([H])[N+]3([H])C([H])([H])[H])C2(C([H])([H])[H])C([H])([H])[H]

$$$$
69:0:1
     RDKit          3D

 69 75  0  0  1  0  0  0  0  0999 V2000
    3.1560    0.1619    1.5204 C   0  0  0  0  0  0  0  0  0  0  0  0
    1.9847    0.0773    2.5278 C   0  0  2  0  0  0  0  0  0  0  0  0
    1.1725    1.4202    2.5459 C   0  0  0  0  0  0  0  0  0  0  0  0
    1.5098    2.3621    3.7266 C   0  0  2  0  0  0  0  0  0  0  0  0
    2.9107    2.0202    4.3663 C   0  0  0  0  0  0  0  0  0  0  0  0
    3.2771    0.5708    4.5927 N   0  0  2  0  0  0  0  0  0  0  0  0
    4.7501    0.3233    4.4755 C   0  0  0  0  0  0  0  0  0  0  0  0
    2.4124   -0.4507    3.9508 C   0  0  1  0  0  0  0  0  0  0  0  0
    1.2440   -0.6744    4.9386 C   0  0  0  0  0  0  0  0  0  0  0  0
   -0.0036   -0.3790    4.6257 C   0  0  0  0  0  0  0  0  0  0  0  0
   -0.8854   -0.0670    5.7642 C   0  0  1  0  0  0  0  0  0  0  0  0
   -0.0412   -0.6056    6.8978 C   0  0  1  0  0  0  0  0  0  0  0  0
    1.2544   -1.2311    6.3723 C   0  0  2  0  0  0  0  0  0  0  0  0
    2.2305   -0.7860    7.4971 C   0  0  2  0  0  0  0  0  0  0  0  0
    3.6931   -1.2170    7.3486 C   0  0  0  0  0  0  0  0  0  0  0  0
    3.9122   -2.1054    6.4947 O   0  0  0  0  0  0  0  0  0  0  0  0
    4.5459   -0.6376    8.0453 O   0  0  0  0  0  0  0  0  0  0  0  0
    1.6668   -1.1099    8.9176 C   0  0  0  0  0  0  0  0  0  0  0  0
    0.5775   -0.0141    9.1541 C   0  0  0  0  0  0  0  0  0  0  0  0
    0.5032    0.5776    7.7349 C   0  0  1  0  0  0  0  0  0  0  0  0
    2.0282    0.6885    7.5308 C   0  0  0  0  0  0  0  0  0  0  0  0
   -0.3030    1.8701    7.3400 C   0  0  1  0  0  0  0  0  0  0  0  0
   -1.3091    2.2038    8.4701 C   0  0  0  0  0  0  0  0  0  0  0  0
    0.6248    3.1269    7.1723 C   0  0  0  0  0  0  0  0  0  0  0  0
    1.2063    3.5900    8.1538 O   0  0  0  0  0  0  0  0  0  0  0  0
    0.8463    3.8365    5.8156 C   0  0  0  0  0  0  0  0  0  0  0  0
    0.3319    3.1447    4.5271 C   0  0  1  0  0  0  0  0  0  0  0  0
    0.0871    4.2758    3.6735 O   0  0  0  0  0  0  0  0  0  0  0  0
   -1.1155    2.5366    4.8538 C   0  0  0  0  0  0  0  0  0  0  0  0
   -2.0477    3.6855    5.3596 C   0  0  0  0  0  0  0  0  0  0  0  0
   -1.9126    2.0691    3.6110 C   0  0  0  0  0  0  0  0  0  0  0  0
   -1.0965    1.4693    6.0350 C   0  0  1  0  0  0  0  0  0  0  0  0
    3.8158    1.0075    1.7070 H   0  0  0  0  0  0  0  0  0  0  0  0
    2.7717    0.2687    0.5067 H   0  0  0  0  0  0  0  0  0  0  0  0
    3.7553   -0.7472    1.5183 H   0  0  0  0  0  0  0  0  0  0  0  0
    1.3503   -0.6849    2.0783 H   0  0  0  0  0  0  0  0  0  0  0  0
    1.3378    1.9396    1.6060 H   0  0  0  0  0  0  0  0  0  0  0  0
    0.1098    1.2539    2.4543 H   0  0  0  0  0  0  0  0  0  0  0  0
    1.9261    3.1907    3.1462 H   0  0  0  0  0  0  0  0  0  0  0  0
    3.6657    2.4148    3.6783 H   0  0  0  0  0  0  0  0  0  0  0  0
    3.0925    2.5778    5.2829 H   0  0  0  0  0  0  0  0  0  0  0  0
    5.1288    0.5259    3.4698 H   0  0  0  0  0  0  0  0  0  0  0  0
    4.9917   -0.7133    4.7402 H   0  0  0  0  0  0  0  0  0  0  0  0
    5.2601    0.9827    5.1941 H   0  0  0  0  0  0  0  0  0  0  0  0
    2.9393   -1.4032    3.8453 H   0  0  0  0  0  0  0  0  0  0  0  0
   -0.2952   -0.2203    3.6241 H   0  0  0  0  0  0  0  0  0  0  0  0
   -1.8117   -0.6296    5.6435 H   0  0  0  0  0  0  0  0  0  0  0  0
   -0.5930   -1.3190    7.5024 H   0  0  0  0  0  0  0  0  0  0  0  0
    1.1830   -2.3172    6.3282 H   0  0  0  0  0  0  0  0  0  0  0  0
    1.2342   -2.1098    8.9019 H   0  0  0  0  0  0  0  0  0  0  0  0
    2.4364   -1.0861    9.6889 H   0  0  0  0  0  0  0  0  0  0  0  0
   -0.3687   -0.4326    9.4995 H   0  0  0  0  0  0  0  0  0  0  0  0
    0.9095    0.7099    9.9046 H   0  0  0  0  0  0  0  0  0  0  0  0
    2.5680    1.1785    8.3478 H   0  0  0  0  0  0  0  0  0  0  0  0
    2.3238    1.2265    6.6624 H   0  0  0  0  0  0  0  0  0  0  0  0
   -1.9667    1.3648    8.6871 H   0  0  0  0  0  0  0  0  0  0  0  0
   -1.9399    3.0619    8.2282 H   0  0  0  0  0  0  0  0  0  0  0  0
   -0.7993    2.4513    9.4006 H   0  0  0  0  0  0  0  0  0  0  0  0
    0.3132    4.7796    5.9182 H   0  0  0  0  0  0  0  0  0  0  0  0
    1.8849    4.1700    5.7267 H   0  0  0  0  0  0  0  0  0  0  0  0
    0.0746    4.0206    2.7651 H   0  0  0  0  0  0  0  0  0  0  0  0
   -3.0375    3.3121    5.6056 H   0  0  0  0  0  0  0  0  0  0  0  0
   -2.2034    4.4448    4.5962 H   0  0  0  0  0  0  0  0  0  0  0  0
   -1.7053    4.1941    6.2512 H   0  0  0  0  0  0  0  0  0  0  0  0
   -2.9839    2.2146    3.7375 H   0  0  0  0  0  0  0  0  0  0  0  0
   -1.8238    1.0162    3.3983 H   0  0  0  0  0  0  0  0  0  0  0  0
   -1.6444    2.6219    2.7077 H   0  0  0  0  0  0  0  0  0  0  0  0
   -2.1418    1.4533    6.3236 H   0  0  0  0  0  0  0  0  0  0  0  0
    3.0878    0.3745    5.5577 H   0  0  0  0  0  0  0  0  0  0  0  0
  1  2  1  0
  1 33  1  0
  1 34  1  0
  1 35  1  0
  2  8  1  0
  2  3  1  0
  2 36  1  6
  3  4  1  0
  3 37  1  0
  3 38  1  0
  4 27  1  0
  4  5  1  0
  4 39  1  6
  5  6  1  0
  5 40  1  0
  5 41  1  0
  6  7  1  0
  6  8  1  0
  6 69  1  1
  7 42  1  0
  7 43  1  0
  7 44  1  0
  8  9  1  0
  8 45  1  6
  9 13  1  0
  9 10  2  0
 10 11  1  0
 10 46  1  0
 11 32  1  0
 11 12  1  0
 11 47  1  6
 12 20  1  0
 12 13  1  0
 12 48  1  1
 13 14  1  0
 13 49  1  6
 14 21  1  0
 14 15  1  6
 14 18  1  0
 15 16  2  0
 15 17  1  0
 18 19  1  0
 18 50  1  0
 18 51  1  0
 20 19  1  1
 19 52  1  0
 19 53  1  0
 20 21  1  0
 20 22  1  0
 21 54  1  0
 21 55  1  0
 22 32  1  0
 22 23  1  1
 22 24  1  0
 23 56  1  0
 23 57  1  0
 23 58  1  0
 24 25  2  0
 24 26  1  0
 26 27  1  0
 26 59  1  0
 26 60  1  0
 27 28  1  6
 27 29  1  0
 28 61  1  0
 29 30  1  0
 29 31  1  0
 29 32  1  0
 30 62  1  0
 30 63  1  0
 30 64  1  0
 31 65  1  0
 31 66  1  0
 31 67  1  0
 32 68  1  1
M  CHG  2   6   1  17  -1
M  END
>  <i_m_ct_stereo_status>  (211) 
1

>  <s_m_source_file>  (211) 
/var/tmp/pbs.5076255.sched01/tmp378oxcv0/78pm6kuo1p.sdf

>  <i_m_source_file_index>  (211) 
21

>  <i_lp_mmshare_version>  (211) 
48012

>  <i_f3d_flags>  (211) 
0

>  <s_epik_input>  (211) 
Tz1DKFtPSF0pW0NAXShbQ0gyXTEpKFtDSDJdW0NIMl0yKVtDQEBIXTNDKD1bQ0hdNClbQ0BIXShOKFtDSDJdNSlbQ0gzXSlbQ0BIXShbQ0gzXSlbQ0gyXVtDQEhdNVtDQEBdKFtPSF0pKEM2KFtDSDNdKVtDSDNdKVtDSDJdQyg9TylbQ0BAXTcoW0NIM10pW0NAQEhdNltDQEBIXTRbQ0BASF0zW0NAXTEyNw==

>  <s_epik_cmdline>  (211) 
J2VwaWtfcHl0aG9uJywgJy1waHQnLCAnMi4wJywgJy1waCcsICc3LjAnLCAnLXRuJywgJzgnLCAnLW1hJywgJzIwMCcsICctaW1hZScsICc8aW5maWxlLm1hZT4nLCAnLW9tYWUnLCAnPG91dGZpbGUubWFlPic=

>  <r_lp_tautomer_probability>  (211) 
1

>  <r_epik_Ionization_Penalty>  (211) 
0.00220354

>  <r_epik_Ionization_Penalty_Charging>  (211) 
0.0022035

>  <r_epik_Ionization_Penalty_Neutral>  (211) 
3.43196e-08

>  <r_epik_State_Penalty>  (211) 
-0

>  <r_epik_Charging_Adjusted_Penalty>  (211) 
0.0022035

>  <i_epik_Tot_Q>  (211) 
0

>  <i_epik_Tot_abs_Q>  (211) 
2

>  <s_lp_Force_Field>  (211) 
OPLS3e

>  <r_lp_Energy>  (211) 
158.251

>  <b_lp_Chiralities_Consistent>  (211) 
1

>  <s_lp_Variant>  (211) 
69:0-1

>  <s_i_glide_gridfile>  (211) 
pfpi4k_grid

>  <i_i_glide_lignum>  (211) 
21

>  <i_i_glide_rotatable_bonds>  (211) 
2

>  <r_i_docking_score>  (211) 
-2.15181

>  <r_i_glide_ligand_efficiency>  (211) 
-0.0672441

>  <r_i_glide_ligand_efficiency_sa>  (211) 
-0.213487

>  <r_i_glide_ligand_efficiency_ln>  (211) 
-0.481849

>  <r_i_glide_gscore>  (211) 
-2.15181

>  <r_i_glide_lipo>  (211) 
-0.108702

>  <r_i_glide_hbond>  (211) 
-0.16

>  <r_i_glide_metal>  (211) 
-0

>  <r_i_glide_rewards>  (211) 
-0.411907

>  <r_i_glide_evdw>  (211) 
-18.043

>  <r_i_glide_ecoul>  (211) 
-3.79367

>  <r_i_glide_erotb>  (211) 
0

>  <r_i_glide_esite>  (211) 
0

>  <r_i_glide_emodel>  (211) 
-25.1091

>  <r_i_glide_energy>  (211) 
-21.8367

>  <r_i_glide_einternal>  (211) 
0.508715

>  <r_i_glide_intrahb_reward>  (211) 
-0

>  <i_i_glide_confnum>  (211) 
2

>  <i_i_glide_posenum>  (211) 
7

>  <r_i_glide_eff_state_penalty>  (211) 
0

>  <ligand_id>  (211) 
69

>  <original_smiles>  (211) 
CC1CC2CN(C)C1C1=CC3C4C1C1(C(=O)O)CCC4(C1)C1(C)C(=O)CC2(O)C(C)(C)C31

>  <smiles>  (211) 
[H]OC12C([H])([H])C(=O)C3(C([H])([H])[H])C([H])(C4([H])C([H])=C(C5([H])C4([H])C34C([H])([H])C([H])([H])C5(C(=O)[O-])C4([H])[H])C3([H])C([H])(C([H])([H])[H])C([H])([H])C1([H])C([H])([H])[N+]3([H])C([H])([H])[H])C2(C([H])([H])[H])C([H])([H])[H]

$$$$
69:0:2
     RDKit          3D

 69 75  0  0  1  0  0  0  0  0999 V2000
   -2.4009    3.9419    2.9092 C   0  0  0  0  0  0  0  0  0  0  0  0
   -1.6021    3.9498    4.2334 C   0  0  2  0  0  0  0  0  0  0  0  0
   -0.3034    4.8150    4.0888 C   0  0  0  0  0  0  0  0  0  0  0  0
    0.9867    3.9847    3.8667 C   0  0  2  0  0  0  0  0  0  0  0  0
    0.6889    2.5462    3.3368 C   0  0  0  0  0  0  0  0  0  0  0  0
   -0.4404    1.7682    3.9616 N   0  0  2  0  0  0  0  0  0  0  0  0
   -1.0892    0.8234    3.0125 C   0  0  0  0  0  0  0  0  0  0  0  0
   -1.3692    2.5212    4.8564 C   0  0  1  0  0  0  0  0  0  0  0  0
   -0.7059    2.5062    6.2433 C   0  0  0  0  0  0  0  0  0  0  0  0
   -0.2834    3.6156    6.8129 C   0  0  0  0  0  0  0  0  0  0  0  0
    0.8074    3.4610    7.7991 C   0  0  1  0  0  0  0  0  0  0  0  0
    0.7643    1.9626    8.0087 C   0  0  1  0  0  0  0  0  0  0  0  0
   -0.3845    1.3361    7.1867 C   0  0  2  0  0  0  0  0  0  0  0  0
    0.3098    0.0237    6.7398 C   0  0  2  0  0  0  0  0  0  0  0  0
   -0.5332   -0.9121    5.8642 C   0  0  0  0  0  0  0  0  0  0  0  0
    0.0585   -1.6368    5.0403 O   0  0  0  0  0  0  0  0  0  0  0  0
   -1.7637   -0.8392    6.0458 O   0  0  0  0  0  0  0  0  0  0  0  0
    0.9633   -0.7143    7.9502 C   0  0  0  0  0  0  0  0  0  0  0  0
    2.2653    0.1105    8.2452 C   0  0  0  0  0  0  0  0  0  0  0  0
    2.0023    1.3256    7.3434 C   0  0  1  0  0  0  0  0  0  0  0  0
    1.5622    0.5151    6.1067 C   0  0  0  0  0  0  0  0  0  0  0  0
    3.0361    2.4674    7.0361 C   0  0  1  0  0  0  0  0  0  0  0  0
    4.1835    2.4063    8.0745 C   0  0  0  0  0  0  0  0  0  0  0  0
    3.6892    2.3101    5.6226 C   0  0  0  0  0  0  0  0  0  0  0  0
    4.4493    1.3510    5.3979 O   0  0  0  0  0  0  0  0  0  0  0  0
    3.4679    3.3082    4.4715 C   0  0  0  0  0  0  0  0  0  0  0  0
    2.3528    4.3745    4.6374 C   0  0  1  0  0  0  0  0  0  0  0  0
    2.8360    5.4638    3.8527 O   0  0  0  0  0  0  0  0  0  0  0  0
    2.4481    4.9355    6.1403 C   0  0  0  0  0  0  0  0  0  0  0  0
    3.8989    5.4922    6.3960 C   0  0  0  0  0  0  0  0  0  0  0  0
    1.6279    6.2324    6.4123 C   0  0  0  0  0  0  0  0  0  0  0  0
    2.2296    3.8081    7.2340 C   0  0  1  0  0  0  0  0  0  0  0  0
   -1.7899    3.5699    2.0841 H   0  0  0  0  0  0  0  0  0  0  0  0
   -2.7260    4.9402    2.6141 H   0  0  0  0  0  0  0  0  0  0  0  0
   -3.2891    3.3172    2.9670 H   0  0  0  0  0  0  0  0  0  0  0  0
   -2.2698    4.4675    4.8992 H   0  0  0  0  0  0  0  0  0  0  0  0
   -0.4309    5.4983    3.2515 H   0  0  0  0  0  0  0  0  0  0  0  0
   -0.1868    5.5369    4.8901 H   0  0  0  0  0  0  0  0  0  0  0  0
    1.2185    4.3530    2.8693 H   0  0  0  0  0  0  0  0  0  0  0  0
    0.4294    2.6268    2.2834 H   0  0  0  0  0  0  0  0  0  0  0  0
    1.5733    1.9202    3.3204 H   0  0  0  0  0  0  0  0  0  0  0  0
   -1.6081    1.3310    2.2014 H   0  0  0  0  0  0  0  0  0  0  0  0
   -1.7789    0.1939    3.5684 H   0  0  0  0  0  0  0  0  0  0  0  0
   -0.3180    0.1724    2.6017 H   0  0  0  0  0  0  0  0  0  0  0  0
   -2.3239    2.0077    4.9467 H   0  0  0  0  0  0  0  0  0  0  0  0
   -0.6160    4.5727    6.4998 H   0  0  0  0  0  0  0  0  0  0  0  0
    0.5404    4.0036    8.7162 H   0  0  0  0  0  0  0  0  0  0  0  0
    0.6845    1.7308    9.0802 H   0  0  0  0  0  0  0  0  0  0  0  0
   -1.2541    1.1393    7.8206 H   0  0  0  0  0  0  0  0  0  0  0  0
    0.2898   -0.6743    8.8040 H   0  0  0  0  0  0  0  0  0  0  0  0
    1.1929   -1.7579    7.7414 H   0  0  0  0  0  0  0  0  0  0  0  0
    2.3695    0.3775    9.3001 H   0  0  0  0  0  0  0  0  0  0  0  0
    3.1616   -0.4474    7.9587 H   0  0  0  0  0  0  0  0  0  0  0  0
    2.2511   -0.2873    5.8268 H   0  0  0  0  0  0  0  0  0  0  0  0
    1.4514    1.0856    5.2161 H   0  0  0  0  0  0  0  0  0  0  0  0
    3.8088    2.4607    9.0946 H   0  0  0  0  0  0  0  0  0  0  0  0
    4.9084    3.2126    7.9455 H   0  0  0  0  0  0  0  0  0  0  0  0
    4.7457    1.4735    7.9951 H   0  0  0  0  0  0  0  0  0  0  0  0
    4.4100    3.8437    4.4321 H   0  0  0  0  0  0  0  0  0  0  0  0
    3.4258    2.7988    3.5079 H   0  0  0  0  0  0  0  0  0  0  0  0
    2.8246    5.2158    2.9391 H   0  0  0  0  0  0  0  0  0  0  0  0
    3.9981    5.8585    7.4123 H   0  0  0  0  0  0  0  0  0  0  0  0
    4.1373    6.3436    5.7585 H   0  0  0  0  0  0  0  0  0  0  0  0
    4.7005    4.7747    6.2719 H   0  0  0  0  0  0  0  0  0  0  0  0
    2.1172    6.8780    7.1370 H   0  0  0  0  0  0  0  0  0  0  0  0
    0.6559    6.0653    6.8425 H   0  0  0  0  0  0  0  0  0  0  0  0
    1.5109    6.8413    5.5130 H   0  0  0  0  0  0  0  0  0  0  0  0
    2.6554    4.2796    8.1071 H   0  0  0  0  0  0  0  0  0  0  0  0
   -0.0132    1.1478    4.6370 H   0  0  0  0  0  0  0  0  0  0  0  0
  1  2  1  0
  1 33  1  0
  1 34  1  0
  1 35  1  0
  2  8  1  0
  2  3  1  0
  2 36  1  1
  3  4  1  0
  3 37  1  0
  3 38  1  0
  4 27  1  0
  4  5  1  0
  4 39  1  6
  5  6  1  0
  5 40  1  0
  5 41  1  0
  6  7  1  0
  6  8  1  0
  6 69  1  1
  7 42  1  0
  7 43  1  0
  7 44  1  0
  8  9  1  0
  8 45  1  1
  9 13  1  0
  9 10  2  0
 10 11  1  0
 10 46  1  0
 11 32  1  0
 11 12  1  0
 11 47  1  1
 12 20  1  0
 12 13  1  0
 12 48  1  1
 13 14  1  0
 13 49  1  1
 14 21  1  0
 14 15  1  6
 14 18  1  0
 15 16  2  0
 15 17  1  0
 18 19  1  0
 18 50  1  0
 18 51  1  0
 20 19  1  1
 19 52  1  0
 19 53  1  0
 20 21  1  0
 20 22  1  0
 21 54  1  0
 21 55  1  0
 22 32  1  0
 22 23  1  1
 22 24  1  0
 23 56  1  0
 23 57  1  0
 23 58  1  0
 24 25  2  0
 24 26  1  0
 26 27  1  0
 26 59  1  0
 26 60  1  0
 27 28  1  6
 27 29  1  0
 28 61  1  0
 29 30  1  0
 29 31  1  0
 29 32  1  0
 30 62  1  0
 30 63  1  0
 30 64  1  0
 31 65  1  0
 31 66  1  0
 31 67  1  0
 32 68  1  1
M  CHG  2   6   1  17  -1
M  END
>  <i_m_ct_stereo_status>  (212) 
1

>  <s_m_source_file>  (212) 
/var/tmp/pbs.5076255.sched01/tmp378oxcv0/78pm6kuo1p.sdf

>  <i_m_source_file_index>  (212) 
21

>  <i_lp_mmshare_version>  (212) 
48012

>  <i_f3d_flags>  (212) 
0

>  <s_epik_input>  (212) 
Tz1DKFtPSF0pW0NAXShbQ0gyXTEpKFtDSDJdW0NIMl0yKVtDQEBIXTNDKD1bQ0hdNClbQ0BIXShOKFtDSDJdNSlbQ0gzXSlbQ0BIXShbQ0gzXSlbQ0gyXVtDQEhdNVtDQEBdKFtPSF0pKEM2KFtDSDNdKVtDSDNdKVtDSDJdQyg9TylbQ0BAXTcoW0NIM10pW0NAQEhdNltDQEBIXTRbQ0BASF0zW0NAXTEyNw==

>  <s_epik_cmdline>  (212) 
J2VwaWtfcHl0aG9uJywgJy1waHQnLCAnMi4wJywgJy1waCcsICc3LjAnLCAnLXRuJywgJzgnLCAnLW1hJywgJzIwMCcsICctaW1hZScsICc8aW5maWxlLm1hZT4nLCAnLW9tYWUnLCAnPG91dGZpbGUubWFlPic=

>  <r_lp_tautomer_probability>  (212) 
1

>  <r_epik_Ionization_Penalty>  (212) 
0.00220354

>  <r_epik_Ionization_Penalty_Charging>  (212) 
0.0022035

>  <r_epik_Ionization_Penalty_Neutral>  (212) 
3.43196e-08

>  <r_epik_State_Penalty>  (212) 
-0

>  <r_epik_Charging_Adjusted_Penalty>  (212) 
0.0022035

>  <i_epik_Tot_Q>  (212) 
0

>  <i_epik_Tot_abs_Q>  (212) 
2

>  <s_lp_Force_Field>  (212) 
OPLS3e

>  <r_lp_Energy>  (212) 
158.251

>  <b_lp_Chiralities_Consistent>  (212) 
1

>  <s_lp_Variant>  (212) 
69:0-1

>  <s_i_glide_gridfile>  (212) 
pfpi4k_grid

>  <i_i_glide_lignum>  (212) 
21

>  <i_i_glide_rotatable_bonds>  (212) 
2

>  <r_i_docking_score>  (212) 
-2.06761

>  <r_i_glide_ligand_efficiency>  (212) 
-0.0646129

>  <r_i_glide_ligand_efficiency_sa>  (212) 
-0.205133

>  <r_i_glide_ligand_efficiency_ln>  (212) 
-0.462995

>  <r_i_glide_gscore>  (212) 
-2.06761

>  <r_i_glide_lipo>  (212) 
0

>  <r_i_glide_hbond>  (212) 
-0.112313

>  <r_i_glide_metal>  (212) 
-0

>  <r_i_glide_rewards>  (212) 
-0.411907

>  <r_i_glide_evdw>  (212) 
-17.7663

>  <r_i_glide_ecoul>  (212) 
-3.92977

>  <r_i_glide_erotb>  (212) 
0

>  <r_i_glide_esite>  (212) 
-0.0656119

>  <r_i_glide_emodel>  (212) 
-25.0886

>  <r_i_glide_energy>  (212) 
-21.696

>  <r_i_glide_einternal>  (212) 
0.231499

>  <r_i_glide_intrahb_reward>  (212) 
-0

>  <i_i_glide_confnum>  (212) 
2

>  <i_i_glide_posenum>  (212) 
15

>  <r_i_glide_eff_state_penalty>  (212) 
0

>  <ligand_id>  (212) 
69

>  <original_smiles>  (212) 
CC1CC2CN(C)C1C1=CC3C4C1C1(C(=O)O)CCC4(C1)C1(C)C(=O)CC2(O)C(C)(C)C31

>  <smiles>  (212) 
[H]OC12C([H])([H])C(=O)C3(C([H])([H])[H])C([H])(C4([H])C([H])=C(C5([H])C4([H])C34C([H])([H])C([H])([H])C5(C(=O)[O-])C4([H])[H])C3([H])C([H])(C([H])([H])[H])C([H])([H])C1([H])C([H])([H])[N+]3([H])C([H])([H])[H])C2(C([H])([H])[H])C([H])([H])[H]

$$$$
70:0:0
     RDKit          3D

 52 56  0  0  1  0  0  0  0  0999 V2000
    8.8784   -3.9698   -0.4198 C   0  0  0  0  0  0  0  0  0  0  0  0
    7.5434   -3.5545   -0.6282 O   0  0  0  0  0  0  0  0  0  0  0  0
    6.9868   -2.8299    0.4193 C   0  0  2  0  0  0  0  0  0  0  0  0
    6.9567   -3.5836    1.6028 O   0  0  0  0  0  0  0  0  0  0  0  0
    5.7637   -3.5289    2.3841 C   0  0  1  0  0  0  0  0  0  0  0  0
    5.4798   -2.0697    2.8528 C   0  0  1  0  0  0  0  0  0  0  0  0
    6.1445   -1.1365    2.0016 O   0  0  0  0  0  0  0  0  0  0  0  0
    5.0204   -1.2334    1.1306 C   0  0  2  0  0  0  0  0  0  0  0  0
    4.2032   -1.3335    2.4830 C   0  0  2  0  0  0  0  0  0  0  0  0
    4.0304    0.0431    3.1523 C   0  0  0  0  0  0  0  0  0  0  0  0
    2.8446   -1.9998    2.8496 C   0  0  1  0  0  0  0  0  0  0  0  0
    1.5858   -1.4576    2.1528 C   0  0  0  0  0  0  0  0  0  0  0  0
    2.7921   -3.5175    3.1234 C   0  0  0  0  0  0  0  0  0  0  0  0
    2.2325   -3.9227    4.1367 O   0  0  0  0  0  0  0  0  0  0  0  0
    3.3615   -4.5553    2.1543 C   0  0  0  0  0  0  0  0  0  0  0  0
    4.6914   -4.2043    1.4787 C   0  0  1  0  0  0  0  0  0  0  0  0
    4.6104   -3.5826    0.0479 C   0  0  1  0  0  0  0  0  0  0  0  0
    5.0098   -4.6751   -0.9795 C   0  0  0  0  0  0  0  0  0  0  0  0
    3.1988   -3.1565   -0.4279 C   0  0  0  0  0  0  0  0  0  0  0  0
    3.1936   -2.2546   -1.6385 C   0  0  0  0  0  0  0  0  0  0  0  0
    4.2551   -1.5429   -2.0467 C   0  0  0  0  0  0  0  0  0  0  0  0
    4.1760   -0.6004   -3.2271 C   0  0  0  0  0  0  0  0  0  0  0  0
    5.5932   -1.6545   -1.3404 C   0  0  0  0  0  0  0  0  0  0  0  0
    5.5225   -2.3208    0.0676 C   0  0  2  0  0  0  0  0  0  0  0  0
    9.2006   -4.5431   -1.2885 H   0  0  0  0  0  0  0  0  0  0  0  0
    8.9832   -4.6129    0.4560 H   0  0  0  0  0  0  0  0  0  0  0  0
    9.5392   -3.1111   -0.3094 H   0  0  0  0  0  0  0  0  0  0  0  0
    7.6662   -1.9846    0.5399 H   0  0  0  0  0  0  0  0  0  0  0  0
    5.8976   -4.1636    3.2686 H   0  0  0  0  0  0  0  0  0  0  0  0
    5.6657   -1.8961    3.9182 H   0  0  0  0  0  0  0  0  0  0  0  0
    4.7968   -0.2688    0.6684 H   0  0  0  0  0  0  0  0  0  0  0  0
    3.2303    0.6293    2.7061 H   0  0  0  0  0  0  0  0  0  0  0  0
    4.9325    0.6406    3.0678 H   0  0  0  0  0  0  0  0  0  0  0  0
    3.8387   -0.0228    4.2201 H   0  0  0  0  0  0  0  0  0  0  0  0
    2.6554   -1.6891    3.8696 H   0  0  0  0  0  0  0  0  0  0  0  0
    1.0687   -2.2560    1.6552 H   0  0  0  0  0  0  0  0  0  0  0  0
    1.7959   -0.6784    1.4164 H   0  0  0  0  0  0  0  0  0  0  0  0
    0.8827   -1.0584    2.8857 H   0  0  0  0  0  0  0  0  0  0  0  0
    3.5358   -5.4524    2.7521 H   0  0  0  0  0  0  0  0  0  0  0  0
    2.6075   -4.8517    1.4273 H   0  0  0  0  0  0  0  0  0  0  0  0
    5.1366   -5.1939    1.3445 H   0  0  0  0  0  0  0  0  0  0  0  0
    5.1507   -4.2879   -1.9866 H   0  0  0  0  0  0  0  0  0  0  0  0
    4.2428   -5.4427   -1.0318 H   0  0  0  0  0  0  0  0  0  0  0  0
    5.8973   -5.2215   -0.6892 H   0  0  0  0  0  0  0  0  0  0  0  0
    2.5640   -4.0189   -0.6525 H   0  0  0  0  0  0  0  0  0  0  0  0
    2.6856   -2.5937    0.3263 H   0  0  0  0  0  0  0  0  0  0  0  0
    2.2337   -2.1401   -2.1282 H   0  0  0  0  0  0  0  0  0  0  0  0
    4.8893   -0.8981   -3.9938 H   0  0  0  0  0  0  0  0  0  0  0  0
    4.3782    0.4274   -2.9215 H   0  0  0  0  0  0  0  0  0  0  0  0
    3.1801   -0.6180   -3.6760 H   0  0  0  0  0  0  0  0  0  0  0  0
    6.2270   -2.2178   -2.0310 H   0  0  0  0  0  0  0  0  0  0  0  0
    6.0139   -0.6608   -1.2391 H   0  0  0  0  0  0  0  0  0  0  0  0
  1  2  1  0
  1 25  1  0
  1 26  1  0
  1 27  1  0
  2  3  1  0
  3 24  1  0
  3  4  1  0
  3 28  1  1
  4  5  1  0
  5 16  1  0
  5  6  1  0
  5 29  1  1
  6  9  1  0
  6  7  1  0
  6 30  1  1
  7  8  1  0
  8 24  1  0
  8  9  1  0
  8 31  1  6
  9 10  1  1
  9 11  1  0
 10 32  1  0
 10 33  1  0
 10 34  1  0
 11 12  1  0
 11 13  1  0
 11 35  1  1
 12 36  1  0
 12 37  1  0
 12 38  1  0
 13 14  2  0
 13 15  1  0
 15 16  1  0
 15 39  1  0
 15 40  1  0
 16 17  1  0
 16 41  1  6
 17 24  1  0
 17 18  1  6
 17 19  1  0
 18 42  1  0
 18 43  1  0
 18 44  1  0
 19 20  1  0
 19 45  1  0
 19 46  1  0
 20 21  2  0
 20 47  1  0
 21 22  1  0
 21 23  1  0
 22 48  1  0
 22 49  1  0
 22 50  1  0
 24 23  1  6
 23 51  1  0
 23 52  1  0
M  END
>  <i_m_ct_stereo_status>  (213) 
1

>  <s_m_source_file>  (213) 
/var/tmp/pbs.5076255.sched01/tmp378oxcv0/78pm6kuo1p.sdf

>  <i_m_source_file_index>  (213) 
22

>  <i_lp_mmshare_version>  (213) 
48012

>  <i_f3d_flags>  (213) 
0

>  <s_epik_input>  (213) 
W0NIM11PW0NAQEhdMU9bQ0BASF0oW0NAQEhdKE8yKVtDQF0zKFtDQEBIXTJbQ0BAXTE0NSlbQ0gzXSlbQ0hdKFtDSDJdQyg9TylbQ0BASF0zW0NIM10pW0NAQF00KFtDSDNdKVtDSDJdW0NIXT1DKFtDSDNdKVtDSDJdNQ==

>  <s_epik_cmdline>  (213) 
J2VwaWtfcHl0aG9uJywgJy1waHQnLCAnMi4wJywgJy1waCcsICc3LjAnLCAnLXRuJywgJzgnLCAnLW1hJywgJzIwMCcsICctaW1hZScsICc8aW5maWxlLm1hZT4nLCAnLW9tYWUnLCAnPG91dGZpbGUubWFlPic=

>  <r_lp_tautomer_probability>  (213) 
1

>  <r_epik_Ionization_Penalty>  (213) 
3.60983e-12

>  <r_epik_Ionization_Penalty_Charging>  (213) 
0

>  <r_epik_Ionization_Penalty_Neutral>  (213) 
3.60983e-12

>  <r_epik_State_Penalty>  (213) 
-0

>  <r_epik_Charging_Adjusted_Penalty>  (213) 
0

>  <i_epik_Tot_Q>  (213) 
0

>  <i_epik_Tot_abs_Q>  (213) 
0

>  <s_epik_Chemistry_Notes>  (213) 
This compound contains an acetal/aminal-like group ( X-CH(R)-Y where X, Y are N, S, or O) that may be acid/base labile, releasing an aldehyde.

>  <s_lp_Force_Field>  (213) 
OPLS3e

>  <r_lp_Energy>  (213) 
100.544

>  <b_lp_Chiralities_Consistent>  (213) 
1

>  <s_lp_Variant>  (213) 
70:0-1

>  <s_i_glide_gridfile>  (213) 
pfpi4k_grid

>  <i_i_glide_lignum>  (213) 
22

>  <i_i_glide_rotatable_bonds>  (213) 
1

>  <r_i_docking_score>  (213) 
-2.74846

>  <r_i_glide_ligand_efficiency>  (213) 
-0.114519

>  <r_i_glide_ligand_efficiency_sa>  (213) 
-0.330331

>  <r_i_glide_ligand_efficiency_ln>  (213) 
-0.657834

>  <r_i_glide_gscore>  (213) 
-2.74846

>  <r_i_glide_lipo>  (213) 
-0.436076

>  <r_i_glide_hbond>  (213) 
0

>  <r_i_glide_metal>  (213) 
-0

>  <r_i_glide_rewards>  (213) 
-1.30693

>  <r_i_glide_evdw>  (213) 
-19.1158

>  <r_i_glide_ecoul>  (213) 
-0.329656

>  <r_i_glide_erotb>  (213) 
0

>  <r_i_glide_esite>  (213) 
-0.000220624

>  <r_i_glide_emodel>  (213) 
-21.7925

>  <r_i_glide_energy>  (213) 
-19.4454

>  <r_i_glide_einternal>  (213) 
0.00219647

>  <r_i_glide_intrahb_reward>  (213) 
-0

>  <i_i_glide_confnum>  (213) 
1

>  <i_i_glide_posenum>  (213) 
29

>  <r_i_glide_eff_state_penalty>  (213) 
0

>  <ligand_id>  (213) 
70

>  <original_smiles>  (213) 
COC1OC2C3OC4C3(C)C(C)C(=O)CC2C2(C)CC=C(C)CC142

>  <smiles>  (213) 
[H]C1=C(C([H])([H])[H])C([H])([H])C23C([H])(OC([H])([H])[H])OC4([H])C5([H])OC2([H])C5(C([H])([H])[H])C([H])(C([H])([H])[H])C(=O)C([H])([H])C4([H])C3(C([H])([H])[H])C1([H])[H]

$$$$
70:0:1
     RDKit          3D

 52 56  0  0  1  0  0  0  0  0999 V2000
    8.5421   -1.4611    0.4914 C   0  0  0  0  0  0  0  0  0  0  0  0
    7.3523   -1.3871   -0.2541 O   0  0  0  0  0  0  0  0  0  0  0  0
    6.1751   -1.4612    0.4445 C   0  0  2  0  0  0  0  0  0  0  0  0
    6.2997   -2.4160    1.4680 O   0  0  0  0  0  0  0  0  0  0  0  0
    5.3564   -3.4757    1.4585 C   0  0  1  0  0  0  0  0  0  0  0  0
    4.0012   -2.8288    1.8821 C   0  0  1  0  0  0  0  0  0  0  0  0
    4.0002   -1.4108    1.5573 O   0  0  0  0  0  0  0  0  0  0  0  0
    3.5822   -1.7946    0.2219 C   0  0  2  0  0  0  0  0  0  0  0  0
    2.7829   -2.9027    0.9999 C   0  0  2  0  0  0  0  0  0  0  0  0
    1.5669   -2.2485    1.6799 C   0  0  0  0  0  0  0  0  0  0  0  0
    2.3352   -4.3347    0.5030 C   0  0  1  0  0  0  0  0  0  0  0  0
    1.4100   -4.4619   -0.7434 C   0  0  0  0  0  0  0  0  0  0  0  0
    3.3099   -5.5332    0.5824 C   0  0  0  0  0  0  0  0  0  0  0  0
    2.9450   -6.5683    1.1450 O   0  0  0  0  0  0  0  0  0  0  0  0
    4.6750   -5.4962   -0.0917 C   0  0  0  0  0  0  0  0  0  0  0  0
    5.4409   -4.1722    0.0452 C   0  0  1  0  0  0  0  0  0  0  0  0
    5.3195   -3.1898   -1.1816 C   0  0  1  0  0  0  0  0  0  0  0  0
    6.6292   -3.2425   -2.0194 C   0  0  0  0  0  0  0  0  0  0  0  0
    4.2532   -3.5275   -2.2669 C   0  0  0  0  0  0  0  0  0  0  0  0
    3.8811   -2.4137   -3.2007 C   0  0  0  0  0  0  0  0  0  0  0  0
    4.1699   -1.1466   -2.9468 C   0  0  0  0  0  0  0  0  0  0  0  0
    3.7924   -0.0287   -3.9229 C   0  0  0  0  0  0  0  0  0  0  0  0
    4.9070   -0.7265   -1.6869 C   0  0  0  0  0  0  0  0  0  0  0  0
    4.9767   -1.8106   -0.5646 C   0  0  2  0  0  0  0  0  0  0  0  0
    9.3556   -1.2332   -0.1642 H   0  0  0  0  0  0  0  0  0  0  0  0
    8.6971   -2.4795    0.8420 H   0  0  0  0  0  0  0  0  0  0  0  0
    8.5807   -0.7415    1.3082 H   0  0  0  0  0  0  0  0  0  0  0  0
    6.0311   -0.4943    0.9244 H   0  0  0  0  0  0  0  0  0  0  0  0
    5.6506   -4.2056    2.2206 H   0  0  0  0  0  0  0  0  0  0  0  0
    3.7520   -3.0088    2.9298 H   0  0  0  0  0  0  0  0  0  0  0  0
    2.8926   -1.0477   -0.1850 H   0  0  0  0  0  0  0  0  0  0  0  0
    0.9010   -1.8983    0.9108 H   0  0  0  0  0  0  0  0  0  0  0  0
    1.7937   -1.3172    2.1941 H   0  0  0  0  0  0  0  0  0  0  0  0
    1.1028   -2.8959    2.4202 H   0  0  0  0  0  0  0  0  0  0  0  0
    1.6650   -4.6671    1.3067 H   0  0  0  0  0  0  0  0  0  0  0  0
    1.8169   -5.0614   -1.5068 H   0  0  0  0  0  0  0  0  0  0  0  0
    1.0443   -3.4838   -1.1349 H   0  0  0  0  0  0  0  0  0  0  0  0
    0.5444   -5.0463   -0.4911 H   0  0  0  0  0  0  0  0  0  0  0  0
    5.2650   -6.2592    0.4136 H   0  0  0  0  0  0  0  0  0  0  0  0
    4.6007   -5.8200   -1.1329 H   0  0  0  0  0  0  0  0  0  0  0  0
    6.4741   -4.5143    0.0372 H   0  0  0  0  0  0  0  0  0  0  0  0
    6.7283   -2.4143   -2.7138 H   0  0  0  0  0  0  0  0  0  0  0  0
    6.6335   -4.1272   -2.6377 H   0  0  0  0  0  0  0  0  0  0  0  0
    7.5363   -3.3049   -1.4219 H   0  0  0  0  0  0  0  0  0  0  0  0
    4.5471   -4.3967   -2.8623 H   0  0  0  0  0  0  0  0  0  0  0  0
    3.3345   -3.7638   -1.8043 H   0  0  0  0  0  0  0  0  0  0  0  0
    3.3259   -2.6818   -4.0858 H   0  0  0  0  0  0  0  0  0  0  0  0
    4.6027    0.6008   -4.2224 H   0  0  0  0  0  0  0  0  0  0  0  0
    3.0020    0.5752   -3.4550 H   0  0  0  0  0  0  0  0  0  0  0  0
    3.2941   -0.4431   -4.8324 H   0  0  0  0  0  0  0  0  0  0  0  0
    5.8791   -0.4093   -2.0129 H   0  0  0  0  0  0  0  0  0  0  0  0
    4.4019    0.1245   -1.2385 H   0  0  0  0  0  0  0  0  0  0  0  0
  1  2  1  0
  1 25  1  0
  1 26  1  0
  1 27  1  0
  2  3  1  0
  3 24  1  0
  3  4  1  0
  3 28  1  1
  4  5  1  0
  5 16  1  0
  5  6  1  0
  5 29  1  1
  6  9  1  0
  6  7  1  0
  6 30  1  1
  7  8  1  0
  8 24  1  0
  8  9  1  0
  8 31  1  6
  9 10  1  1
  9 11  1  0
 10 32  1  0
 10 33  1  0
 10 34  1  0
 11 12  1  0
 11 13  1  0
 11 35  1  1
 12 36  1  0
 12 37  1  0
 12 38  1  0
 13 14  2  0
 13 15  1  0
 15 16  1  0
 15 39  1  0
 15 40  1  0
 16 17  1  0
 16 41  1  6
 17 24  1  0
 17 18  1  6
 17 19  1  0
 18 42  1  0
 18 43  1  0
 18 44  1  0
 19 20  1  0
 19 45  1  0
 19 46  1  0
 20 21  2  0
 20 47  1  0
 21 22  1  0
 21 23  1  0
 22 48  1  0
 22 49  1  0
 22 50  1  0
 24 23  1  6
 23 51  1  0
 23 52  1  0
M  END
>  <i_m_ct_stereo_status>  (214) 
1

>  <s_m_source_file>  (214) 
/var/tmp/pbs.5076255.sched01/tmp378oxcv0/78pm6kuo1p.sdf

>  <i_m_source_file_index>  (214) 
22

>  <i_lp_mmshare_version>  (214) 
48012

>  <i_f3d_flags>  (214) 
0

>  <s_epik_input>  (214) 
W0NIM11PW0NAQEhdMU9bQ0BASF0oW0NAQEhdKE8yKVtDQF0zKFtDQEBIXTJbQ0BAXTE0NSlbQ0gzXSlbQ0hdKFtDSDJdQyg9TylbQ0BASF0zW0NIM10pW0NAQF00KFtDSDNdKVtDSDJdW0NIXT1DKFtDSDNdKVtDSDJdNQ==

>  <s_epik_cmdline>  (214) 
J2VwaWtfcHl0aG9uJywgJy1waHQnLCAnMi4wJywgJy1waCcsICc3LjAnLCAnLXRuJywgJzgnLCAnLW1hJywgJzIwMCcsICctaW1hZScsICc8aW5maWxlLm1hZT4nLCAnLW9tYWUnLCAnPG91dGZpbGUubWFlPic=

>  <r_lp_tautomer_probability>  (214) 
1

>  <r_epik_Ionization_Penalty>  (214) 
3.60983e-12

>  <r_epik_Ionization_Penalty_Charging>  (214) 
0

>  <r_epik_Ionization_Penalty_Neutral>  (214) 
3.60983e-12

>  <r_epik_State_Penalty>  (214) 
-0

>  <r_epik_Charging_Adjusted_Penalty>  (214) 
0

>  <i_epik_Tot_Q>  (214) 
0

>  <i_epik_Tot_abs_Q>  (214) 
0

>  <s_epik_Chemistry_Notes>  (214) 
This compound contains an acetal/aminal-like group ( X-CH(R)-Y where X, Y are N, S, or O) that may be acid/base labile, releasing an aldehyde.

>  <s_lp_Force_Field>  (214) 
OPLS3e

>  <r_lp_Energy>  (214) 
100.544

>  <b_lp_Chiralities_Consistent>  (214) 
1

>  <s_lp_Variant>  (214) 
70:0-1

>  <s_i_glide_gridfile>  (214) 
pfpi4k_grid

>  <i_i_glide_lignum>  (214) 
22

>  <i_i_glide_rotatable_bonds>  (214) 
1

>  <r_i_docking_score>  (214) 
-2.5993

>  <r_i_glide_ligand_efficiency>  (214) 
-0.108304

>  <r_i_glide_ligand_efficiency_sa>  (214) 
-0.312404

>  <r_i_glide_ligand_efficiency_ln>  (214) 
-0.622133

>  <r_i_glide_gscore>  (214) 
-2.5993

>  <r_i_glide_lipo>  (214) 
-0.576047

>  <r_i_glide_hbond>  (214) 
-0.109507

>  <r_i_glide_metal>  (214) 
-0

>  <r_i_glide_rewards>  (214) 
-1.26929

>  <r_i_glide_evdw>  (214) 
0.108284

>  <r_i_glide_ecoul>  (214) 
-4.24715

>  <r_i_glide_erotb>  (214) 
0

>  <r_i_glide_esite>  (214) 
-0.0128043

>  <r_i_glide_emodel>  (214) 
-4.12756

>  <r_i_glide_energy>  (214) 
-4.13887

>  <r_i_glide_einternal>  (214) 
2.33124

>  <r_i_glide_intrahb_reward>  (214) 
-0

>  <i_i_glide_confnum>  (214) 
1

>  <i_i_glide_posenum>  (214) 
15

>  <r_i_glide_eff_state_penalty>  (214) 
0

>  <ligand_id>  (214) 
70

>  <original_smiles>  (214) 
COC1OC2C3OC4C3(C)C(C)C(=O)CC2C2(C)CC=C(C)CC142

>  <smiles>  (214) 
[H]C1=C(C([H])([H])[H])C([H])([H])C23C([H])(OC([H])([H])[H])OC4([H])C5([H])OC2([H])C5(C([H])([H])[H])C([H])(C([H])([H])[H])C(=O)C([H])([H])C4([H])C3(C([H])([H])[H])C1([H])[H]

$$$$
72:0:0
     RDKit          3D

 52 56  0  0  1  0  0  0  0  0999 V2000
    0.8064  -10.0327    3.4246 C   0  0  0  0  0  0  0  0  0  0  0  0
    0.6807   -8.5596    3.1877 C   0  0  0  0  0  0  0  0  0  0  0  0
    1.5448   -7.5056    3.3452 C   0  0  0  0  0  0  0  0  0  0  0  0
    2.9689   -7.5552    3.8040 C   0  0  0  0  0  0  0  0  0  0  0  0
    3.2550   -7.2891    4.9699 O   0  0  0  0  0  0  0  0  0  0  0  0
    3.8645   -8.0025    2.8960 N   0  0  0  0  0  0  0  0  0  0  0  0
    4.9788   -8.9045    3.1930 C   0  0  1  0  0  0  0  0  0  0  0  0
    4.7140  -10.0436    2.1978 C   0  0  0  0  0  0  0  0  0  0  0  0
    4.0306   -9.3606    1.0012 C   0  0  0  0  0  0  0  0  0  0  0  0
    3.7435   -7.9256    1.4442 C   0  0  2  0  0  0  0  0  0  0  0  0
    4.6852   -6.8066    0.8664 C   0  0  1  0  0  0  0  0  0  0  0  0
    4.0110   -5.4213    0.9850 C   0  0  0  0  0  0  0  0  0  0  0  0
    4.7398   -4.4542    0.2155 O   0  0  0  0  0  0  0  0  0  0  0  0
    4.1271   -3.7253   -0.7537 C   0  0  0  0  0  0  0  0  0  0  0  0
    4.9564   -2.9896   -1.5044 N   0  0  0  0  0  0  0  0  0  0  0  0
    4.4081   -2.2818   -2.5172 C   0  0  0  0  0  0  0  0  0  0  0  0
    3.0312   -2.3211   -2.7878 C   0  0  0  0  0  0  0  0  0  0  0  0
    2.2558   -3.1177   -1.9248 C   0  0  0  0  0  0  0  0  0  0  0  0
    2.7989   -3.8007   -0.8935 N   0  0  0  0  0  0  0  0  0  0  0  0
    6.1320   -6.7726    1.4349 C   0  0  1  0  0  0  0  0  0  0  0  0
    6.3731   -6.6678    2.9544 C   0  0  0  0  0  0  0  0  0  0  0  0
    6.3399   -8.2036    2.9822 C   0  0  2  0  0  0  0  0  0  0  0  0
    6.9229   -8.0757    1.5627 C   0  0  0  0  0  0  0  0  0  0  0  0
    0.8517   -6.3500    2.9095 C   0  0  0  0  0  0  0  0  0  0  0  0
   -0.3754   -6.6599    2.5059 N   0  0  0  0  0  0  0  0  0  0  0  0
   -0.4871   -7.9930    2.6867 N   0  0  0  0  0  0  0  0  0  0  0  0
   -1.7299   -8.6472    2.3334 C   0  0  0  0  0  0  0  0  0  0  0  0
    1.7520  -10.2875    3.9052 H   0  0  0  0  0  0  0  0  0  0  0  0
    0.7513  -10.5709    2.4805 H   0  0  0  0  0  0  0  0  0  0  0  0
    0.0013  -10.3994    4.0582 H   0  0  0  0  0  0  0  0  0  0  0  0
    4.9133   -9.2825    4.2126 H   0  0  0  0  0  0  0  0  0  0  0  0
    5.6076  -10.5993    1.9173 H   0  0  0  0  0  0  0  0  0  0  0  0
    4.0262  -10.7649    2.6372 H   0  0  0  0  0  0  0  0  0  0  0  0
    4.6127   -9.3967    0.0844 H   0  0  0  0  0  0  0  0  0  0  0  0
    3.0848   -9.8593    0.7915 H   0  0  0  0  0  0  0  0  0  0  0  0
    2.7301   -7.7052    1.1260 H   0  0  0  0  0  0  0  0  0  0  0  0
    4.7539   -6.9965   -0.2043 H   0  0  0  0  0  0  0  0  0  0  0  0
    2.9660   -5.5459    0.7169 H   0  0  0  0  0  0  0  0  0  0  0  0
    4.0035   -5.0748    2.0164 H   0  0  0  0  0  0  0  0  0  0  0  0
    5.0764   -1.6732   -3.1131 H   0  0  0  0  0  0  0  0  0  0  0  0
    2.5848   -1.7549   -3.5906 H   0  0  0  0  0  0  0  0  0  0  0  0
    1.1872   -3.2057   -2.0535 H   0  0  0  0  0  0  0  0  0  0  0  0
    6.7511   -6.0318    0.9298 H   0  0  0  0  0  0  0  0  0  0  0  0
    7.3581   -6.2647    3.2062 H   0  0  0  0  0  0  0  0  0  0  0  0
    5.5806   -6.1742    3.5228 H   0  0  0  0  0  0  0  0  0  0  0  0
    7.1133   -8.5975    3.6351 H   0  0  0  0  0  0  0  0  0  0  0  0
    6.6440   -8.8536    0.8545 H   0  0  0  0  0  0  0  0  0  0  0  0
    8.0053   -7.9156    1.5563 H   0  0  0  0  0  0  0  0  0  0  0  0
    1.1907   -5.3288    2.8503 H   0  0  0  0  0  0  0  0  0  0  0  0
   -1.9085   -9.5352    2.9443 H   0  0  0  0  0  0  0  0  0  0  0  0
   -1.6971   -8.9479    1.2873 H   0  0  0  0  0  0  0  0  0  0  0  0
   -2.5675   -7.9671    2.4796 H   0  0  0  0  0  0  0  0  0  0  0  0
  1  2  1  0
  1 28  1  0
  1 29  1  0
  1 30  1  0
  2 26  1  0
  2  3  2  0
  3  4  1  0
  3 24  1  0
  4  5  2  0
  4  6  1  0
  6 10  1  0
  6  7  1  0
  7 22  1  0
  7  8  1  0
  7 31  1  1
  8  9  1  0
  8 32  1  0
  8 33  1  0
  9 10  1  0
  9 34  1  0
  9 35  1  0
 10 11  1  0
 10 36  1  1
 11 12  1  0
 11 20  1  0
 11 37  1  6
 12 13  1  0
 12 38  1  0
 12 39  1  0
 13 14  1  0
 14 19  1  0
 14 15  2  0
 15 16  1  0
 16 17  2  0
 16 40  1  0
 17 18  1  0
 17 41  1  0
 18 19  2  0
 18 42  1  0
 20 23  1  0
 20 21  1  0
 20 43  1  6
 21 22  1  0
 21 44  1  0
 21 45  1  0
 22 23  1  0
 22 46  1  1
 23 47  1  0
 23 48  1  0
 24 25  2  0
 24 49  1  0
 25 26  1  0
 26 27  1  0
 27 50  1  0
 27 51  1  0
 27 52  1  0
M  END
>  <i_m_ct_stereo_status>  (215) 
1

>  <s_m_source_file>  (215) 
/var/tmp/pbs.5076255.sched01/tmp378oxcv0/78pm6kuo1p.sdf

>  <i_m_source_file_index>  (215) 
24

>  <i_lp_mmshare_version>  (215) 
48012

>  <i_f3d_flags>  (215) 
0

>  <s_epik_input>  (215) 
W0NIM11uMW5bY0hdYyhjMVtDSDNdKUMoPU8pTjJbQ0BIXShbQ0gyXVtDSDJdMylbQ0BIXShbQ0BIXShbQ0gyXTQpW0NIMl1bQ0BIXTRbQ0BASF0yMylbQ0gyXU9jNW5bY0hdW2NIXVtjSF1uNQ==

>  <s_epik_cmdline>  (215) 
J2VwaWtfcHl0aG9uJywgJy1waHQnLCAnMi4wJywgJy1waCcsICc3LjAnLCAnLXRuJywgJzgnLCAnLW1hJywgJzIwMCcsICctaW1hZScsICc8aW5maWxlLm1hZT4nLCAnLW9tYWUnLCAnPG91dGZpbGUubWFlPic=

>  <r_lp_tautomer_probability>  (215) 
1

>  <r_epik_Ionization_Penalty>  (215) 
4.51553e-05

>  <r_epik_Ionization_Penalty_Charging>  (215) 
0

>  <r_epik_Ionization_Penalty_Neutral>  (215) 
4.51553e-05

>  <r_epik_State_Penalty>  (215) 
-0

>  <r_epik_Charging_Adjusted_Penalty>  (215) 
0

>  <i_epik_Tot_Q>  (215) 
0

>  <i_epik_Tot_abs_Q>  (215) 
0

>  <s_lp_Force_Field>  (215) 
OPLS3e

>  <r_lp_Energy>  (215) 
52.3

>  <b_lp_Chiralities_Consistent>  (215) 
1

>  <s_lp_Variant>  (215) 
72:0-1

>  <s_i_glide_gridfile>  (215) 
pfpi4k_grid

>  <i_i_glide_lignum>  (215) 
24

>  <i_i_glide_rotatable_bonds>  (215) 
5

>  <r_i_docking_score>  (215) 
-3.3796

>  <r_i_glide_ligand_efficiency>  (215) 
-0.12517

>  <r_i_glide_ligand_efficiency_sa>  (215) 
-0.375511

>  <r_i_glide_ligand_efficiency_ln>  (215) 
-0.786714

>  <r_i_glide_gscore>  (215) 
-3.3796

>  <r_i_glide_lipo>  (215) 
-0.788372

>  <r_i_glide_hbond>  (215) 
-0.16

>  <r_i_glide_metal>  (215) 
-0

>  <r_i_glide_rewards>  (215) 
-0.903785

>  <r_i_glide_evdw>  (215) 
-29.4252

>  <r_i_glide_ecoul>  (215) 
-4.68678

>  <r_i_glide_erotb>  (215) 
0.713204

>  <r_i_glide_esite>  (215) 
-0.0663624

>  <r_i_glide_emodel>  (215) 
-36.3956

>  <r_i_glide_energy>  (215) 
-34.112

>  <r_i_glide_einternal>  (215) 
10.9749

>  <r_i_glide_intrahb_reward>  (215) 
-0

>  <i_i_glide_confnum>  (215) 
1

>  <i_i_glide_posenum>  (215) 
33

>  <r_i_glide_eff_state_penalty>  (215) 
0

>  <ligand_id>  (215) 
72

>  <original_smiles>  (215) 
Cc1c(C(=O)N2C3CCC2C(COc2ncccn2)C2CC3C2)cnn1C

>  <smiles>  (215) 
[H]c1nc(OC([H])([H])C2([H])C3([H])N(C(=O)c4c([H])nn(C([H])([H])[H])c4C([H])([H])[H])C([H])(C([H])([H])C3([H])[H])C3([H])C([H])([H])C2([H])C3([H])[H])nc([H])c1[H]

$$$$
72:0:1
     RDKit          3D

 52 56  0  0  1  0  0  0  0  0999 V2000
    3.9418   -2.4508    6.0514 C   0  0  0  0  0  0  0  0  0  0  0  0
    4.4924   -1.7040    4.8678 C   0  0  0  0  0  0  0  0  0  0  0  0
    5.0048   -2.0883    3.6480 C   0  0  0  0  0  0  0  0  0  0  0  0
    5.1866   -3.4972    3.1639 C   0  0  0  0  0  0  0  0  0  0  0  0
    5.3364   -4.3917    3.9911 O   0  0  0  0  0  0  0  0  0  0  0  0
    5.1112   -3.7980    1.8379 N   0  0  0  0  0  0  0  0  0  0  0  0
    5.3351   -2.9249    0.6713 C   0  0  1  0  0  0  0  0  0  0  0  0
    6.3895   -3.6901   -0.1158 C   0  0  0  0  0  0  0  0  0  0  0  0
    6.1015   -5.1516    0.1871 C   0  0  0  0  0  0  0  0  0  0  0  0
    5.0330   -5.1602    1.3054 C   0  0  2  0  0  0  0  0  0  0  0  0
    3.5712   -5.5154    0.8389 C   0  0  1  0  0  0  0  0  0  0  0  0
    2.7231   -5.9985    2.0424 C   0  0  0  0  0  0  0  0  0  0  0  0
    1.3839   -6.2984    1.6404 O   0  0  0  0  0  0  0  0  0  0  0  0
    0.5890   -7.0303    2.4599 C   0  0  0  0  0  0  0  0  0  0  0  0
   -0.6931   -7.0502    2.0845 N   0  0  0  0  0  0  0  0  0  0  0  0
   -1.5297   -7.7986    2.8427 C   0  0  0  0  0  0  0  0  0  0  0  0
   -1.0923   -8.4657    3.9912 C   0  0  0  0  0  0  0  0  0  0  0  0
    0.2708   -8.3600    4.2978 C   0  0  0  0  0  0  0  0  0  0  0  0
    1.1135   -7.6314    3.5331 N   0  0  0  0  0  0  0  0  0  0  0  0
    2.8214   -4.4022    0.0409 C   0  0  1  0  0  0  0  0  0  0  0  0
    2.6922   -3.0023    0.6476 C   0  0  0  0  0  0  0  0  0  0  0  0
    4.0013   -2.6804   -0.0757 C   0  0  2  0  0  0  0  0  0  0  0  0
    3.5290   -3.6906   -1.1102 C   0  0  0  0  0  0  0  0  0  0  0  0
    5.3986   -0.8480    3.0202 C   0  0  0  0  0  0  0  0  0  0  0  0
    5.0972    0.1870    3.7720 N   0  0  0  0  0  0  0  0  0  0  0  0
    4.5465   -0.3196    4.8722 N   0  0  0  0  0  0  0  0  0  0  0  0
    4.0876    0.6355    5.8400 C   0  0  0  0  0  0  0  0  0  0  0  0
    4.0754   -3.5323    5.9711 H   0  0  0  0  0  0  0  0  0  0  0  0
    2.8767   -2.2474    6.1262 H   0  0  0  0  0  0  0  0  0  0  0  0
    4.4138   -2.1230    6.9797 H   0  0  0  0  0  0  0  0  0  0  0  0
    5.8452   -1.9975    0.8033 H   0  0  0  0  0  0  0  0  0  0  0  0
    6.4112   -3.4174   -1.1687 H   0  0  0  0  0  0  0  0  0  0  0  0
    7.3564   -3.4067    0.3082 H   0  0  0  0  0  0  0  0  0  0  0  0
    5.7669   -5.6912   -0.6994 H   0  0  0  0  0  0  0  0  0  0  0  0
    7.0256   -5.6178    0.5511 H   0  0  0  0  0  0  0  0  0  0  0  0
    5.3502   -5.9056    2.0276 H   0  0  0  0  0  0  0  0  0  0  0  0
    3.6519   -6.3789    0.1733 H   0  0  0  0  0  0  0  0  0  0  0  0
    3.2322   -6.8636    2.4711 H   0  0  0  0  0  0  0  0  0  0  0  0
    2.6747   -5.2332    2.8179 H   0  0  0  0  0  0  0  0  0  0  0  0
   -2.5682   -7.8326    2.5335 H   0  0  0  0  0  0  0  0  0  0  0  0
   -1.7618   -9.0550    4.5942 H   0  0  0  0  0  0  0  0  0  0  0  0
    0.6915   -8.8586    5.1613 H   0  0  0  0  0  0  0  0  0  0  0  0
    1.8634   -4.7406   -0.3207 H   0  0  0  0  0  0  0  0  0  0  0  0
    1.8377   -2.4477    0.2497 H   0  0  0  0  0  0  0  0  0  0  0  0
    2.7088   -2.9489    1.7348 H   0  0  0  0  0  0  0  0  0  0  0  0
    3.9682   -1.6914   -0.4868 H   0  0  0  0  0  0  0  0  0  0  0  0
    4.3111   -4.2669   -1.5947 H   0  0  0  0  0  0  0  0  0  0  0  0
    2.8346   -3.2555   -1.8542 H   0  0  0  0  0  0  0  0  0  0  0  0
    5.9042   -0.5502    2.1263 H   0  0  0  0  0  0  0  0  0  0  0  0
    4.1841    0.2350    6.8528 H   0  0  0  0  0  0  0  0  0  0  0  0
    3.0485    0.8800    5.6038 H   0  0  0  0  0  0  0  0  0  0  0  0
    4.6932    1.5456    5.7467 H   0  0  0  0  0  0  0  0  0  0  0  0
  1  2  1  0
  1 28  1  0
  1 29  1  0
  1 30  1  0
  2 26  1  0
  2  3  2  0
  3  4  1  0
  3 24  1  0
  4  5  2  0
  4  6  1  0
  6 10  1  0
  6  7  1  0
  7 22  1  0
  7  8  1  0
  7 31  1  1
  8  9  1  0
  8 32  1  0
  8 33  1  0
  9 10  1  0
  9 34  1  0
  9 35  1  0
 10 11  1  0
 10 36  1  1
 11 12  1  0
 11 20  1  0
 11 37  1  6
 12 13  1  0
 12 38  1  0
 12 39  1  0
 13 14  1  0
 14 19  1  0
 14 15  2  0
 15 16  1  0
 16 17  2  0
 16 40  1  0
 17 18  1  0
 17 41  1  0
 18 19  2  0
 18 42  1  0
 20 23  1  0
 20 21  1  0
 20 43  1  6
 21 22  1  0
 21 44  1  0
 21 45  1  0
 22 23  1  0
 22 46  1  6
 23 47  1  0
 23 48  1  0
 24 25  2  0
 24 49  1  0
 25 26  1  0
 26 27  1  0
 27 50  1  0
 27 51  1  0
 27 52  1  0
M  END
>  <i_m_ct_stereo_status>  (216) 
1

>  <s_m_source_file>  (216) 
/var/tmp/pbs.5076255.sched01/tmp378oxcv0/78pm6kuo1p.sdf

>  <i_m_source_file_index>  (216) 
24

>  <i_lp_mmshare_version>  (216) 
48012

>  <i_f3d_flags>  (216) 
0

>  <s_epik_input>  (216) 
W0NIM11uMW5bY0hdYyhjMVtDSDNdKUMoPU8pTjJbQ0BIXShbQ0gyXVtDSDJdMylbQ0BIXShbQ0BIXShbQ0gyXTQpW0NIMl1bQ0BIXTRbQ0BASF0yMylbQ0gyXU9jNW5bY0hdW2NIXVtjSF1uNQ==

>  <s_epik_cmdline>  (216) 
J2VwaWtfcHl0aG9uJywgJy1waHQnLCAnMi4wJywgJy1waCcsICc3LjAnLCAnLXRuJywgJzgnLCAnLW1hJywgJzIwMCcsICctaW1hZScsICc8aW5maWxlLm1hZT4nLCAnLW9tYWUnLCAnPG91dGZpbGUubWFlPic=

>  <r_lp_tautomer_probability>  (216) 
1

>  <r_epik_Ionization_Penalty>  (216) 
4.51553e-05

>  <r_epik_Ionization_Penalty_Charging>  (216) 
0

>  <r_epik_Ionization_Penalty_Neutral>  (216) 
4.51553e-05

>  <r_epik_State_Penalty>  (216) 
-0

>  <r_epik_Charging_Adjusted_Penalty>  (216) 
0

>  <i_epik_Tot_Q>  (216) 
0

>  <i_epik_Tot_abs_Q>  (216) 
0

>  <s_lp_Force_Field>  (216) 
OPLS3e

>  <r_lp_Energy>  (216) 
52.3

>  <b_lp_Chiralities_Consistent>  (216) 
1

>  <s_lp_Variant>  (216) 
72:0-1

>  <s_i_glide_gridfile>  (216) 
pfpi4k_grid

>  <i_i_glide_lignum>  (216) 
24

>  <i_i_glide_rotatable_bonds>  (216) 
5

>  <r_i_docking_score>  (216) 
-2.64018

>  <r_i_glide_ligand_efficiency>  (216) 
-0.0977844

>  <r_i_glide_ligand_efficiency_sa>  (216) 
-0.293353

>  <r_i_glide_ligand_efficiency_ln>  (216) 
-0.61459

>  <r_i_glide_gscore>  (216) 
-2.64018

>  <r_i_glide_lipo>  (216) 
-0.464616

>  <r_i_glide_hbond>  (216) 
-0.175642

>  <r_i_glide_metal>  (216) 
-0

>  <r_i_glide_rewards>  (216) 
-1.04638

>  <r_i_glide_evdw>  (216) 
-22.2776

>  <r_i_glide_ecoul>  (216) 
-3.30556

>  <r_i_glide_erotb>  (216) 
0.713204

>  <r_i_glide_esite>  (216) 
-0.0570337

>  <r_i_glide_emodel>  (216) 
-29.5519

>  <r_i_glide_energy>  (216) 
-25.5831

>  <r_i_glide_einternal>  (216) 
3.2085

>  <r_i_glide_intrahb_reward>  (216) 
-0

>  <i_i_glide_confnum>  (216) 
2

>  <i_i_glide_posenum>  (216) 
16

>  <r_i_glide_eff_state_penalty>  (216) 
0

>  <ligand_id>  (216) 
72

>  <original_smiles>  (216) 
Cc1c(C(=O)N2C3CCC2C(COc2ncccn2)C2CC3C2)cnn1C

>  <smiles>  (216) 
[H]c1nc(OC([H])([H])C2([H])C3([H])N(C(=O)c4c([H])nn(C([H])([H])[H])c4C([H])([H])[H])C([H])(C([H])([H])C3([H])[H])C3([H])C([H])([H])C2([H])C3([H])[H])nc([H])c1[H]

$$$$
72:0:2
     RDKit          3D

 52 56  0  0  1  0  0  0  0  0999 V2000
    3.3951   -2.2064    6.3077 C   0  0  0  0  0  0  0  0  0  0  0  0
    4.1798   -1.4656    5.2622 C   0  0  0  0  0  0  0  0  0  0  0  0
    4.8324   -1.8307    4.1301 C   0  0  0  0  0  0  0  0  0  0  0  0
    5.0036   -3.2534    3.5976 C   0  0  0  0  0  0  0  0  0  0  0  0
    5.0498   -4.1670    4.4157 O   0  0  0  0  0  0  0  0  0  0  0  0
    4.9957   -3.4787    2.2679 N   0  0  0  0  0  0  0  0  0  0  0  0
    5.2027   -2.5373    1.1471 C   0  0  1  0  0  0  0  0  0  0  0  0
    6.3548   -3.1895    0.3892 C   0  0  0  0  0  0  0  0  0  0  0  0
    6.1610   -4.6921    0.6087 C   0  0  0  0  0  0  0  0  0  0  0  0
    5.0355   -4.8241    1.6609 C   0  0  2  0  0  0  0  0  0  0  0  0
    3.6226   -5.2495    1.1078 C   0  0  1  0  0  0  0  0  0  0  0  0
    2.7618   -5.8457    2.2453 C   0  0  0  0  0  0  0  0  0  0  0  0
    1.4021   -6.0695    1.8267 O   0  0  0  0  0  0  0  0  0  0  0  0
    0.7410   -7.1826    2.2061 C   0  0  0  0  0  0  0  0  0  0  0  0
   -0.5751   -7.1439    1.9620 N   0  0  0  0  0  0  0  0  0  0  0  0
   -1.2836   -8.2440    2.2875 C   0  0  0  0  0  0  0  0  0  0  0  0
   -0.6840   -9.3668    2.8798 C   0  0  0  0  0  0  0  0  0  0  0  0
    0.7036   -9.2928    3.0896 C   0  0  0  0  0  0  0  0  0  0  0  0
    1.4020   -8.1923    2.7494 N   0  0  0  0  0  0  0  0  0  0  0  0
    2.8442   -4.1583    0.3275 C   0  0  1  0  0  0  0  0  0  0  0  0
    2.5836   -2.7940    0.9838 C   0  0  0  0  0  0  0  0  0  0  0  0
    3.9062   -2.3668    0.3432 C   0  0  2  0  0  0  0  0  0  0  0  0
    3.5532   -3.3559   -0.7661 C   0  0  0  0  0  0  0  0  0  0  0  0
    5.4579   -0.6407    3.6437 C   0  0  0  0  0  0  0  0  0  0  0  0
    5.1125    0.4070    4.3593 N   0  0  0  0  0  0  0  0  0  0  0  0
    4.3390   -0.0868    5.3420 N   0  0  0  0  0  0  0  0  0  0  0  0
    3.8091    0.8635    6.2751 C   0  0  0  0  0  0  0  0  0  0  0  0
    3.4620   -3.2901    6.1905 H   0  0  0  0  0  0  0  0  0  0  0  0
    2.3492   -1.9226    6.2292 H   0  0  0  0  0  0  0  0  0  0  0  0
    3.7368   -1.9593    7.3150 H   0  0  0  0  0  0  0  0  0  0  0  0
    5.5510   -1.5391    1.3650 H   0  0  0  0  0  0  0  0  0  0  0  0
    6.4133   -2.8798   -0.6496 H   0  0  0  0  0  0  0  0  0  0  0  0
    7.2791   -2.8684    0.8743 H   0  0  0  0  0  0  0  0  0  0  0  0
    5.9370   -5.2189   -0.3223 H   0  0  0  0  0  0  0  0  0  0  0  0
    7.0908   -5.1123    1.0077 H   0  0  0  0  0  0  0  0  0  0  0  0
    5.3630   -5.5786    2.3736 H   0  0  0  0  0  0  0  0  0  0  0  0
    3.7891   -6.0728    0.4108 H   0  0  0  0  0  0  0  0  0  0  0  0
    3.3072   -6.7200    2.6022 H   0  0  0  0  0  0  0  0  0  0  0  0
    2.7099   -5.1646    3.0948 H   0  0  0  0  0  0  0  0  0  0  0  0
   -2.3514   -8.2253    2.0836 H   0  0  0  0  0  0  0  0  0  0  0  0
   -1.2532  -10.2400    3.1674 H   0  0  0  0  0  0  0  0  0  0  0  0
    1.2463  -10.1120    3.5431 H   0  0  0  0  0  0  0  0  0  0  0  0
    1.9224   -4.5380   -0.1018 H   0  0  0  0  0  0  0  0  0  0  0  0
    1.7318   -2.2642    0.5615 H   0  0  0  0  0  0  0  0  0  0  0  0
    2.5527   -2.7889    2.0720 H   0  0  0  0  0  0  0  0  0  0  0  0
    3.8230   -1.3585   -0.0349 H   0  0  0  0  0  0  0  0  0  0  0  0
    4.3967   -3.8625   -1.2272 H   0  0  0  0  0  0  0  0  0  0  0  0
    2.8726   -2.9258   -1.5156 H   0  0  0  0  0  0  0  0  0  0  0  0
    6.1708   -0.4273    2.8591 H   0  0  0  0  0  0  0  0  0  0  0  0
    3.7123    0.4127    7.2659 H   0  0  0  0  0  0  0  0  0  0  0  0
    2.8386    1.1985    5.9001 H   0  0  0  0  0  0  0  0  0  0  0  0
    4.4853    1.7227    6.3309 H   0  0  0  0  0  0  0  0  0  0  0  0
  1  2  1  0
  1 28  1  0
  1 29  1  0
  1 30  1  0
  2 26  1  0
  2  3  2  0
  3  4  1  0
  3 24  1  0
  4  5  2  0
  4  6  1  0
  6 10  1  0
  6  7  1  0
  7 22  1  0
  7  8  1  0
  7 31  1  1
  8  9  1  0
  8 32  1  0
  8 33  1  0
  9 10  1  0
  9 34  1  0
  9 35  1  0
 10 11  1  0
 10 36  1  1
 11 12  1  0
 11 20  1  0
 11 37  1  6
 12 13  1  0
 12 38  1  0
 12 39  1  0
 13 14  1  0
 14 19  1  0
 14 15  2  0
 15 16  1  0
 16 17  2  0
 16 40  1  0
 17 18  1  0
 17 41  1  0
 18 19  2  0
 18 42  1  0
 20 23  1  0
 20 21  1  0
 20 43  1  6
 21 22  1  0
 21 44  1  0
 21 45  1  0
 22 23  1  0
 22 46  1  6
 23 47  1  0
 23 48  1  0
 24 25  2  0
 24 49  1  0
 25 26  1  0
 26 27  1  0
 27 50  1  0
 27 51  1  0
 27 52  1  0
M  END
>  <i_m_ct_stereo_status>  (217) 
1

>  <s_m_source_file>  (217) 
/var/tmp/pbs.5076255.sched01/tmp378oxcv0/78pm6kuo1p.sdf

>  <i_m_source_file_index>  (217) 
24

>  <i_lp_mmshare_version>  (217) 
48012

>  <i_f3d_flags>  (217) 
0

>  <s_epik_input>  (217) 
W0NIM11uMW5bY0hdYyhjMVtDSDNdKUMoPU8pTjJbQ0BIXShbQ0gyXVtDSDJdMylbQ0BIXShbQ0BIXShbQ0gyXTQpW0NIMl1bQ0BIXTRbQ0BASF0yMylbQ0gyXU9jNW5bY0hdW2NIXVtjSF1uNQ==

>  <s_epik_cmdline>  (217) 
J2VwaWtfcHl0aG9uJywgJy1waHQnLCAnMi4wJywgJy1waCcsICc3LjAnLCAnLXRuJywgJzgnLCAnLW1hJywgJzIwMCcsICctaW1hZScsICc8aW5maWxlLm1hZT4nLCAnLW9tYWUnLCAnPG91dGZpbGUubWFlPic=

>  <r_lp_tautomer_probability>  (217) 
1

>  <r_epik_Ionization_Penalty>  (217) 
4.51553e-05

>  <r_epik_Ionization_Penalty_Charging>  (217) 
0

>  <r_epik_Ionization_Penalty_Neutral>  (217) 
4.51553e-05

>  <r_epik_State_Penalty>  (217) 
-0

>  <r_epik_Charging_Adjusted_Penalty>  (217) 
0

>  <i_epik_Tot_Q>  (217) 
0

>  <i_epik_Tot_abs_Q>  (217) 
0

>  <s_lp_Force_Field>  (217) 
OPLS3e

>  <r_lp_Energy>  (217) 
52.3

>  <b_lp_Chiralities_Consistent>  (217) 
1

>  <s_lp_Variant>  (217) 
72:0-1

>  <s_i_glide_gridfile>  (217) 
pfpi4k_grid

>  <i_i_glide_lignum>  (217) 
24

>  <i_i_glide_rotatable_bonds>  (217) 
5

>  <r_i_docking_score>  (217) 
-2.60697

>  <r_i_glide_ligand_efficiency>  (217) 
-0.0965544

>  <r_i_glide_ligand_efficiency_sa>  (217) 
-0.289663

>  <r_i_glide_ligand_efficiency_ln>  (217) 
-0.606859

>  <r_i_glide_gscore>  (217) 
-2.60697

>  <r_i_glide_lipo>  (217) 
-0.48786

>  <r_i_glide_hbond>  (217) 
-0.131931

>  <r_i_glide_metal>  (217) 
-0

>  <r_i_glide_rewards>  (217) 
-1.02895

>  <r_i_glide_evdw>  (217) 
-23.1979

>  <r_i_glide_ecoul>  (217) 
-3.06044

>  <r_i_glide_erotb>  (217) 
0.713204

>  <r_i_glide_esite>  (217) 
-0.0524674

>  <r_i_glide_emodel>  (217) 
-29.7607

>  <r_i_glide_energy>  (217) 
-26.2583

>  <r_i_glide_einternal>  (217) 
4.14563

>  <r_i_glide_intrahb_reward>  (217) 
-0

>  <i_i_glide_confnum>  (217) 
2

>  <i_i_glide_posenum>  (217) 
3

>  <r_i_glide_eff_state_penalty>  (217) 
0

>  <ligand_id>  (217) 
72

>  <original_smiles>  (217) 
Cc1c(C(=O)N2C3CCC2C(COc2ncccn2)C2CC3C2)cnn1C

>  <smiles>  (217) 
[H]c1nc(OC([H])([H])C2([H])C3([H])N(C(=O)c4c([H])nn(C([H])([H])[H])c4C([H])([H])[H])C([H])(C([H])([H])C3([H])[H])C3([H])C([H])([H])C2([H])C3([H])[H])nc([H])c1[H]

$$$$
73:0:0
     RDKit          3D

 59 64  0  0  1  0  0  0  0  0999 V2000
    2.2252   -3.4963   -1.1986 C   0  0  0  0  0  0  0  0  0  0  0  0
    3.5926   -2.8455   -0.9287 C   0  0  2  0  0  0  0  0  0  0  0  0
    3.4263   -1.3488   -1.1548 C   0  0  0  0  0  0  0  0  0  0  0  0
    3.7772   -0.9121   -2.3628 C   0  0  0  0  0  0  0  0  0  0  0  0
    4.2852   -2.0403   -3.0879 C   0  0  0  0  0  0  0  0  0  0  0  0
    4.4596   -2.1091   -4.3003 O   0  0  0  0  0  0  0  0  0  0  0  0
    4.5450   -3.1798   -2.1131 C   0  0  1  0  0  0  0  0  0  0  0  0
    6.0298   -3.2133   -1.7207 C   0  0  0  0  0  0  0  0  0  0  0  0
    6.4031   -2.4195   -0.4511 C   0  0  0  0  0  0  0  0  0  0  0  0
    5.5240   -2.6271    0.8486 C   0  0  2  0  0  0  0  0  0  0  0  0
    5.6385   -1.2133    1.5009 C   0  0  0  0  0  0  0  0  0  0  0  0
    5.9816   -3.7374    1.8458 C   0  0  2  0  0  0  0  0  0  0  0  0
    5.8717   -4.8590    0.8821 C   0  0  0  0  0  0  0  0  0  0  0  0
    6.7785   -5.5944    0.4948 O   0  0  0  0  0  0  0  0  0  0  0  0
    4.4141   -4.8843    0.4997 C   0  0  1  0  0  0  0  0  0  0  0  0
    3.8657   -5.9176    1.5832 C   0  0  2  0  0  0  0  0  0  0  0  0
    4.2032   -7.3667    1.1342 C   0  0  0  0  0  0  0  0  0  0  0  0
    2.3391   -5.9149    1.7481 C   0  0  0  0  0  0  0  0  0  0  0  0
    1.5324   -6.0106    0.8246 O   0  0  0  0  0  0  0  0  0  0  0  0
    1.9036   -5.7268    3.1882 C   0  0  0  0  0  0  0  0  0  0  0  0
    3.1948   -5.9001    4.0025 C   0  0  1  0  0  0  0  0  0  0  0  0
    3.1669   -7.2370    4.4807 O   0  0  0  0  0  0  0  0  0  0  0  0
    4.4160   -5.6050    3.0489 C   0  0  1  0  0  0  0  0  0  0  0  0
    5.6126   -6.4865    3.5560 C   0  0  0  0  0  0  0  0  0  0  0  0
    4.9591   -4.0941    3.0542 C   0  0  2  0  0  0  0  0  0  0  0  0
    3.7683   -3.0988    3.0878 C   0  0  0  0  0  0  0  0  0  0  0  0
    3.1441   -2.8737    1.6911 C   0  0  1  0  0  0  0  0  0  0  0  0
    2.6452   -1.5562    1.6862 O   0  0  0  0  0  0  0  0  0  0  0  0
    4.1126   -3.2741    0.5083 C   0  0  2  0  0  0  0  0  0  0  0  0
    2.2676   -4.5843   -1.1355 H   0  0  0  0  0  0  0  0  0  0  0  0
    1.8413   -3.2257   -2.1830 H   0  0  0  0  0  0  0  0  0  0  0  0
    1.4921   -3.1538   -0.4746 H   0  0  0  0  0  0  0  0  0  0  0  0
    2.9922   -0.6751   -0.4457 H   0  0  0  0  0  0  0  0  0  0  0  0
    3.6668    0.0868   -2.7616 H   0  0  0  0  0  0  0  0  0  0  0  0
    4.2810   -4.1255   -2.5916 H   0  0  0  0  0  0  0  0  0  0  0  0
    6.2926   -4.2492   -1.5960 H   0  0  0  0  0  0  0  0  0  0  0  0
    6.6677   -2.8785   -2.5384 H   0  0  0  0  0  0  0  0  0  0  0  0
    7.4478   -2.6242   -0.2144 H   0  0  0  0  0  0  0  0  0  0  0  0
    6.3726   -1.3685   -0.7497 H   0  0  0  0  0  0  0  0  0  0  0  0
    5.5107   -1.1745    2.5735 H   0  0  0  0  0  0  0  0  0  0  0  0
    4.9602   -0.5021    1.0350 H   0  0  0  0  0  0  0  0  0  0  0  0
    6.6469   -0.8130    1.3773 H   0  0  0  0  0  0  0  0  0  0  0  0
    7.0134   -3.6371    2.1340 H   0  0  0  0  0  0  0  0  0  0  0  0
    4.3506   -5.3026   -0.5024 H   0  0  0  0  0  0  0  0  0  0  0  0
    5.2694   -7.5920    1.1211 H   0  0  0  0  0  0  0  0  0  0  0  0
    3.8370   -7.5405    0.1278 H   0  0  0  0  0  0  0  0  0  0  0  0
    3.7355   -8.1140    1.7722 H   0  0  0  0  0  0  0  0  0  0  0  0
    1.4722   -4.7324    3.3061 H   0  0  0  0  0  0  0  0  0  0  0  0
    1.1267   -6.4448    3.4621 H   0  0  0  0  0  0  0  0  0  0  0  0
    3.2092   -5.2704    4.8935 H   0  0  0  0  0  0  0  0  0  0  0  0
    3.1293   -7.8263    3.7383 H   0  0  0  0  0  0  0  0  0  0  0  0
    5.7993   -6.2924    4.6156 H   0  0  0  0  0  0  0  0  0  0  0  0
    6.5565   -6.2975    3.0458 H   0  0  0  0  0  0  0  0  0  0  0  0
    5.4322   -7.5594    3.4753 H   0  0  0  0  0  0  0  0  0  0  0  0
    5.4875   -3.9582    3.9993 H   0  0  0  0  0  0  0  0  0  0  0  0
    2.9995   -3.3631    3.8069 H   0  0  0  0  0  0  0  0  0  0  0  0
    4.1050   -2.1696    3.5339 H   0  0  0  0  0  0  0  0  0  0  0  0
    2.2279   -3.4348    1.6041 H   0  0  0  0  0  0  0  0  0  0  0  0
    2.1554   -1.4232    0.8805 H   0  0  0  0  0  0  0  0  0  0  0  0
  2  1  1  6
  1 30  1  0
  1 31  1  0
  1 32  1  0
  2  7  1  0
 29  2  1  6
  2  3  1  0
  3  4  2  0
  3 33  1  0
  4  5  1  0
  4 34  1  0
  5  6  2  0
  5  7  1  0
  7  8  1  0
  7 35  1  6
  8  9  1  0
  8 36  1  0
  8 37  1  0
  9 10  1  0
  9 38  1  0
  9 39  1  0
 10 29  1  0
 10 11  1  1
 10 12  1  0
 11 40  1  0
 11 41  1  0
 11 42  1  0
 12 25  1  0
 12 13  1  0
 12 43  1  1
 13 14  2  0
 13 15  1  0
 15 29  1  0
 15 16  1  0
 15 44  1  6
 16 23  1  0
 16 17  1  6
 16 18  1  0
 17 45  1  0
 17 46  1  0
 17 47  1  0
 18 19  2  0
 18 20  1  0
 20 21  1  0
 20 48  1  0
 20 49  1  0
 21 22  1  0
 21 23  1  0
 21 50  1  1
 22 51  1  0
 23 24  1  1
 23 25  1  0
 24 52  1  0
 24 53  1  0
 24 54  1  0
 25 26  1  0
 25 55  1  1
 26 27  1  0
 26 56  1  0
 26 57  1  0
 27 28  1  0
 27 29  1  0
 27 58  1  1
 28 59  1  0
M  END
>  <i_m_ct_stereo_status>  (218) 
1

>  <s_m_source_file>  (218) 
/var/tmp/pbs.5076255.sched01/tmp378oxcv0/78pm6kuo1p.sdf

>  <i_m_source_file_index>  (218) 
25

>  <i_lp_mmshare_version>  (218) 
48012

>  <i_f3d_flags>  (218) 
0

>  <s_epik_input>  (218) 
W0NIXTE9W0NIXUMoPU8pW0NASF0oW0NAXTEoW0NAXTIzNClbQ0gzXSlbQ0gyXVtDSDJdW0NAXTIoW0NIM10pW0NASF01W0NAQEhdKFtDSDJdW0NASF00W09IXSlbQ0BdNihbQ0gzXSlbQ0BdKFtDSDNdKShbQ0BASF0zQzU9TylDKD1PKVtDSDJdW0NASF02W09IXQ==

>  <s_epik_cmdline>  (218) 
J2VwaWtfcHl0aG9uJywgJy1waHQnLCAnMi4wJywgJy1waCcsICc3LjAnLCAnLXRuJywgJzgnLCAnLW1hJywgJzIwMCcsICctaW1hZScsICc8aW5maWxlLm1hZT4nLCAnLW9tYWUnLCAnPG91dGZpbGUubWFlPic=

>  <r_lp_tautomer_probability>  (218) 
1

>  <r_epik_Ionization_Penalty>  (218) 
2.06381e-07

>  <r_epik_Ionization_Penalty_Charging>  (218) 
0

>  <r_epik_Ionization_Penalty_Neutral>  (218) 
2.06381e-07

>  <r_epik_State_Penalty>  (218) 
-0

>  <r_epik_Charging_Adjusted_Penalty>  (218) 
0

>  <i_epik_Tot_Q>  (218) 
0

>  <i_epik_Tot_abs_Q>  (218) 
0

>  <s_lp_Force_Field>  (218) 
OPLS3e

>  <r_lp_Energy>  (218) 
91.4199

>  <b_lp_Chiralities_Consistent>  (218) 
1

>  <s_lp_Variant>  (218) 
73:0-1

>  <s_i_glide_gridfile>  (218) 
pfpi4k_grid

>  <i_i_glide_lignum>  (218) 
25

>  <i_i_glide_rotatable_bonds>  (218) 
2

>  <r_i_docking_score>  (218) 
-4.61606

>  <r_i_glide_ligand_efficiency>  (218) 
-0.159174

>  <r_i_glide_ligand_efficiency_sa>  (218) 
-0.489034

>  <r_i_glide_ligand_efficiency_ln>  (218) 
-1.05696

>  <r_i_glide_gscore>  (218) 
-4.61606

>  <r_i_glide_lipo>  (218) 
-0.625138

>  <r_i_glide_hbond>  (218) 
-0.525695

>  <r_i_glide_metal>  (218) 
-0

>  <r_i_glide_rewards>  (218) 
-0.955063

>  <r_i_glide_evdw>  (218) 
-25.7379

>  <r_i_glide_ecoul>  (218) 
-8.03322

>  <r_i_glide_erotb>  (218) 
0

>  <r_i_glide_esite>  (218) 
-0.0182845

>  <r_i_glide_emodel>  (218) 
-42.3104

>  <r_i_glide_energy>  (218) 
-33.7711

>  <r_i_glide_einternal>  (218) 
0.3269

>  <r_i_glide_intrahb_reward>  (218) 
-0

>  <i_i_glide_confnum>  (218) 
1

>  <i_i_glide_posenum>  (218) 
9

>  <r_i_glide_eff_state_penalty>  (218) 
0

>  <ligand_id>  (218) 
73

>  <original_smiles>  (218) 
CC12C=CC(=O)C1CCC1(C)C3C(=O)C4C5(C)C(=O)CC(O)C5(C)C3CC(O)C421

>  <smiles>  (218) 
[H]OC1([H])C([H])([H])C(=O)C2(C([H])([H])[H])C3([H])C(=O)C4([H])C([H])(C([H])([H])C([H])(O[H])C35C3(C([H])([H])[H])C([H])=C([H])C(=O)C3([H])C([H])([H])C([H])([H])C45C([H])([H])[H])C12C([H])([H])[H]

$$$$
73:0:1
     RDKit          3D

 59 64  0  0  1  0  0  0  0  0999 V2000
    2.2145   -3.6042   -0.9631 C   0  0  0  0  0  0  0  0  0  0  0  0
    3.5667   -2.8888   -0.8594 C   0  0  2  0  0  0  0  0  0  0  0  0
    3.4210   -1.5284   -1.5398 C   0  0  0  0  0  0  0  0  0  0  0  0
    3.7869   -1.4911   -2.8240 C   0  0  0  0  0  0  0  0  0  0  0  0
    4.3277   -2.7927   -3.1461 C   0  0  0  0  0  0  0  0  0  0  0  0
    4.5689   -3.2647   -4.2551 O   0  0  0  0  0  0  0  0  0  0  0  0
    4.5405   -3.5674   -1.8599 C   0  0  1  0  0  0  0  0  0  0  0  0
    6.0112   -3.5208   -1.4453 C   0  0  0  0  0  0  0  0  0  0  0  0
    6.3832   -2.3912   -0.4737 C   0  0  0  0  0  0  0  0  0  0  0  0
    5.4715   -2.1890    0.8056 C   0  0  2  0  0  0  0  0  0  0  0  0
    5.5968   -0.6539    1.0105 C   0  0  0  0  0  0  0  0  0  0  0  0
    5.8962   -2.9528    2.0899 C   0  0  2  0  0  0  0  0  0  0  0  0
    5.7939   -4.3165    1.5024 C   0  0  0  0  0  0  0  0  0  0  0  0
    6.6994   -5.1407    1.3665 O   0  0  0  0  0  0  0  0  0  0  0  0
    4.3439   -4.4399    1.1211 C   0  0  1  0  0  0  0  0  0  0  0  0
    3.7642   -5.1056    2.4534 C   0  0  2  0  0  0  0  0  0  0  0  0
    4.0756   -6.6300    2.4509 C   0  0  0  0  0  0  0  0  0  0  0  0
    2.2391   -5.0521    2.5839 C   0  0  0  0  0  0  0  0  0  0  0  0
    1.4555   -5.4654    1.7316 O   0  0  0  0  0  0  0  0  0  0  0  0
    1.7841   -4.4316    3.8934 C   0  0  0  0  0  0  0  0  0  0  0  0
    3.0592   -4.3714    4.7486 C   0  0  1  0  0  0  0  0  0  0  0  0
    3.0006   -5.5129    5.5943 O   0  0  0  0  0  0  0  0  0  0  0  0
    4.3003   -4.3789    3.7721 C   0  0  1  0  0  0  0  0  0  0  0  0
    5.4745   -5.0853    4.5329 C   0  0  0  0  0  0  0  0  0  0  0  0
    4.8571   -2.9387    3.3389 C   0  0  2  0  0  0  0  0  0  0  0  0
    3.6871   -1.9676    3.0663 C   0  0  0  0  0  0  0  0  0  0  0  0
    3.0826   -2.1552    1.6556 C   0  0  1  0  0  0  0  0  0  0  0  0
    2.6086   -0.8841    1.2798 O   0  0  0  0  0  0  0  0  0  0  0  0
    4.0593   -2.8887    0.6485 C   0  0  2  0  0  0  0  0  0  0  0  0
    2.2601   -4.6430   -0.6299 H   0  0  0  0  0  0  0  0  0  0  0  0
    1.8362   -3.6111   -1.9844 H   0  0  0  0  0  0  0  0  0  0  0  0
    1.4785   -3.0751   -0.3658 H   0  0  0  0  0  0  0  0  0  0  0  0
    2.9957   -0.6714   -1.0502 H   0  0  0  0  0  0  0  0  0  0  0  0
    3.6943   -0.6567   -3.5078 H   0  0  0  0  0  0  0  0  0  0  0  0
    4.2728   -4.6066   -2.0343 H   0  0  0  0  0  0  0  0  0  0  0  0
    6.2133   -4.5039   -1.0269 H   0  0  0  0  0  0  0  0  0  0  0  0
    6.6654   -3.4565   -2.3189 H   0  0  0  0  0  0  0  0  0  0  0  0
    7.4259   -2.5123   -0.1774 H   0  0  0  0  0  0  0  0  0  0  0  0
    6.3626   -1.4879   -1.0857 H   0  0  0  0  0  0  0  0  0  0  0  0
    5.4596   -0.3005    2.0234 H   0  0  0  0  0  0  0  0  0  0  0  0
    4.9309   -0.1000    0.3516 H   0  0  0  0  0  0  0  0  0  0  0  0
    6.6104   -0.3147    0.7868 H   0  0  0  0  0  0  0  0  0  0  0  0
    6.9139   -2.7207    2.3594 H   0  0  0  0  0  0  0  0  0  0  0  0
    4.2757   -5.1359    0.2871 H   0  0  0  0  0  0  0  0  0  0  0  0
    5.1374   -6.8611    2.5130 H   0  0  0  0  0  0  0  0  0  0  0  0
    3.7096   -7.0989    1.5377 H   0  0  0  0  0  0  0  0  0  0  0  0
    3.5952   -7.1489    3.2808 H   0  0  0  0  0  0  0  0  0  0  0  0
    1.3689   -3.4408    3.7054 H   0  0  0  0  0  0  0  0  0  0  0  0
    0.9919   -5.0232    4.3546 H   0  0  0  0  0  0  0  0  0  0  0  0
    3.0689   -3.5103    5.4138 H   0  0  0  0  0  0  0  0  0  0  0  0
    2.9998   -6.2929    5.0609 H   0  0  0  0  0  0  0  0  0  0  0  0
    5.6580   -4.5913    5.4908 H   0  0  0  0  0  0  0  0  0  0  0  0
    6.4257   -5.0645    4.0006 H   0  0  0  0  0  0  0  0  0  0  0  0
    5.2817   -6.1331    4.7668 H   0  0  0  0  0  0  0  0  0  0  0  0
    5.3863   -2.5355    4.2053 H   0  0  0  0  0  0  0  0  0  0  0  0
    2.9060   -2.0026    3.8180 H   0  0  0  0  0  0  0  0  0  0  0  0
    4.0311   -0.9521    3.2263 H   0  0  0  0  0  0  0  0  0  0  0  0
    2.1577   -2.7081    1.7221 H   0  0  0  0  0  0  0  0  0  0  0  0
    1.9969   -0.9906    0.5503 H   0  0  0  0  0  0  0  0  0  0  0  0
  2  1  1  1
  1 30  1  0
  1 31  1  0
  1 32  1  0
  2  7  1  0
 29  2  1  6
  2  3  1  0
  3  4  2  0
  3 33  1  0
  4  5  1  0
  4 34  1  0
  5  6  2  0
  5  7  1  0
  7  8  1  0
  7 35  1  6
  8  9  1  0
  8 36  1  0
  8 37  1  0
  9 10  1  0
  9 38  1  0
  9 39  1  0
 10 29  1  0
 10 11  1  1
 10 12  1  0
 11 40  1  0
 11 41  1  0
 11 42  1  0
 12 25  1  0
 12 13  1  0
 12 43  1  1
 13 14  2  0
 13 15  1  0
 15 29  1  0
 15 16  1  0
 15 44  1  6
 16 23  1  0
 16 17  1  1
 16 18  1  0
 17 45  1  0
 17 46  1  0
 17 47  1  0
 18 19  2  0
 18 20  1  0
 20 21  1  0
 20 48  1  0
 20 49  1  0
 21 22  1  0
 21 23  1  0
 21 50  1  1
 22 51  1  0
 23 24  1  1
 23 25  1  0
 24 52  1  0
 24 53  1  0
 24 54  1  0
 25 26  1  0
 25 55  1  1
 26 27  1  0
 26 56  1  0
 26 57  1  0
 27 28  1  0
 27 29  1  0
 27 58  1  1
 28 59  1  0
M  END
>  <i_m_ct_stereo_status>  (219) 
1

>  <s_m_source_file>  (219) 
/var/tmp/pbs.5076255.sched01/tmp378oxcv0/78pm6kuo1p.sdf

>  <i_m_source_file_index>  (219) 
25

>  <i_lp_mmshare_version>  (219) 
48012

>  <i_f3d_flags>  (219) 
0

>  <s_epik_input>  (219) 
W0NIXTE9W0NIXUMoPU8pW0NASF0oW0NAXTEoW0NAXTIzNClbQ0gzXSlbQ0gyXVtDSDJdW0NAXTIoW0NIM10pW0NASF01W0NAQEhdKFtDSDJdW0NASF00W09IXSlbQ0BdNihbQ0gzXSlbQ0BdKFtDSDNdKShbQ0BASF0zQzU9TylDKD1PKVtDSDJdW0NASF02W09IXQ==

>  <s_epik_cmdline>  (219) 
J2VwaWtfcHl0aG9uJywgJy1waHQnLCAnMi4wJywgJy1waCcsICc3LjAnLCAnLXRuJywgJzgnLCAnLW1hJywgJzIwMCcsICctaW1hZScsICc8aW5maWxlLm1hZT4nLCAnLW9tYWUnLCAnPG91dGZpbGUubWFlPic=

>  <r_lp_tautomer_probability>  (219) 
1

>  <r_epik_Ionization_Penalty>  (219) 
2.06381e-07

>  <r_epik_Ionization_Penalty_Charging>  (219) 
0

>  <r_epik_Ionization_Penalty_Neutral>  (219) 
2.06381e-07

>  <r_epik_State_Penalty>  (219) 
-0

>  <r_epik_Charging_Adjusted_Penalty>  (219) 
0

>  <i_epik_Tot_Q>  (219) 
0

>  <i_epik_Tot_abs_Q>  (219) 
0

>  <s_lp_Force_Field>  (219) 
OPLS3e

>  <r_lp_Energy>  (219) 
91.4199

>  <b_lp_Chiralities_Consistent>  (219) 
1

>  <s_lp_Variant>  (219) 
73:0-1

>  <s_i_glide_gridfile>  (219) 
pfpi4k_grid

>  <i_i_glide_lignum>  (219) 
25

>  <i_i_glide_rotatable_bonds>  (219) 
2

>  <r_i_docking_score>  (219) 
-4.13877

>  <r_i_glide_ligand_efficiency>  (219) 
-0.142716

>  <r_i_glide_ligand_efficiency_sa>  (219) 
-0.438469

>  <r_i_glide_ligand_efficiency_ln>  (219) 
-0.947673

>  <r_i_glide_gscore>  (219) 
-4.13877

>  <r_i_glide_lipo>  (219) 
-0.40271

>  <r_i_glide_hbond>  (219) 
-0.404484

>  <r_i_glide_metal>  (219) 
-0

>  <r_i_glide_rewards>  (219) 
-0.938378

>  <r_i_glide_evdw>  (219) 
-22.9173

>  <r_i_glide_ecoul>  (219) 
-8.24722

>  <r_i_glide_erotb>  (219) 
0

>  <r_i_glide_esite>  (219) 
-0.0102497

>  <r_i_glide_emodel>  (219) 
-38.705

>  <r_i_glide_energy>  (219) 
-31.1645

>  <r_i_glide_einternal>  (219) 
0.432538

>  <r_i_glide_intrahb_reward>  (219) 
-0

>  <i_i_glide_confnum>  (219) 
1

>  <i_i_glide_posenum>  (219) 
33

>  <r_i_glide_eff_state_penalty>  (219) 
0

>  <ligand_id>  (219) 
73

>  <original_smiles>  (219) 
CC12C=CC(=O)C1CCC1(C)C3C(=O)C4C5(C)C(=O)CC(O)C5(C)C3CC(O)C421

>  <smiles>  (219) 
[H]OC1([H])C([H])([H])C(=O)C2(C([H])([H])[H])C3([H])C(=O)C4([H])C([H])(C([H])([H])C([H])(O[H])C35C3(C([H])([H])[H])C([H])=C([H])C(=O)C3([H])C([H])([H])C([H])([H])C45C([H])([H])[H])C12C([H])([H])[H]

$$$$
73:0:2
     RDKit          3D

 59 64  0  0  1  0  0  0  0  0999 V2000
    1.3685   -6.3087    1.0577 C   0  0  0  0  0  0  0  0  0  0  0  0
    2.2843   -6.4958    2.2800 C   0  0  2  0  0  0  0  0  0  0  0  0
    2.3873   -8.0066    2.5028 C   0  0  0  0  0  0  0  0  0  0  0  0
    1.5407   -8.4998    3.4137 C   0  0  0  0  0  0  0  0  0  0  0  0
    0.8217   -7.3861    3.9970 C   0  0  0  0  0  0  0  0  0  0  0  0
   -0.1703   -7.4271    4.7287 O   0  0  0  0  0  0  0  0  0  0  0  0
    1.4815   -6.0814    3.5617 C   0  0  1  0  0  0  0  0  0  0  0  0
    2.3428   -5.5109    4.7132 C   0  0  0  0  0  0  0  0  0  0  0  0
    3.8244   -5.9610    4.6749 C   0  0  0  0  0  0  0  0  0  0  0  0
    4.6270   -5.8190    3.3116 C   0  0  2  0  0  0  0  0  0  0  0  0
    5.6180   -7.0182    3.4144 C   0  0  0  0  0  0  0  0  0  0  0  0
    5.4083   -4.4752    3.0894 C   0  0  2  0  0  0  0  0  0  0  0  0
    4.1956   -3.6094    3.1797 C   0  0  0  0  0  0  0  0  0  0  0  0
    3.9717   -2.7209    4.0021 O   0  0  0  0  0  0  0  0  0  0  0  0
    3.3230   -4.0729    2.0398 C   0  0  1  0  0  0  0  0  0  0  0  0
    3.8075   -3.0717    0.8926 C   0  0  2  0  0  0  0  0  0  0  0  0
    3.1258   -1.6864    1.0899 C   0  0  0  0  0  0  0  0  0  0  0  0
    3.3924   -3.4761   -0.5249 C   0  0  0  0  0  0  0  0  0  0  0  0
    2.2390   -3.7591   -0.8442 O   0  0  0  0  0  0  0  0  0  0  0  0
    4.5695   -3.5320   -1.4850 C   0  0  0  0  0  0  0  0  0  0  0  0
    5.7242   -2.8638   -0.7188 C   0  0  1  0  0  0  0  0  0  0  0  0
    5.7822   -1.5238   -1.1992 O   0  0  0  0  0  0  0  0  0  0  0  0
    5.3986   -2.9593    0.8249 C   0  0  1  0  0  0  0  0  0  0  0  0
    6.0369   -1.6987    1.5031 C   0  0  0  0  0  0  0  0  0  0  0  0
    6.0056   -4.2306    1.5961 C   0  0  2  0  0  0  0  0  0  0  0  0
    5.8667   -5.5014    0.7224 C   0  0  0  0  0  0  0  0  0  0  0  0
    4.4559   -6.1266    0.7940 C   0  0  1  0  0  0  0  0  0  0  0  0
    4.6338   -7.5118    0.6229 O   0  0  0  0  0  0  0  0  0  0  0  0
    3.6428   -5.6826    2.0729 C   0  0  2  0  0  0  0  0  0  0  0  0
    1.1486   -5.2616    0.9194 H   0  0  0  0  0  0  0  0  0  0  0  0
    0.4231   -6.8445    1.1644 H   0  0  0  0  0  0  0  0  0  0  0  0
    1.8276   -6.6488    0.1342 H   0  0  0  0  0  0  0  0  0  0  0  0
    3.0277   -8.6594    1.9391 H   0  0  0  0  0  0  0  0  0  0  0  0
    1.4020   -9.5367    3.6837 H   0  0  0  0  0  0  0  0  0  0  0  0
    0.6965   -5.3607    3.3323 H   0  0  0  0  0  0  0  0  0  0  0  0
    2.2392   -4.4262    4.7503 H   0  0  0  0  0  0  0  0  0  0  0  0
    1.9326   -5.8139    5.6783 H   0  0  0  0  0  0  0  0  0  0  0  0
    4.3693   -5.4681    5.4809 H   0  0  0  0  0  0  0  0  0  0  0  0
    3.7980   -7.0123    4.9713 H   0  0  0  0  0  0  0  0  0  0  0  0
    6.5375   -6.9159    2.8556 H   0  0  0  0  0  0  0  0  0  0  0  0
    5.1436   -7.9577    3.1371 H   0  0  0  0  0  0  0  0  0  0  0  0
    5.9773   -7.1398    4.4372 H   0  0  0  0  0  0  0  0  0  0  0  0
    6.1172   -4.2528    3.8812 H   0  0  0  0  0  0  0  0  0  0  0  0
    2.2874   -3.8678    2.3004 H   0  0  0  0  0  0  0  0  0  0  0  0
    3.4279   -1.1720    2.0003 H   0  0  0  0  0  0  0  0  0  0  0  0
    2.0425   -1.7914    1.1416 H   0  0  0  0  0  0  0  0  0  0  0  0
    3.3268   -1.0031    0.2636 H   0  0  0  0  0  0  0  0  0  0  0  0
    4.7870   -4.5738   -1.7211 H   0  0  0  0  0  0  0  0  0  0  0  0
    4.3413   -3.0412   -2.4311 H   0  0  0  0  0  0  0  0  0  0  0  0
    6.6898   -3.3111   -0.9586 H   0  0  0  0  0  0  0  0  0  0  0  0
    4.9302   -1.1289   -1.0736 H   0  0  0  0  0  0  0  0  0  0  0  0
    7.1019   -1.6462    1.2698 H   0  0  0  0  0  0  0  0  0  0  0  0
    5.9708   -1.7016    2.5893 H   0  0  0  0  0  0  0  0  0  0  0  0
    5.6053   -0.7531    1.1727 H   0  0  0  0  0  0  0  0  0  0  0  0
    7.0800   -4.0523    1.6892 H   0  0  0  0  0  0  0  0  0  0  0  0
    6.1520   -5.3461   -0.3120 H   0  0  0  0  0  0  0  0  0  0  0  0
    6.6369   -6.2105    1.0072 H   0  0  0  0  0  0  0  0  0  0  0  0
    3.8978   -5.8833   -0.0984 H   0  0  0  0  0  0  0  0  0  0  0  0
    3.7840   -7.9213    0.6325 H   0  0  0  0  0  0  0  0  0  0  0  0
  2  1  1  6
  1 30  1  0
  1 31  1  0
  1 32  1  0
  2  7  1  0
 29  2  1  1
  2  3  1  0
  3  4  2  0
  3 33  1  0
  4  5  1  0
  4 34  1  0
  5  6  2  0
  5  7  1  0
  7  8  1  0
  7 35  1  6
  8  9  1  0
  8 36  1  0
  8 37  1  0
  9 10  1  0
  9 38  1  0
  9 39  1  0
 10 29  1  0
 10 11  1  6
 10 12  1  0
 11 40  1  0
 11 41  1  0
 11 42  1  0
 12 25  1  0
 12 13  1  0
 12 43  1  1
 13 14  2  0
 13 15  1  0
 15 29  1  0
 15 16  1  0
 15 44  1  1
 16 23  1  0
 16 17  1  1
 16 18  1  0
 17 45  1  0
 17 46  1  0
 17 47  1  0
 18 19  2  0
 18 20  1  0
 20 21  1  0
 20 48  1  0
 20 49  1  0
 21 22  1  0
 21 23  1  0
 21 50  1  1
 22 51  1  0
 23 24  1  1
 23 25  1  0
 24 52  1  0
 24 53  1  0
 24 54  1  0
 25 26  1  0
 25 55  1  1
 26 27  1  0
 26 56  1  0
 26 57  1  0
 27 28  1  0
 27 29  1  0
 27 58  1  6
 28 59  1  0
M  END
>  <i_m_ct_stereo_status>  (220) 
1

>  <s_m_source_file>  (220) 
/var/tmp/pbs.5076255.sched01/tmp378oxcv0/78pm6kuo1p.sdf

>  <i_m_source_file_index>  (220) 
25

>  <i_lp_mmshare_version>  (220) 
48012

>  <i_f3d_flags>  (220) 
0

>  <s_epik_input>  (220) 
W0NIXTE9W0NIXUMoPU8pW0NASF0oW0NAXTEoW0NAXTIzNClbQ0gzXSlbQ0gyXVtDSDJdW0NAXTIoW0NIM10pW0NASF01W0NAQEhdKFtDSDJdW0NASF00W09IXSlbQ0BdNihbQ0gzXSlbQ0BdKFtDSDNdKShbQ0BASF0zQzU9TylDKD1PKVtDSDJdW0NASF02W09IXQ==

>  <s_epik_cmdline>  (220) 
J2VwaWtfcHl0aG9uJywgJy1waHQnLCAnMi4wJywgJy1waCcsICc3LjAnLCAnLXRuJywgJzgnLCAnLW1hJywgJzIwMCcsICctaW1hZScsICc8aW5maWxlLm1hZT4nLCAnLW9tYWUnLCAnPG91dGZpbGUubWFlPic=

>  <r_lp_tautomer_probability>  (220) 
1

>  <r_epik_Ionization_Penalty>  (220) 
2.06381e-07

>  <r_epik_Ionization_Penalty_Charging>  (220) 
0

>  <r_epik_Ionization_Penalty_Neutral>  (220) 
2.06381e-07

>  <r_epik_State_Penalty>  (220) 
-0

>  <r_epik_Charging_Adjusted_Penalty>  (220) 
0

>  <i_epik_Tot_Q>  (220) 
0

>  <i_epik_Tot_abs_Q>  (220) 
0

>  <s_lp_Force_Field>  (220) 
OPLS3e

>  <r_lp_Energy>  (220) 
91.4199

>  <b_lp_Chiralities_Consistent>  (220) 
1

>  <s_lp_Variant>  (220) 
73:0-1

>  <s_i_glide_gridfile>  (220) 
pfpi4k_grid

>  <i_i_glide_lignum>  (220) 
25

>  <i_i_glide_rotatable_bonds>  (220) 
2

>  <r_i_docking_score>  (220) 
-3.03402

>  <r_i_glide_ligand_efficiency>  (220) 
-0.104622

>  <r_i_glide_ligand_efficiency_sa>  (220) 
-0.32143

>  <r_i_glide_ligand_efficiency_ln>  (220) 
-0.694715

>  <r_i_glide_gscore>  (220) 
-3.03402

>  <r_i_glide_lipo>  (220) 
-0.518572

>  <r_i_glide_hbond>  (220) 
-0.0548318

>  <r_i_glide_metal>  (220) 
-0

>  <r_i_glide_rewards>  (220) 
-0.751953

>  <r_i_glide_evdw>  (220) 
-27.2461

>  <r_i_glide_ecoul>  (220) 
-2.18584

>  <r_i_glide_erotb>  (220) 
0

>  <r_i_glide_esite>  (220) 
-0.018484

>  <r_i_glide_emodel>  (220) 
-34.9784

>  <r_i_glide_energy>  (220) 
-29.432

>  <r_i_glide_einternal>  (220) 
0.370518

>  <r_i_glide_intrahb_reward>  (220) 
-0

>  <i_i_glide_confnum>  (220) 
1

>  <i_i_glide_posenum>  (220) 
3

>  <r_i_glide_eff_state_penalty>  (220) 
0

>  <ligand_id>  (220) 
73

>  <original_smiles>  (220) 
CC12C=CC(=O)C1CCC1(C)C3C(=O)C4C5(C)C(=O)CC(O)C5(C)C3CC(O)C421

>  <smiles>  (220) 
[H]OC1([H])C([H])([H])C(=O)C2(C([H])([H])[H])C3([H])C(=O)C4([H])C([H])(C([H])([H])C([H])(O[H])C35C3(C([H])([H])[H])C([H])=C([H])C(=O)C3([H])C([H])([H])C([H])([H])C45C([H])([H])[H])C12C([H])([H])[H]

$$$$
74:0:0
     RDKit          3D

 48 51  0  0  1  0  0  0  0  0999 V2000
   -0.2327   -2.4339    5.4617 C   0  0  0  0  0  0  0  0  0  0  0  0
   -0.7535   -1.2858    4.9474 N   0  0  0  0  0  0  0  0  0  0  0  0
    0.2061   -0.9740    4.0756 C   0  0  0  0  0  0  0  0  0  0  0  0
    1.2020   -1.8631    4.0343 N   0  0  0  0  0  0  0  0  0  0  0  0
    2.4174   -1.8891    3.2242 C   0  0  0  0  0  0  0  0  0  0  0  0
    2.8096   -3.3184    2.7569 C   0  0  2  0  0  0  0  0  0  0  0  0
    3.6168   -4.0507    3.8564 C   0  0  0  0  0  0  0  0  0  0  0  0
    3.9044   -5.5204    3.5267 C   0  0  0  0  0  0  0  0  0  0  0  0
    3.9176   -5.8148    2.0202 C   0  0  0  0  0  0  0  0  0  0  0  0
    4.4521   -4.6235    1.2089 C   0  0  1  0  0  0  0  0  0  0  0  0
    4.4147   -4.8971   -0.3030 C   0  0  0  0  0  0  0  0  0  0  0  0
    3.7377   -3.7344   -0.9247 N   0  0  2  0  0  0  0  0  0  0  0  0
    4.6812   -2.7204   -1.5014 C   0  0  0  0  0  0  0  0  0  0  0  0
    3.9712   -1.4322   -2.0016 C   0  0  0  0  0  0  0  0  0  0  0  0
    3.1227   -1.7397   -3.2512 C   0  0  0  0  0  0  0  0  0  0  0  0
    3.9570   -2.2595   -4.2812 O   0  0  0  0  0  0  0  0  0  0  0  0
    4.5668   -3.4961   -3.9235 C   0  0  0  0  0  0  0  0  0  0  0  0
    5.4786   -3.3016   -2.7025 C   0  0  0  0  0  0  0  0  0  0  0  0
    2.8162   -3.2457    0.1316 C   0  0  0  0  0  0  0  0  0  0  0  0
    3.6244   -3.3342    1.4299 C   0  0  1  0  0  0  0  0  0  0  0  0
    0.9428   -2.8167    4.9565 N   0  0  0  0  0  0  0  0  0  0  0  0
   -0.7339   -3.0133    6.2207 H   0  0  0  0  0  0  0  0  0  0  0  0
    0.1777   -0.0991    3.4473 H   0  0  0  0  0  0  0  0  0  0  0  0
    2.2829   -1.2257    2.3748 H   0  0  0  0  0  0  0  0  0  0  0  0
    3.2302   -1.4550    3.8070 H   0  0  0  0  0  0  0  0  0  0  0  0
    1.8906   -3.8721    2.5702 H   0  0  0  0  0  0  0  0  0  0  0  0
    4.5607   -3.5253    4.0077 H   0  0  0  0  0  0  0  0  0  0  0  0
    3.1186   -4.0324    4.8215 H   0  0  0  0  0  0  0  0  0  0  0  0
    4.8599   -5.7980    3.9738 H   0  0  0  0  0  0  0  0  0  0  0  0
    3.1493   -6.1565    3.9909 H   0  0  0  0  0  0  0  0  0  0  0  0
    4.5075   -6.7103    1.8217 H   0  0  0  0  0  0  0  0  0  0  0  0
    2.8979   -6.0359    1.6929 H   0  0  0  0  0  0  0  0  0  0  0  0
    5.4841   -4.4285    1.5074 H   0  0  0  0  0  0  0  0  0  0  0  0
    5.4130   -5.1237   -0.6717 H   0  0  0  0  0  0  0  0  0  0  0  0
    3.8076   -5.7817   -0.5017 H   0  0  0  0  0  0  0  0  0  0  0  0
    5.3890   -2.4377   -0.7238 H   0  0  0  0  0  0  0  0  0  0  0  0
    3.3594   -0.9499   -1.2418 H   0  0  0  0  0  0  0  0  0  0  0  0
    4.7265   -0.6857   -2.2661 H   0  0  0  0  0  0  0  0  0  0  0  0
    2.3294   -2.4539   -3.0239 H   0  0  0  0  0  0  0  0  0  0  0  0
    2.6348   -0.8328   -3.6068 H   0  0  0  0  0  0  0  0  0  0  0  0
    3.8060   -4.2506   -3.7352 H   0  0  0  0  0  0  0  0  0  0  0  0
    5.1595   -3.8677   -4.7589 H   0  0  0  0  0  0  0  0  0  0  0  0
    6.2942   -2.6332   -2.9711 H   0  0  0  0  0  0  0  0  0  0  0  0
    5.9662   -4.2466   -2.4850 H   0  0  0  0  0  0  0  0  0  0  0  0
    2.3615   -2.2692   -0.0067 H   0  0  0  0  0  0  0  0  0  0  0  0
    1.9993   -3.9706    0.1670 H   0  0  0  0  0  0  0  0  0  0  0  0
    4.3265   -2.5004    1.4435 H   0  0  0  0  0  0  0  0  0  0  0  0
    3.1898   -4.0868   -1.6994 H   0  0  0  0  0  0  0  0  0  0  0  0
  1 21  2  0
  1  2  1  0
  1 22  1  0
  2  3  2  0
  3  4  1  0
  3 23  1  0
  4  5  1  0
  4 21  1  0
  5  6  1  0
  5 24  1  0
  5 25  1  0
  6 20  1  0
  6  7  1  0
  6 26  1  6
  7  8  1  0
  7 27  1  0
  7 28  1  0
  8  9  1  0
  8 29  1  0
  8 30  1  0
  9 10  1  0
  9 31  1  0
  9 32  1  0
 10 20  1  0
 10 11  1  0
 10 33  1  1
 11 12  1  0
 11 34  1  0
 11 35  1  0
 12 13  1  0
 12 19  1  0
 12 48  1  6
 13 18  1  0
 13 14  1  0
 13 36  1  0
 14 15  1  0
 14 37  1  0
 14 38  1  0
 15 16  1  0
 15 39  1  0
 15 40  1  0
 16 17  1  0
 17 18  1  0
 17 41  1  0
 17 42  1  0
 18 43  1  0
 18 44  1  0
 19 20  1  0
 19 45  1  0
 19 46  1  0
 20 47  1  1
M  CHG  1  12   1
M  END
>  <i_m_ct_stereo_status>  (221) 
1

>  <s_m_source_file>  (221) 
/var/tmp/pbs.5076255.sched01/tmp378oxcv0/78pm6kuo1p.sdf

>  <i_m_source_file_index>  (221) 
26

>  <i_lp_mmshare_version>  (221) 
48012

>  <i_f3d_flags>  (221) 
0

>  <s_epik_input>  (221) 
bjFbY0hdbltjSF1uMVtDSDJdW0NASF0oW0NIMl1bQ0gyXVtDSDJdMilbQ0BASF0oW0NAQEhdMjMpW0NIMl1OKFtDSDJdMylbQ0hdNFtDSDJdW0NIMl1PW0NIMl1bQ0gyXTQ=

>  <s_epik_cmdline>  (221) 
J2VwaWtfcHl0aG9uJywgJy1waHQnLCAnMi4wJywgJy1waCcsICc3LjAnLCAnLXRuJywgJzgnLCAnLW1hJywgJzIwMCcsICctaW1hZScsICc8aW5maWxlLm1hZT4nLCAnLW9tYWUnLCAnPG91dGZpbGUubWFlPic=

>  <r_lp_tautomer_probability>  (221) 
1

>  <r_epik_Ionization_Penalty>  (221) 
0.0012318

>  <r_epik_Ionization_Penalty_Charging>  (221) 
0.00109044

>  <r_epik_Ionization_Penalty_Neutral>  (221) 
0.00014136

>  <r_epik_State_Penalty>  (221) 
0.000714987

>  <r_epik_Charging_Adjusted_Penalty>  (221) 
0.00180543

>  <i_epik_Tot_Q>  (221) 
1

>  <i_epik_Tot_abs_Q>  (221) 
1

>  <s_lp_Force_Field>  (221) 
OPLS3e

>  <r_lp_Energy>  (221) 
33.7013

>  <b_lp_Chiralities_Consistent>  (221) 
1

>  <s_lp_Variant>  (221) 
74:0-1

>  <s_i_glide_gridfile>  (221) 
pfpi4k_grid

>  <i_i_glide_lignum>  (221) 
26

>  <i_i_glide_rotatable_bonds>  (221) 
3

>  <r_i_docking_score>  (221) 
-3.71367

>  <r_i_glide_ligand_efficiency>  (221) 
-0.176842

>  <r_i_glide_ligand_efficiency_sa>  (221) 
-0.487892

>  <r_i_glide_ligand_efficiency_ln>  (221) 
-0.918198

>  <r_i_glide_gscore>  (221) 
-3.71367

>  <r_i_glide_lipo>  (221) 
-0.462078

>  <r_i_glide_hbond>  (221) 
-0.32

>  <r_i_glide_metal>  (221) 
-0

>  <r_i_glide_rewards>  (221) 
-1.43231

>  <r_i_glide_evdw>  (221) 
-19.7917

>  <r_i_glide_ecoul>  (221) 
-7.45273

>  <r_i_glide_erotb>  (221) 
0.644386

>  <r_i_glide_esite>  (221) 
-0.0361769

>  <r_i_glide_emodel>  (221) 
-33.1491

>  <r_i_glide_energy>  (221) 
-27.2444

>  <r_i_glide_einternal>  (221) 
3.00791

>  <r_i_glide_intrahb_reward>  (221) 
-0

>  <i_i_glide_confnum>  (221) 
4

>  <i_i_glide_posenum>  (221) 
20

>  <r_i_glide_eff_state_penalty>  (221) 
0

>  <ligand_id>  (221) 
74

>  <original_smiles>  (221) 
c1ncn(CC2CCCC3CN(C4CCOCC4)CC32)n1

>  <smiles>  (221) 
[H]c1nc([H])n(C([H])([H])C2([H])C([H])([H])C([H])([H])C([H])([H])C3([H])C2([H])C([H])([H])[N+]([H])(C2([H])C([H])([H])C([H])([H])OC([H])([H])C2([H])[H])C3([H])[H])n1

$$$$
74:0:1
     RDKit          3D

 48 51  0  0  1  0  0  0  0  0999 V2000
   -1.3847   -7.7301    2.9581 C   0  0  0  0  0  0  0  0  0  0  0  0
   -1.2597   -7.8085    4.3170 N   0  0  0  0  0  0  0  0  0  0  0  0
   -0.2172   -7.0102    4.4974 C   0  0  0  0  0  0  0  0  0  0  0  0
    0.2287   -6.4454    3.3709 N   0  0  0  0  0  0  0  0  0  0  0  0
    1.3025   -5.4999    3.1395 C   0  0  0  0  0  0  0  0  0  0  0  0
    2.5853   -6.1863    2.6130 C   0  0  2  0  0  0  0  0  0  0  0  0
    3.4392   -6.6594    3.8059 C   0  0  0  0  0  0  0  0  0  0  0  0
    4.6868   -7.4567    3.3926 C   0  0  0  0  0  0  0  0  0  0  0  0
    5.1659   -7.1444    1.9657 C   0  0  0  0  0  0  0  0  0  0  0  0
    4.9275   -5.6739    1.5871 C   0  0  1  0  0  0  0  0  0  0  0  0
    5.3496   -5.3669    0.1411 C   0  0  0  0  0  0  0  0  0  0  0  0
    4.2087   -4.6764   -0.4991 N   0  0  2  0  0  0  0  0  0  0  0  0
    4.3467   -3.1890   -0.5506 C   0  0  0  0  0  0  0  0  0  0  0  0
    3.0887   -2.4864   -1.1163 C   0  0  0  0  0  0  0  0  0  0  0  0
    2.9258   -2.7747   -2.6223 C   0  0  0  0  0  0  0  0  0  0  0  0
    4.0795   -2.3363   -3.3289 O   0  0  0  0  0  0  0  0  0  0  0  0
    5.2656   -3.0105   -2.9260 C   0  0  0  0  0  0  0  0  0  0  0  0
    5.5449   -2.7412   -1.4341 C   0  0  0  0  0  0  0  0  0  0  0  0
    3.0217   -5.2177    0.2125 C   0  0  0  0  0  0  0  0  0  0  0  0
    3.4370   -5.2712    1.6855 C   0  0  1  0  0  0  0  0  0  0  0  0
   -0.5369   -6.8906    2.3432 N   0  0  0  0  0  0  0  0  0  0  0  0
   -2.1464   -8.2687    2.4194 H   0  0  0  0  0  0  0  0  0  0  0  0
    0.2173   -6.8169    5.4671 H   0  0  0  0  0  0  0  0  0  0  0  0
    0.9529   -4.7278    2.4615 H   0  0  0  0  0  0  0  0  0  0  0  0
    1.5133   -4.9687    4.0667 H   0  0  0  0  0  0  0  0  0  0  0  0
    2.3043   -7.0668    2.0339 H   0  0  0  0  0  0  0  0  0  0  0  0
    3.7602   -5.7854    4.3732 H   0  0  0  0  0  0  0  0  0  0  0  0
    2.8434   -7.2605    4.4890 H   0  0  0  0  0  0  0  0  0  0  0  0
    5.4885   -7.2548    4.1047 H   0  0  0  0  0  0  0  0  0  0  0  0
    4.4789   -8.5245    3.4558 H   0  0  0  0  0  0  0  0  0  0  0  0
    6.2219   -7.3971    1.8606 H   0  0  0  0  0  0  0  0  0  0  0  0
    4.6248   -7.7826    1.2620 H   0  0  0  0  0  0  0  0  0  0  0  0
    5.5035   -5.0359    2.2610 H   0  0  0  0  0  0  0  0  0  0  0  0
    6.3092   -4.8507    0.1232 H   0  0  0  0  0  0  0  0  0  0  0  0
    5.4756   -6.2925   -0.4139 H   0  0  0  0  0  0  0  0  0  0  0  0
    4.5123   -2.8327    0.4633 H   0  0  0  0  0  0  0  0  0  0  0  0
    2.1786   -2.7502   -0.5790 H   0  0  0  0  0  0  0  0  0  0  0  0
    3.1815   -1.4045   -0.9715 H   0  0  0  0  0  0  0  0  0  0  0  0
    2.7664   -3.8374   -2.8061 H   0  0  0  0  0  0  0  0  0  0  0  0
    2.0466   -2.2593   -3.0080 H   0  0  0  0  0  0  0  0  0  0  0  0
    5.1735   -4.0802   -3.1221 H   0  0  0  0  0  0  0  0  0  0  0  0
    6.1027   -2.6570   -3.5166 H   0  0  0  0  0  0  0  0  0  0  0  0
    5.7056   -1.6689   -1.2932 H   0  0  0  0  0  0  0  0  0  0  0  0
    6.4943   -3.2089   -1.1668 H   0  0  0  0  0  0  0  0  0  0  0  0
    2.0722   -4.7131    0.0496 H   0  0  0  0  0  0  0  0  0  0  0  0
    2.8869   -6.2390   -0.1509 H   0  0  0  0  0  0  0  0  0  0  0  0
    3.4058   -4.2520    2.0757 H   0  0  0  0  0  0  0  0  0  0  0  0
    4.1351   -4.9986   -1.4564 H   0  0  0  0  0  0  0  0  0  0  0  0
  1 21  2  0
  1  2  1  0
  1 22  1  0
  2  3  2  0
  3  4  1  0
  3 23  1  0
  4  5  1  0
  4 21  1  0
  5  6  1  0
  5 24  1  0
  5 25  1  0
  6 20  1  0
  6  7  1  0
  6 26  1  6
  7  8  1  0
  7 27  1  0
  7 28  1  0
  8  9  1  0
  8 29  1  0
  8 30  1  0
  9 10  1  0
  9 31  1  0
  9 32  1  0
 10 20  1  0
 10 11  1  0
 10 33  1  1
 11 12  1  0
 11 34  1  0
 11 35  1  0
 12 13  1  0
 12 19  1  0
 12 48  1  6
 13 18  1  0
 13 14  1  0
 13 36  1  0
 14 15  1  0
 14 37  1  0
 14 38  1  0
 15 16  1  0
 15 39  1  0
 15 40  1  0
 16 17  1  0
 17 18  1  0
 17 41  1  0
 17 42  1  0
 18 43  1  0
 18 44  1  0
 19 20  1  0
 19 45  1  0
 19 46  1  0
 20 47  1  1
M  CHG  1  12   1
M  END
>  <i_m_ct_stereo_status>  (222) 
1

>  <s_m_source_file>  (222) 
/var/tmp/pbs.5076255.sched01/tmp378oxcv0/78pm6kuo1p.sdf

>  <i_m_source_file_index>  (222) 
26

>  <i_lp_mmshare_version>  (222) 
48012

>  <i_f3d_flags>  (222) 
0

>  <s_epik_input>  (222) 
bjFbY0hdbltjSF1uMVtDSDJdW0NASF0oW0NIMl1bQ0gyXVtDSDJdMilbQ0BASF0oW0NAQEhdMjMpW0NIMl1OKFtDSDJdMylbQ0hdNFtDSDJdW0NIMl1PW0NIMl1bQ0gyXTQ=

>  <s_epik_cmdline>  (222) 
J2VwaWtfcHl0aG9uJywgJy1waHQnLCAnMi4wJywgJy1waCcsICc3LjAnLCAnLXRuJywgJzgnLCAnLW1hJywgJzIwMCcsICctaW1hZScsICc8aW5maWxlLm1hZT4nLCAnLW9tYWUnLCAnPG91dGZpbGUubWFlPic=

>  <r_lp_tautomer_probability>  (222) 
1

>  <r_epik_Ionization_Penalty>  (222) 
0.0012318

>  <r_epik_Ionization_Penalty_Charging>  (222) 
0.00109044

>  <r_epik_Ionization_Penalty_Neutral>  (222) 
0.00014136

>  <r_epik_State_Penalty>  (222) 
0.000714987

>  <r_epik_Charging_Adjusted_Penalty>  (222) 
0.00180543

>  <i_epik_Tot_Q>  (222) 
1

>  <i_epik_Tot_abs_Q>  (222) 
1

>  <s_lp_Force_Field>  (222) 
OPLS3e

>  <r_lp_Energy>  (222) 
33.7013

>  <b_lp_Chiralities_Consistent>  (222) 
1

>  <s_lp_Variant>  (222) 
74:0-1

>  <s_i_glide_gridfile>  (222) 
pfpi4k_grid

>  <i_i_glide_lignum>  (222) 
26

>  <i_i_glide_rotatable_bonds>  (222) 
3

>  <r_i_docking_score>  (222) 
-3.61722

>  <r_i_glide_ligand_efficiency>  (222) 
-0.172249

>  <r_i_glide_ligand_efficiency_sa>  (222) 
-0.475221

>  <r_i_glide_ligand_efficiency_ln>  (222) 
-0.894351

>  <r_i_glide_gscore>  (222) 
-3.61722

>  <r_i_glide_lipo>  (222) 
-0.365203

>  <r_i_glide_hbond>  (222) 
-0.16

>  <r_i_glide_metal>  (222) 
-0

>  <r_i_glide_rewards>  (222) 
-1.42219

>  <r_i_glide_evdw>  (222) 
-20.6598

>  <r_i_glide_ecoul>  (222) 
-7.28808

>  <r_i_glide_erotb>  (222) 
0.644386

>  <r_i_glide_esite>  (222) 
-0.188011

>  <r_i_glide_emodel>  (222) 
-33.725

>  <r_i_glide_energy>  (222) 
-27.9479

>  <r_i_glide_einternal>  (222) 
2.81436

>  <r_i_glide_intrahb_reward>  (222) 
-0

>  <i_i_glide_confnum>  (222) 
4

>  <i_i_glide_posenum>  (222) 
3

>  <r_i_glide_eff_state_penalty>  (222) 
0

>  <ligand_id>  (222) 
74

>  <original_smiles>  (222) 
c1ncn(CC2CCCC3CN(C4CCOCC4)CC32)n1

>  <smiles>  (222) 
[H]c1nc([H])n(C([H])([H])C2([H])C([H])([H])C([H])([H])C([H])([H])C3([H])C2([H])C([H])([H])[N+]([H])(C2([H])C([H])([H])C([H])([H])OC([H])([H])C2([H])[H])C3([H])[H])n1

$$$$
74:0:2
     RDKit          3D

 48 51  0  0  1  0  0  0  0  0999 V2000
   -0.6015    0.5374    3.8815 C   0  0  0  0  0  0  0  0  0  0  0  0
   -0.9633    1.2798    2.8023 N   0  0  0  0  0  0  0  0  0  0  0  0
    0.0977    1.0648    2.0167 C   0  0  0  0  0  0  0  0  0  0  0  0
    1.0017    0.2450    2.5467 N   0  0  0  0  0  0  0  0  0  0  0  0
    2.2690   -0.2579    2.0104 C   0  0  0  0  0  0  0  0  0  0  0  0
    2.4194   -1.8072    2.1185 C   0  0  2  0  0  0  0  0  0  0  0  0
    2.9126   -2.2249    3.5215 C   0  0  0  0  0  0  0  0  0  0  0  0
    2.9382   -3.7412    3.7249 C   0  0  0  0  0  0  0  0  0  0  0  0
    3.0871   -4.5442    2.4249 C   0  0  0  0  0  0  0  0  0  0  0  0
    3.9662   -3.8140    1.4012 C   0  0  1  0  0  0  0  0  0  0  0  0
    4.0763   -4.5688    0.0528 C   0  0  0  0  0  0  0  0  0  0  0  0
    3.7233   -3.5854   -0.9898 N   0  0  2  0  0  0  0  0  0  0  0  0
    4.9189   -2.9514   -1.6603 C   0  0  0  0  0  0  0  0  0  0  0  0
    4.7557   -1.4658   -2.0901 C   0  0  0  0  0  0  0  0  0  0  0  0
    3.7201   -1.3632   -3.2334 C   0  0  0  0  0  0  0  0  0  0  0  0
    4.2158   -2.1248   -4.3336 O   0  0  0  0  0  0  0  0  0  0  0  0
    4.2896   -3.5242   -4.0582 C   0  0  0  0  0  0  0  0  0  0  0  0
    5.2959   -3.7495   -2.9269 C   0  0  0  0  0  0  0  0  0  0  0  0
    2.7899   -2.6722   -0.3055 C   0  0  0  0  0  0  0  0  0  0  0  0
    3.3886   -2.4201    1.0640 C   0  0  1  0  0  0  0  0  0  0  0  0
    0.5769   -0.0921    3.7942 N   0  0  0  0  0  0  0  0  0  0  0  0
   -1.2298    0.4355    4.7526 H   0  0  0  0  0  0  0  0  0  0  0  0
    0.1998    1.5021    1.0342 H   0  0  0  0  0  0  0  0  0  0  0  0
    2.3646    0.0721    0.9781 H   0  0  0  0  0  0  0  0  0  0  0  0
    3.0893    0.2297    2.5388 H   0  0  0  0  0  0  0  0  0  0  0  0
    1.4333   -2.2364    1.9432 H   0  0  0  0  0  0  0  0  0  0  0  0
    3.9178   -1.8248    3.6663 H   0  0  0  0  0  0  0  0  0  0  0  0
    2.3131   -1.8175    4.3310 H   0  0  0  0  0  0  0  0  0  0  0  0
    3.7476   -3.9785    4.4132 H   0  0  0  0  0  0  0  0  0  0  0  0
    2.0127   -4.0510    4.2074 H   0  0  0  0  0  0  0  0  0  0  0  0
    3.5052   -5.5258    2.6440 H   0  0  0  0  0  0  0  0  0  0  0  0
    2.0945   -4.6969    1.9889 H   0  0  0  0  0  0  0  0  0  0  0  0
    4.9673   -3.6728    1.8143 H   0  0  0  0  0  0  0  0  0  0  0  0
    5.0549   -5.0353   -0.0940 H   0  0  0  0  0  0  0  0  0  0  0  0
    3.3375   -5.3775    0.0234 H   0  0  0  0  0  0  0  0  0  0  0  0
    5.7689   -2.9879   -0.9753 H   0  0  0  0  0  0  0  0  0  0  0  0
    4.5474   -0.7855   -1.2590 H   0  0  0  0  0  0  0  0  0  0  0  0
    5.7191   -1.1008   -2.4295 H   0  0  0  0  0  0  0  0  0  0  0  0
    2.7314   -1.7525   -3.0069 H   0  0  0  0  0  0  0  0  0  0  0  0
    3.5799   -0.3260   -3.5291 H   0  0  0  0  0  0  0  0  0  0  0  0
    3.3084   -3.9272   -3.8150 H   0  0  0  0  0  0  0  0  0  0  0  0
    4.6269   -4.0542   -4.9510 H   0  0  0  0  0  0  0  0  0  0  0  0
    6.2810   -3.4351   -3.2752 H   0  0  0  0  0  0  0  0  0  0  0  0
    5.3668   -4.8095   -2.7066 H   0  0  0  0  0  0  0  0  0  0  0  0
    2.6190   -1.7194   -0.8003 H   0  0  0  0  0  0  0  0  0  0  0  0
    1.8372   -3.1932   -0.2185 H   0  0  0  0  0  0  0  0  0  0  0  0
    4.2364   -1.7478    0.9461 H   0  0  0  0  0  0  0  0  0  0  0  0
    3.2200   -4.0992   -1.7064 H   0  0  0  0  0  0  0  0  0  0  0  0
  1 21  2  0
  1  2  1  0
  1 22  1  0
  2  3  2  0
  3  4  1  0
  3 23  1  0
  4  5  1  0
  4 21  1  0
  5  6  1  0
  5 24  1  0
  5 25  1  0
  6 20  1  0
  6  7  1  0
  6 26  1  6
  7  8  1  0
  7 27  1  0
  7 28  1  0
  8  9  1  0
  8 29  1  0
  8 30  1  0
  9 10  1  0
  9 31  1  0
  9 32  1  0
 10 20  1  0
 10 11  1  0
 10 33  1  1
 11 12  1  0
 11 34  1  0
 11 35  1  0
 12 13  1  0
 12 19  1  0
 12 48  1  6
 13 18  1  0
 13 14  1  0
 13 36  1  0
 14 15  1  0
 14 37  1  0
 14 38  1  0
 15 16  1  0
 15 39  1  0
 15 40  1  0
 16 17  1  0
 17 18  1  0
 17 41  1  0
 17 42  1  0
 18 43  1  0
 18 44  1  0
 19 20  1  0
 19 45  1  0
 19 46  1  0
 20 47  1  6
M  CHG  1  12   1
M  END
>  <i_m_ct_stereo_status>  (223) 
1

>  <s_m_source_file>  (223) 
/var/tmp/pbs.5076255.sched01/tmp378oxcv0/78pm6kuo1p.sdf

>  <i_m_source_file_index>  (223) 
26

>  <i_lp_mmshare_version>  (223) 
48012

>  <i_f3d_flags>  (223) 
0

>  <s_epik_input>  (223) 
bjFbY0hdbltjSF1uMVtDSDJdW0NASF0oW0NIMl1bQ0gyXVtDSDJdMilbQ0BASF0oW0NAQEhdMjMpW0NIMl1OKFtDSDJdMylbQ0hdNFtDSDJdW0NIMl1PW0NIMl1bQ0gyXTQ=

>  <s_epik_cmdline>  (223) 
J2VwaWtfcHl0aG9uJywgJy1waHQnLCAnMi4wJywgJy1waCcsICc3LjAnLCAnLXRuJywgJzgnLCAnLW1hJywgJzIwMCcsICctaW1hZScsICc8aW5maWxlLm1hZT4nLCAnLW9tYWUnLCAnPG91dGZpbGUubWFlPic=

>  <r_lp_tautomer_probability>  (223) 
1

>  <r_epik_Ionization_Penalty>  (223) 
0.0012318

>  <r_epik_Ionization_Penalty_Charging>  (223) 
0.00109044

>  <r_epik_Ionization_Penalty_Neutral>  (223) 
0.00014136

>  <r_epik_State_Penalty>  (223) 
0.000714987

>  <r_epik_Charging_Adjusted_Penalty>  (223) 
0.00180543

>  <i_epik_Tot_Q>  (223) 
1

>  <i_epik_Tot_abs_Q>  (223) 
1

>  <s_lp_Force_Field>  (223) 
OPLS3e

>  <r_lp_Energy>  (223) 
33.7013

>  <b_lp_Chiralities_Consistent>  (223) 
1

>  <s_lp_Variant>  (223) 
74:0-1

>  <s_i_glide_gridfile>  (223) 
pfpi4k_grid

>  <i_i_glide_lignum>  (223) 
26

>  <i_i_glide_rotatable_bonds>  (223) 
3

>  <r_i_docking_score>  (223) 
-3.59462

>  <r_i_glide_ligand_efficiency>  (223) 
-0.171172

>  <r_i_glide_ligand_efficiency_sa>  (223) 
-0.472251

>  <r_i_glide_ligand_efficiency_ln>  (223) 
-0.888761

>  <r_i_glide_gscore>  (223) 
-3.59462

>  <r_i_glide_lipo>  (223) 
-0.192218

>  <r_i_glide_hbond>  (223) 
-0.32

>  <r_i_glide_metal>  (223) 
-0

>  <r_i_glide_rewards>  (223) 
-1.42219

>  <r_i_glide_evdw>  (223) 
-21.7781

>  <r_i_glide_ecoul>  (223) 
-7.1957

>  <r_i_glide_erotb>  (223) 
0.644386

>  <r_i_glide_esite>  (223) 
-0.136334

>  <r_i_glide_emodel>  (223) 
-33.0517

>  <r_i_glide_energy>  (223) 
-28.9738

>  <r_i_glide_einternal>  (223) 
5.25592

>  <r_i_glide_intrahb_reward>  (223) 
-0

>  <i_i_glide_confnum>  (223) 
4

>  <i_i_glide_posenum>  (223) 
12

>  <r_i_glide_eff_state_penalty>  (223) 
0

>  <ligand_id>  (223) 
74

>  <original_smiles>  (223) 
c1ncn(CC2CCCC3CN(C4CCOCC4)CC32)n1

>  <smiles>  (223) 
[H]c1nc([H])n(C([H])([H])C2([H])C([H])([H])C([H])([H])C([H])([H])C3([H])C2([H])C([H])([H])[N+]([H])(C2([H])C([H])([H])C([H])([H])OC([H])([H])C2([H])[H])C3([H])[H])n1

$$$$
75:0:0
     RDKit          3D

 68 72  0  0  1  0  0  0  0  0999 V2000
   -0.1192  -10.2749    3.5730 C   0  0  0  0  0  0  0  0  0  0  0  0
    1.1948   -9.8193    2.9195 C   0  0  2  0  0  0  0  0  0  0  0  0
    2.3686  -10.4697    3.6647 C   0  0  0  0  0  0  0  0  0  0  0  0
    3.6968  -10.0609    3.0295 C   0  0  0  0  0  0  0  0  0  0  0  0
    3.9141   -8.5315    3.0427 C   0  0  1  0  0  0  0  0  0  0  0  0
    4.0949   -8.0609    4.5149 C   0  0  0  0  0  0  0  0  0  0  0  0
    5.1921   -8.2307    2.2276 C   0  0  0  0  0  0  0  0  0  0  0  0
    5.4988   -6.7298    2.1084 C   0  0  0  0  0  0  0  0  0  0  0  0
    4.3180   -5.8428    1.6099 C   0  0  1  0  0  0  0  0  0  0  0  0
    4.1375   -6.0575    0.0826 C   0  0  0  0  0  0  0  0  0  0  0  0
    3.0083   -6.2858    2.3114 C   0  0  0  0  0  0  0  0  0  0  0  0
    2.1979   -5.3901    2.9181 C   0  0  0  0  0  0  0  0  0  0  0  0
    2.3978   -3.8997    2.9655 C   0  0  0  0  0  0  0  0  0  0  0  0
    3.4827   -3.3721    2.0005 C   0  0  2  0  0  0  0  0  0  0  0  0
    4.7013   -4.3338    1.9184 C   0  0  2  0  0  0  0  0  0  0  0  0
    5.7501   -3.7760    0.9122 C   0  0  0  0  0  0  0  0  0  0  0  0
    6.2364   -2.3578    1.2200 C   0  0  0  0  0  0  0  0  0  0  0  0
    5.1280   -1.3365    1.5132 C   0  0  1  0  0  0  0  0  0  0  0  0
    5.8160   -0.3341    2.2286 O   0  0  0  0  0  0  0  0  0  0  0  0
    4.2743   -0.7120    0.3901 C   0  0  1  0  0  0  0  0  0  0  0  0
    4.2972   -1.4393   -0.9741 C   0  0  0  0  0  0  0  0  0  0  0  0
    3.4717   -2.3501   -1.2001 O   0  0  0  0  0  0  0  0  0  0  0  0
    5.2023   -1.0941   -1.7720 O   0  0  0  0  0  0  0  0  0  0  0  0
    3.0591   -0.9006    1.3001 C   0  0  0  0  0  0  0  0  0  0  0  0
    3.8413   -1.8565    2.2220 C   0  0  1  0  0  0  0  0  0  0  0  0
    3.7569   -1.4736    3.7192 C   0  0  0  0  0  0  0  0  0  0  0  0
    2.7344   -7.8071    2.3378 C   0  0  2  0  0  0  0  0  0  0  0  0
    1.3225   -8.2660    2.8422 C   0  0  1  0  0  0  0  0  0  0  0  0
    0.1937   -7.7213    1.9303 C   0  0  0  0  0  0  0  0  0  0  0  0
   -0.2307   -9.8394    4.5666 H   0  0  0  0  0  0  0  0  0  0  0  0
   -0.1286  -11.3597    3.6902 H   0  0  0  0  0  0  0  0  0  0  0  0
   -0.9948  -10.0152    2.9766 H   0  0  0  0  0  0  0  0  0  0  0  0
    1.2029  -10.2274    1.9072 H   0  0  0  0  0  0  0  0  0  0  0  0
    2.3429  -10.2119    4.7232 H   0  0  0  0  0  0  0  0  0  0  0  0
    2.2791  -11.5559    3.6252 H   0  0  0  0  0  0  0  0  0  0  0  0
    4.5176  -10.5750    3.5332 H   0  0  0  0  0  0  0  0  0  0  0  0
    3.7014  -10.4247    2.0022 H   0  0  0  0  0  0  0  0  0  0  0  0
    4.3236   -6.9973    4.5869 H   0  0  0  0  0  0  0  0  0  0  0  0
    4.9074   -8.6060    5.0043 H   0  0  0  0  0  0  0  0  0  0  0  0
    3.1908   -8.2162    5.1068 H   0  0  0  0  0  0  0  0  0  0  0  0
    6.0480   -8.7453    2.6659 H   0  0  0  0  0  0  0  0  0  0  0  0
    5.0842   -8.6465    1.2255 H   0  0  0  0  0  0  0  0  0  0  0  0
    5.8354   -6.3805    3.0854 H   0  0  0  0  0  0  0  0  0  0  0  0
    6.3618   -6.6079    1.4539 H   0  0  0  0  0  0  0  0  0  0  0  0
    5.0542   -5.8765   -0.4811 H   0  0  0  0  0  0  0  0  0  0  0  0
    3.3613   -5.4052   -0.3201 H   0  0  0  0  0  0  0  0  0  0  0  0
    3.8534   -7.0757   -0.1505 H   0  0  0  0  0  0  0  0  0  0  0  0
    1.3256   -5.7210    3.4567 H   0  0  0  0  0  0  0  0  0  0  0  0
    1.4483   -3.4074    2.7382 H   0  0  0  0  0  0  0  0  0  0  0  0
    2.6307   -3.7084    4.0150 H   0  0  0  0  0  0  0  0  0  0  0  0
    3.0152   -3.4508    1.0184 H   0  0  0  0  0  0  0  0  0  0  0  0
    5.1607   -4.2992    2.9114 H   0  0  0  0  0  0  0  0  0  0  0  0
    6.6170   -4.4427    0.8652 H   0  0  0  0  0  0  0  0  0  0  0  0
    5.3333   -3.7583   -0.0936 H   0  0  0  0  0  0  0  0  0  0  0  0
    6.8681   -2.4753    2.0866 H   0  0  0  0  0  0  0  0  0  0  0  0
    6.9129   -2.0162    0.4328 H   0  0  0  0  0  0  0  0  0  0  0  0
    6.6251   -0.1653    1.7665 H   0  0  0  0  0  0  0  0  0  0  0  0
    4.4939    0.3476    0.2501 H   0  0  0  0  0  0  0  0  0  0  0  0
    2.8159    0.0410    1.7896 H   0  0  0  0  0  0  0  0  0  0  0  0
    2.1779   -1.3456    0.8554 H   0  0  0  0  0  0  0  0  0  0  0  0
    4.0616   -0.4454    3.9040 H   0  0  0  0  0  0  0  0  0  0  0  0
    4.3908   -2.1081    4.3374 H   0  0  0  0  0  0  0  0  0  0  0  0
    2.7360   -1.5155    4.0941 H   0  0  0  0  0  0  0  0  0  0  0  0
    2.7508   -8.1450    1.3074 H   0  0  0  0  0  0  0  0  0  0  0  0
    1.1667   -7.8851    3.8521 H   0  0  0  0  0  0  0  0  0  0  0  0
    0.2091   -8.2230    0.9680 H   0  0  0  0  0  0  0  0  0  0  0  0
    0.2783   -6.6608    1.7103 H   0  0  0  0  0  0  0  0  0  0  0  0
   -0.7961   -7.8816    2.3612 H   0  0  0  0  0  0  0  0  0  0  0  0
  1  2  1  0
  1 30  1  0
  1 31  1  0
  1 32  1  0
  2 28  1  0
  2  3  1  0
  2 33  1  6
  3  4  1  0
  3 34  1  0
  3 35  1  0
  4  5  1  0
  4 36  1  0
  4 37  1  0
  5 27  1  0
  5  6  1  1
  5  7  1  0
  6 38  1  0
  6 39  1  0
  6 40  1  0
  7  8  1  0
  7 41  1  0
  7 42  1  0
  8  9  1  0
  8 43  1  0
  8 44  1  0
  9 15  1  0
  9 10  1  6
  9 11  1  0
 10 45  1  0
 10 46  1  0
 10 47  1  0
 11 12  2  0
 11 27  1  0
 12 13  1  0
 12 48  1  0
 13 14  1  0
 13 49  1  0
 13 50  1  0
 14 25  1  0
 14 15  1  0
 14 51  1  6
 15 16  1  0
 15 52  1  1
 16 17  1  0
 16 53  1  0
 16 54  1  0
 17 18  1  0
 17 55  1  0
 17 56  1  0
 18 25  1  0
 18 19  1  1
 18 20  1  0
 19 57  1  0
 20 21  1  0
 20 24  1  0
 20 58  1  6
 21 22  2  0
 21 23  1  0
 24 25  1  0
 24 59  1  0
 24 60  1  0
 25 26  1  1
 26 61  1  0
 26 62  1  0
 26 63  1  0
 27 28  1  0
 27 64  1  6
 28 29  1  0
 28 65  1  1
 29 66  1  0
 29 67  1  0
 29 68  1  0
M  CHG  1  23  -1
M  END
>  <i_m_ct_stereo_status>  (224) 
1

>  <s_m_source_file>  (224) 
/var/tmp/pbs.5076255.sched01/tmp378oxcv0/78pm6kuo1p.sdf

>  <i_m_source_file_index>  (224) 
27

>  <i_lp_mmshare_version>  (224) 
48012

>  <i_f3d_flags>  (224) 
0

>  <s_epik_input>  (224) 
W0NIMl0xW0NIMl1bQ0BASF0oW0NIM10pW0NASF0oW0NIM10pW0NASF0oW0NAQF0xMltDSDNdKUM9M1tDQF0oW0NIM10pKFtDSDJdW0NIMl0yKVtDQEBIXTRbQ0BASF0oW0NIMl1bQ0hdMylbQ0BAXTUoW0NIM10pW0NAQF0oW09IXSkoW0NIMl1bQ0gyXTQpW0NASF0oW0NIMl01KUMoPU8pW09IXQ==

>  <s_epik_cmdline>  (224) 
J2VwaWtfcHl0aG9uJywgJy1waHQnLCAnMi4wJywgJy1waCcsICc3LjAnLCAnLXRuJywgJzgnLCAnLW1hJywgJzIwMCcsICctaW1hZScsICc8aW5maWxlLm1hZT4nLCAnLW9tYWUnLCAnPG91dGZpbGUubWFlPic=

>  <r_epik_Ionization_Penalty>  (224) 
0.00243176

>  <r_epik_Ionization_Penalty_Charging>  (224) 
0.00242559

>  <r_epik_Ionization_Penalty_Neutral>  (224) 
6.17069e-06

>  <r_epik_State_Penalty>  (224) 
0.0016787

>  <r_epik_Charging_Adjusted_Penalty>  (224) 
0.00410429

>  <i_epik_Tot_Q>  (224) 
-1

>  <i_epik_Tot_abs_Q>  (224) 
1

>  <s_lp_Force_Field>  (224) 
OPLS3e

>  <r_lp_Energy>  (224) 
64.2282

>  <b_lp_Chiralities_Consistent>  (224) 
1

>  <s_lp_Variant>  (224) 
75:0-1

>  <s_i_glide_gridfile>  (224) 
pfpi4k_grid

>  <i_i_glide_lignum>  (224) 
27

>  <i_i_glide_rotatable_bonds>  (224) 
2

>  <r_i_docking_score>  (224) 
-2.91427

>  <r_i_glide_ligand_efficiency>  (224) 
-0.100492

>  <r_i_glide_ligand_efficiency_sa>  (224) 
-0.308743

>  <r_i_glide_ligand_efficiency_ln>  (224) 
-0.667294

>  <r_i_glide_gscore>  (224) 
-2.91427

>  <r_i_glide_lipo>  (224) 
-0.559291

>  <r_i_glide_hbond>  (224) 
-0.444281

>  <r_i_glide_metal>  (224) 
-0

>  <r_i_glide_rewards>  (224) 
-0.68464

>  <r_i_glide_evdw>  (224) 
-19.0587

>  <r_i_glide_ecoul>  (224) 
-1.5332

>  <r_i_glide_erotb>  (224) 
0

>  <r_i_glide_esite>  (224) 
-0.0431391

>  <r_i_glide_emodel>  (224) 
-24.8216

>  <r_i_glide_energy>  (224) 
-20.5919

>  <r_i_glide_einternal>  (224) 
1.14059

>  <r_i_glide_intrahb_reward>  (224) 
-0

>  <i_i_glide_confnum>  (224) 
1

>  <i_i_glide_posenum>  (224) 
35

>  <r_i_glide_eff_state_penalty>  (224) 
0

>  <ligand_id>  (224) 
75

>  <original_smiles>  (224) 
CC1CCC2(C)CCC3(C)C(=CCC4C3CCC3(O)C(C(=O)O)CC43C)C2C1C

>  <smiles>  (224) 
[H]OC12C([H])([H])C([H])([H])C3([H])C([H])(C([H])([H])C([H])=C4C5([H])C([H])(C([H])([H])[H])C([H])(C([H])([H])[H])C([H])([H])C([H])([H])C5(C([H])([H])[H])C([H])([H])C([H])([H])C43C([H])([H])[H])C1(C([H])([H])[H])C([H])([H])C2([H])C(=O)[O-]

$$$$
75:0:1
     RDKit          3D

 68 72  0  0  1  0  0  0  0  0999 V2000
    0.0723   -8.8336    5.6894 C   0  0  0  0  0  0  0  0  0  0  0  0
    1.2406   -8.8446    4.6829 C   0  0  2  0  0  0  0  0  0  0  0  0
    2.4415   -9.5746    5.3042 C   0  0  0  0  0  0  0  0  0  0  0  0
    3.6063   -9.6423    4.3148 C   0  0  0  0  0  0  0  0  0  0  0  0
    4.0967   -8.2425    3.8807 C   0  0  1  0  0  0  0  0  0  0  0  0
    4.7320   -7.5170    5.0987 C   0  0  0  0  0  0  0  0  0  0  0  0
    5.1458   -8.4410    2.7618 C   0  0  0  0  0  0  0  0  0  0  0  0
    5.6797   -7.1181    2.1850 C   0  0  0  0  0  0  0  0  0  0  0  0
    4.5855   -6.1039    1.7196 C   0  0  1  0  0  0  0  0  0  0  0  0
    3.9654   -6.6014    0.3861 C   0  0  0  0  0  0  0  0  0  0  0  0
    3.4492   -6.0589    2.7742 C   0  0  0  0  0  0  0  0  0  0  0  0
    2.9979   -4.8860    3.2660 C   0  0  0  0  0  0  0  0  0  0  0  0
    3.4645   -3.5104    2.8651 C   0  0  0  0  0  0  0  0  0  0  0  0
    4.3430   -3.4760    1.5921 C   0  0  2  0  0  0  0  0  0  0  0  0
    5.2997   -4.6977    1.5271 C   0  0  2  0  0  0  0  0  0  0  0  0
    6.1375   -4.6377    0.2213 C   0  0  0  0  0  0  0  0  0  0  0  0
    6.9580   -3.3560    0.0613 C   0  0  0  0  0  0  0  0  0  0  0  0
    6.1679   -2.0489    0.2576 C   0  0  1  0  0  0  0  0  0  0  0  0
    7.2249   -1.1368    0.4766 O   0  0  0  0  0  0  0  0  0  0  0  0
    5.1624   -1.5025   -0.7865 C   0  0  1  0  0  0  0  0  0  0  0  0
    4.6621   -2.4846   -1.8650 C   0  0  0  0  0  0  0  0  0  0  0  0
    3.5619   -3.0524   -1.7047 O   0  0  0  0  0  0  0  0  0  0  0  0
    5.4137   -2.6547   -2.8516 O   0  0  0  0  0  0  0  0  0  0  0  0
    4.2049   -1.1820    0.3636 C   0  0  0  0  0  0  0  0  0  0  0  0
    5.0215   -2.0746    1.3255 C   0  0  1  0  0  0  0  0  0  0  0  0
    5.3889   -1.3645    2.6482 C   0  0  0  0  0  0  0  0  0  0  0  0
    2.9179   -7.4319    3.2644 C   0  0  2  0  0  0  0  0  0  0  0  0
    1.6207   -7.4257    4.1500 C   0  0  1  0  0  0  0  0  0  0  0  0
    0.4104   -6.8541    3.3645 C   0  0  0  0  0  0  0  0  0  0  0  0
    0.2839   -8.1902    6.5443 H   0  0  0  0  0  0  0  0  0  0  0  0
   -0.1206   -9.8382    6.0737 H   0  0  0  0  0  0  0  0  0  0  0  0
   -0.8600   -8.4999    5.2334 H   0  0  0  0  0  0  0  0  0  0  0  0
    0.9207   -9.4512    3.8339 H   0  0  0  0  0  0  0  0  0  0  0  0
    2.7442   -9.0896    6.2335 H   0  0  0  0  0  0  0  0  0  0  0  0
    2.1545  -10.5869    5.5859 H   0  0  0  0  0  0  0  0  0  0  0  0
    4.4270  -10.2133    4.7565 H   0  0  0  0  0  0  0  0  0  0  0  0
    3.2837  -10.2105    3.4447 H   0  0  0  0  0  0  0  0  0  0  0  0
    5.1607   -6.5529    4.8337 H   0  0  0  0  0  0  0  0  0  0  0  0
    5.5315   -8.1178    5.5379 H   0  0  0  0  0  0  0  0  0  0  0  0
    4.0035   -7.3172    5.8821 H   0  0  0  0  0  0  0  0  0  0  0  0
    5.9832   -9.0378    3.1331 H   0  0  0  0  0  0  0  0  0  0  0  0
    4.7127   -9.0260    1.9519 H   0  0  0  0  0  0  0  0  0  0  0  0
    6.3142   -6.6583    2.9392 H   0  0  0  0  0  0  0  0  0  0  0  0
    6.3519   -7.3507    1.3590 H   0  0  0  0  0  0  0  0  0  0  0  0
    4.7158   -6.7924   -0.3791 H   0  0  0  0  0  0  0  0  0  0  0  0
    3.2554   -5.8772   -0.0155 H   0  0  0  0  0  0  0  0  0  0  0  0
    3.4374   -7.5448    0.4870 H   0  0  0  0  0  0  0  0  0  0  0  0
    2.2500   -4.8770    4.0420 H   0  0  0  0  0  0  0  0  0  0  0  0
    2.5910   -2.8745    2.7144 H   0  0  0  0  0  0  0  0  0  0  0  0
    3.9897   -3.1511    3.7490 H   0  0  0  0  0  0  0  0  0  0  0  0
    3.6414   -3.6504    0.7800 H   0  0  0  0  0  0  0  0  0  0  0  0
    5.9970   -4.5592    2.3540 H   0  0  0  0  0  0  0  0  0  0  0  0
    6.8189   -5.4879    0.1680 H   0  0  0  0  0  0  0  0  0  0  0  0
    5.4876   -4.7274   -0.6445 H   0  0  0  0  0  0  0  0  0  0  0  0
    7.7628   -3.4088    0.7969 H   0  0  0  0  0  0  0  0  0  0  0  0
    7.4535   -3.3559   -0.9111 H   0  0  0  0  0  0  0  0  0  0  0  0
    6.8699   -0.4141    0.9795 H   0  0  0  0  0  0  0  0  0  0  0  0
    5.5090   -0.5898   -1.2743 H   0  0  0  0  0  0  0  0  0  0  0  0
    4.2563   -0.1233    0.6242 H   0  0  0  0  0  0  0  0  0  0  0  0
    3.1618   -1.4775    0.2203 H   0  0  0  0  0  0  0  0  0  0  0  0
    5.9167   -0.4260    2.4900 H   0  0  0  0  0  0  0  0  0  0  0  0
    6.0248   -1.9935    3.2669 H   0  0  0  0  0  0  0  0  0  0  0  0
    4.5081   -1.0859    3.2263 H   0  0  0  0  0  0  0  0  0  0  0  0
    2.6067   -7.9803    2.3821 H   0  0  0  0  0  0  0  0  0  0  0  0
    1.8004   -6.7950    5.0225 H   0  0  0  0  0  0  0  0  0  0  0  0
    0.0788   -7.5520    2.5947 H   0  0  0  0  0  0  0  0  0  0  0  0
    0.6253   -5.9159    2.8624 H   0  0  0  0  0  0  0  0  0  0  0  0
   -0.4388   -6.6636    4.0209 H   0  0  0  0  0  0  0  0  0  0  0  0
  1  2  1  0
  1 30  1  0
  1 31  1  0
  1 32  1  0
  2 28  1  0
  2  3  1  0
  2 33  1  6
  3  4  1  0
  3 34  1  0
  3 35  1  0
  4  5  1  0
  4 36  1  0
  4 37  1  0
  5 27  1  0
  5  6  1  1
  5  7  1  0
  6 38  1  0
  6 39  1  0
  6 40  1  0
  7  8  1  0
  7 41  1  0
  7 42  1  0
  8  9  1  0
  8 43  1  0
  8 44  1  0
  9 15  1  0
  9 10  1  6
  9 11  1  0
 10 45  1  0
 10 46  1  0
 10 47  1  0
 11 12  2  0
 11 27  1  0
 12 13  1  0
 12 48  1  0
 13 14  1  0
 13 49  1  0
 13 50  1  0
 14 25  1  0
 14 15  1  0
 14 51  1  6
 15 16  1  0
 15 52  1  1
 16 17  1  0
 16 53  1  0
 16 54  1  0
 17 18  1  0
 17 55  1  0
 17 56  1  0
 18 25  1  0
 18 19  1  1
 18 20  1  0
 19 57  1  0
 20 21  1  0
 20 24  1  0
 20 58  1  6
 21 22  2  0
 21 23  1  0
 24 25  1  0
 24 59  1  0
 24 60  1  0
 25 26  1  1
 26 61  1  0
 26 62  1  0
 26 63  1  0
 27 28  1  0
 27 64  1  6
 28 29  1  0
 28 65  1  1
 29 66  1  0
 29 67  1  0
 29 68  1  0
M  CHG  1  23  -1
M  END
>  <i_m_ct_stereo_status>  (225) 
1

>  <s_m_source_file>  (225) 
/var/tmp/pbs.5076255.sched01/tmp378oxcv0/78pm6kuo1p.sdf

>  <i_m_source_file_index>  (225) 
27

>  <i_lp_mmshare_version>  (225) 
48012

>  <i_f3d_flags>  (225) 
0

>  <s_epik_input>  (225) 
W0NIMl0xW0NIMl1bQ0BASF0oW0NIM10pW0NASF0oW0NIM10pW0NASF0oW0NAQF0xMltDSDNdKUM9M1tDQF0oW0NIM10pKFtDSDJdW0NIMl0yKVtDQEBIXTRbQ0BASF0oW0NIMl1bQ0hdMylbQ0BAXTUoW0NIM10pW0NAQF0oW09IXSkoW0NIMl1bQ0gyXTQpW0NASF0oW0NIMl01KUMoPU8pW09IXQ==

>  <s_epik_cmdline>  (225) 
J2VwaWtfcHl0aG9uJywgJy1waHQnLCAnMi4wJywgJy1waCcsICc3LjAnLCAnLXRuJywgJzgnLCAnLW1hJywgJzIwMCcsICctaW1hZScsICc8aW5maWxlLm1hZT4nLCAnLW9tYWUnLCAnPG91dGZpbGUubWFlPic=

>  <r_epik_Ionization_Penalty>  (225) 
0.00243176

>  <r_epik_Ionization_Penalty_Charging>  (225) 
0.00242559

>  <r_epik_Ionization_Penalty_Neutral>  (225) 
6.17069e-06

>  <r_epik_State_Penalty>  (225) 
0.0016787

>  <r_epik_Charging_Adjusted_Penalty>  (225) 
0.00410429

>  <i_epik_Tot_Q>  (225) 
-1

>  <i_epik_Tot_abs_Q>  (225) 
1

>  <s_lp_Force_Field>  (225) 
OPLS3e

>  <r_lp_Energy>  (225) 
64.2282

>  <b_lp_Chiralities_Consistent>  (225) 
1

>  <s_lp_Variant>  (225) 
75:0-1

>  <s_i_glide_gridfile>  (225) 
pfpi4k_grid

>  <i_i_glide_lignum>  (225) 
27

>  <i_i_glide_rotatable_bonds>  (225) 
2

>  <r_i_docking_score>  (225) 
-2.61286

>  <r_i_glide_ligand_efficiency>  (225) 
-0.0900986

>  <r_i_glide_ligand_efficiency_sa>  (225) 
-0.276811

>  <r_i_glide_ligand_efficiency_ln>  (225) 
-0.598278

>  <r_i_glide_gscore>  (225) 
-2.61286

>  <r_i_glide_lipo>  (225) 
-0.689019

>  <r_i_glide_hbond>  (225) 
-0.150135

>  <r_i_glide_metal>  (225) 
-0

>  <r_i_glide_rewards>  (225) 
-0.68464

>  <r_i_glide_evdw>  (225) 
-20.2757

>  <r_i_glide_ecoul>  (225) 
-0.472916

>  <r_i_glide_erotb>  (225) 
0

>  <r_i_glide_esite>  (225) 
-0.0043391

>  <r_i_glide_emodel>  (225) 
-24.7851

>  <r_i_glide_energy>  (225) 
-20.7486

>  <r_i_glide_einternal>  (225) 
0.562033

>  <r_i_glide_intrahb_reward>  (225) 
-0

>  <i_i_glide_confnum>  (225) 
2

>  <i_i_glide_posenum>  (225) 
32

>  <r_i_glide_eff_state_penalty>  (225) 
0

>  <ligand_id>  (225) 
75

>  <original_smiles>  (225) 
CC1CCC2(C)CCC3(C)C(=CCC4C3CCC3(O)C(C(=O)O)CC43C)C2C1C

>  <smiles>  (225) 
[H]OC12C([H])([H])C([H])([H])C3([H])C([H])(C([H])([H])C([H])=C4C5([H])C([H])(C([H])([H])[H])C([H])(C([H])([H])[H])C([H])([H])C([H])([H])C5(C([H])([H])[H])C([H])([H])C([H])([H])C43C([H])([H])[H])C1(C([H])([H])[H])C([H])([H])C2([H])C(=O)[O-]

$$$$
75:0:2
     RDKit          3D

 68 72  0  0  1  0  0  0  0  0999 V2000
    0.9455  -11.0655    4.4646 C   0  0  0  0  0  0  0  0  0  0  0  0
    2.1438  -10.5269    3.6530 C   0  0  2  0  0  0  0  0  0  0  0  0
    3.4480  -11.0075    4.3027 C   0  0  0  0  0  0  0  0  0  0  0  0
    4.6602  -10.5304    3.5013 C   0  0  0  0  0  0  0  0  0  0  0  0
    4.7346   -8.9905    3.4008 C   0  0  1  0  0  0  0  0  0  0  0  0
    5.0131   -8.3993    4.8101 C   0  0  0  0  0  0  0  0  0  0  0  0
    5.8890   -8.6382    2.4342 C   0  0  0  0  0  0  0  0  0  0  0  0
    6.0374   -7.1278    2.1884 C   0  0  0  0  0  0  0  0  0  0  0  0
    4.7301   -6.3867    1.7644 C   0  0  1  0  0  0  0  0  0  0  0  0
    4.4081   -6.7311    0.2872 C   0  0  0  0  0  0  0  0  0  0  0  0
    3.5466   -6.8897    2.6314 C   0  0  0  0  0  0  0  0  0  0  0  0
    2.7213   -6.0284    3.2559 C   0  0  0  0  0  0  0  0  0  0  0  0
    2.7855   -4.5239    3.1871 C   0  0  0  0  0  0  0  0  0  0  0  0
    3.7154   -3.9706    2.0842 C   0  0  2  0  0  0  0  0  0  0  0  0
    5.0013   -4.8290    1.9344 C   0  0  2  0  0  0  0  0  0  0  0  0
    5.8942   -4.2563    0.8000 C   0  0  0  0  0  0  0  0  0  0  0  0
    6.2920   -2.7892    0.9846 C   0  0  0  0  0  0  0  0  0  0  0  0
    5.1249   -1.8402    1.3050 C   0  0  1  0  0  0  0  0  0  0  0  0
    5.8134   -0.7300    1.8554 O   0  0  0  0  0  0  0  0  0  0  0  0
    4.0994   -1.3784    0.2416 C   0  0  1  0  0  0  0  0  0  0  0  0
    4.0271   -2.2073   -1.0589 C   0  0  0  0  0  0  0  0  0  0  0  0
    4.8476   -1.9000   -1.9543 O   0  0  0  0  0  0  0  0  0  0  0  0
    3.2076   -3.1442   -1.1367 O   0  0  0  0  0  0  0  0  0  0  0  0
    2.9954   -1.6004    1.2764 C   0  0  0  0  0  0  0  0  0  0  0  0
    3.9567   -2.4169    2.1716 C   0  0  1  0  0  0  0  0  0  0  0  0
    3.9787   -1.9358    3.6394 C   0  0  0  0  0  0  0  0  0  0  0  0
    3.4237   -8.4298    2.7803 C   0  0  2  0  0  0  0  0  0  0  0  0
    2.1170   -8.9776    3.4539 C   0  0  1  0  0  0  0  0  0  0  0  0
    0.8648   -8.6142    2.6152 C   0  0  0  0  0  0  0  0  0  0  0  0
    0.8758  -10.5909    5.4444 H   0  0  0  0  0  0  0  0  0  0  0  0
    1.0362  -12.1410    4.6323 H   0  0  0  0  0  0  0  0  0  0  0  0
   -0.0010  -10.9110    3.9465 H   0  0  0  0  0  0  0  0  0  0  0  0
    2.0982  -10.9998    2.6701 H   0  0  0  0  0  0  0  0  0  0  0  0
    3.5033  -10.6743    5.3377 H   0  0  0  0  0  0  0  0  0  0  0  0
    3.4576  -12.0970    4.3427 H   0  0  0  0  0  0  0  0  0  0  0  0
    5.5730  -10.9285    3.9476 H   0  0  0  0  0  0  0  0  0  0  0  0
    4.6004  -10.9658    2.5018 H   0  0  0  0  0  0  0  0  0  0  0  0
    5.1457   -7.3183    4.7907 H   0  0  0  0  0  0  0  0  0  0  0  0
    5.9175   -8.8317    5.2452 H   0  0  0  0  0  0  0  0  0  0  0  0
    4.1922   -8.5884    5.5014 H   0  0  0  0  0  0  0  0  0  0  0  0
    6.8307   -9.0376    2.8118 H   0  0  0  0  0  0  0  0  0  0  0  0
    5.7241   -9.1321    1.4776 H   0  0  0  0  0  0  0  0  0  0  0  0
    6.4327   -6.6797    3.0987 H   0  0  0  0  0  0  0  0  0  0  0  0
    6.8149   -6.9767    1.4416 H   0  0  0  0  0  0  0  0  0  0  0  0
    5.2462   -6.5079   -0.3644 H   0  0  0  0  0  0  0  0  0  0  0  0
    3.5455   -6.1704   -0.0774 H   0  0  0  0  0  0  0  0  0  0  0  0
    4.2086   -7.7892    0.1336 H   0  0  0  0  0  0  0  0  0  0  0  0
    1.9404   -6.3949    3.9016 H   0  0  0  0  0  0  0  0  0  0  0  0
    1.7760   -4.1371    3.0291 H   0  0  0  0  0  0  0  0  0  0  0  0
    3.0991   -4.2367    4.1907 H   0  0  0  0  0  0  0  0  0  0  0  0
    3.1643   -4.1611    1.1623 H   0  0  0  0  0  0  0  0  0  0  0  0
    5.5500   -4.6872    2.8684 H   0  0  0  0  0  0  0  0  0  0  0  0
    6.8054   -4.8482    0.6947 H   0  0  0  0  0  0  0  0  0  0  0  0
    5.3803   -4.3349   -0.1556 H   0  0  0  0  0  0  0  0  0  0  0  0
    7.0111   -2.7755    1.8009 H   0  0  0  0  0  0  0  0  0  0  0  0
    6.8458   -2.4485    0.1085 H   0  0  0  0  0  0  0  0  0  0  0  0
    6.4982   -0.4996    1.2517 H   0  0  0  0  0  0  0  0  0  0  0  0
    4.1970   -0.3218   -0.0094 H   0  0  0  0  0  0  0  0  0  0  0  0
    2.7073   -0.6507    1.7265 H   0  0  0  0  0  0  0  0  0  0  0  0
    2.1162   -2.1364    0.9206 H   0  0  0  0  0  0  0  0  0  0  0  0
    4.2050   -0.8727    3.7207 H   0  0  0  0  0  0  0  0  0  0  0  0
    4.7241   -2.4686    4.2262 H   0  0  0  0  0  0  0  0  0  0  0  0
    3.0063   -2.0427    4.1167 H   0  0  0  0  0  0  0  0  0  0  0  0
    3.3716   -8.8373    1.7752 H   0  0  0  0  0  0  0  0  0  0  0  0
    2.0204   -8.5310    4.4433 H   0  0  0  0  0  0  0  0  0  0  0  0
    0.8366   -9.1931    1.6924 H   0  0  0  0  0  0  0  0  0  0  0  0
    0.8241   -7.5683    2.3233 H   0  0  0  0  0  0  0  0  0  0  0  0
   -0.0566   -8.8182    3.1611 H   0  0  0  0  0  0  0  0  0  0  0  0
  1  2  1  0
  1 30  1  0
  1 31  1  0
  1 32  1  0
  2 28  1  0
  2  3  1  0
  2 33  1  6
  3  4  1  0
  3 34  1  0
  3 35  1  0
  4  5  1  0
  4 36  1  0
  4 37  1  0
  5 27  1  0
  5  6  1  1
  5  7  1  0
  6 38  1  0
  6 39  1  0
  6 40  1  0
  7  8  1  0
  7 41  1  0
  7 42  1  0
  8  9  1  0
  8 43  1  0
  8 44  1  0
  9 15  1  0
  9 10  1  6
  9 11  1  0
 10 45  1  0
 10 46  1  0
 10 47  1  0
 11 12  2  0
 11 27  1  0
 12 13  1  0
 12 48  1  0
 13 14  1  0
 13 49  1  0
 13 50  1  0
 14 25  1  0
 14 15  1  0
 14 51  1  6
 15 16  1  0
 15 52  1  1
 16 17  1  0
 16 53  1  0
 16 54  1  0
 17 18  1  0
 17 55  1  0
 17 56  1  0
 18 25  1  0
 18 19  1  1
 18 20  1  0
 19 57  1  0
 20 21  1  0
 20 24  1  0
 20 58  1  6
 21 22  2  0
 21 23  1  0
 24 25  1  0
 24 59  1  0
 24 60  1  0
 25 26  1  1
 26 61  1  0
 26 62  1  0
 26 63  1  0
 27 28  1  0
 27 64  1  6
 28 29  1  0
 28 65  1  1
 29 66  1  0
 29 67  1  0
 29 68  1  0
M  CHG  1  23  -1
M  END
>  <i_m_ct_stereo_status>  (226) 
1

>  <s_m_source_file>  (226) 
/var/tmp/pbs.5076255.sched01/tmp378oxcv0/78pm6kuo1p.sdf

>  <i_m_source_file_index>  (226) 
27

>  <i_lp_mmshare_version>  (226) 
48012

>  <i_f3d_flags>  (226) 
0

>  <s_epik_input>  (226) 
W0NIMl0xW0NIMl1bQ0BASF0oW0NIM10pW0NASF0oW0NIM10pW0NASF0oW0NAQF0xMltDSDNdKUM9M1tDQF0oW0NIM10pKFtDSDJdW0NIMl0yKVtDQEBIXTRbQ0BASF0oW0NIMl1bQ0hdMylbQ0BAXTUoW0NIM10pW0NAQF0oW09IXSkoW0NIMl1bQ0gyXTQpW0NASF0oW0NIMl01KUMoPU8pW09IXQ==

>  <s_epik_cmdline>  (226) 
J2VwaWtfcHl0aG9uJywgJy1waHQnLCAnMi4wJywgJy1waCcsICc3LjAnLCAnLXRuJywgJzgnLCAnLW1hJywgJzIwMCcsICctaW1hZScsICc8aW5maWxlLm1hZT4nLCAnLW9tYWUnLCAnPG91dGZpbGUubWFlPic=

>  <r_epik_Ionization_Penalty>  (226) 
0.00243176

>  <r_epik_Ionization_Penalty_Charging>  (226) 
0.00242559

>  <r_epik_Ionization_Penalty_Neutral>  (226) 
6.17069e-06

>  <r_epik_State_Penalty>  (226) 
0.0016787

>  <r_epik_Charging_Adjusted_Penalty>  (226) 
0.00410429

>  <i_epik_Tot_Q>  (226) 
-1

>  <i_epik_Tot_abs_Q>  (226) 
1

>  <s_lp_Force_Field>  (226) 
OPLS3e

>  <r_lp_Energy>  (226) 
64.2282

>  <b_lp_Chiralities_Consistent>  (226) 
1

>  <s_lp_Variant>  (226) 
75:0-1

>  <s_i_glide_gridfile>  (226) 
pfpi4k_grid

>  <i_i_glide_lignum>  (226) 
27

>  <i_i_glide_rotatable_bonds>  (226) 
2

>  <r_i_docking_score>  (226) 
-2.18972

>  <r_i_glide_ligand_efficiency>  (226) 
-0.0755075

>  <r_i_glide_ligand_efficiency_sa>  (226) 
-0.231983

>  <r_i_glide_ligand_efficiency_ln>  (226) 
-0.50139

>  <r_i_glide_gscore>  (226) 
-2.18972

>  <r_i_glide_lipo>  (226) 
-0.498224

>  <r_i_glide_hbond>  (226) 
-0.0270225

>  <r_i_glide_metal>  (226) 
-0

>  <r_i_glide_rewards>  (226) 
-0.68464

>  <r_i_glide_evdw>  (226) 
-20.8068

>  <r_i_glide_ecoul>  (226) 
0.613902

>  <r_i_glide_erotb>  (226) 
0

>  <r_i_glide_esite>  (226) 
-0.0315745

>  <r_i_glide_emodel>  (226) 
-23.2272

>  <r_i_glide_energy>  (226) 
-20.1929

>  <r_i_glide_einternal>  (226) 
1.15994

>  <r_i_glide_intrahb_reward>  (226) 
-0

>  <i_i_glide_confnum>  (226) 
1

>  <i_i_glide_posenum>  (226) 
38

>  <r_i_glide_eff_state_penalty>  (226) 
0

>  <ligand_id>  (226) 
75

>  <original_smiles>  (226) 
CC1CCC2(C)CCC3(C)C(=CCC4C3CCC3(O)C(C(=O)O)CC43C)C2C1C

>  <smiles>  (226) 
[H]OC12C([H])([H])C([H])([H])C3([H])C([H])(C([H])([H])C([H])=C4C5([H])C([H])(C([H])([H])[H])C([H])(C([H])([H])[H])C([H])([H])C([H])([H])C5(C([H])([H])[H])C([H])([H])C([H])([H])C43C([H])([H])[H])C1(C([H])([H])[H])C([H])([H])C2([H])C(=O)[O-]

$$$$
76:0:0
     RDKit          3D

 61 67  0  0  1  0  0  0  0  0999 V2000
    2.7716    0.6549    2.5087 C   0  0  0  0  0  0  0  0  0  0  0  0
    3.8167    0.1469    1.6658 O   0  0  0  0  0  0  0  0  0  0  0  0
    4.1737   -1.2358    1.6612 C   0  0  2  0  0  0  0  0  0  0  0  0
    4.2183   -1.6223    3.1811 C   0  0  0  0  0  0  0  0  0  0  0  0
    5.1850   -2.7344    3.6040 C   0  0  0  0  0  0  0  0  0  0  0  0
    4.7772   -4.0800    3.0438 C   0  0  1  0  0  0  0  0  0  0  0  0
    5.3612   -5.2106    3.6386 O   0  0  0  0  0  0  0  0  0  0  0  0
    4.5496   -6.1193    2.9856 C   0  0  1  0  0  0  0  0  0  0  0  0
    3.2789   -5.7764    3.3772 O   0  0  0  0  0  0  0  0  0  0  0  0
    3.2670   -4.4116    3.3700 C   0  0  1  0  0  0  0  0  0  0  0  0
    2.8649   -3.9705    4.6380 O   0  0  0  0  0  0  0  0  0  0  0  0
    4.7055   -5.8851    1.4571 C   0  0  2  0  0  0  0  0  0  0  0  0
    3.5440   -6.7777    0.8465 C   0  0  1  0  0  0  0  0  0  0  0  0
    2.2142   -6.8645    1.3151 O   0  0  0  0  0  0  0  0  0  0  0  0
    3.7504   -5.5182    0.2728 C   0  0  1  0  0  0  0  0  0  0  0  0
    2.8712   -4.3909    0.4500 O   0  0  0  0  0  0  0  0  0  0  0  0
    3.1119   -3.1556   -0.3033 C   0  0  2  0  0  0  0  0  0  0  0  0
    3.9662   -3.1460   -1.6648 C   0  0  1  0  0  0  0  0  0  0  0  0
    4.3148   -1.7777   -2.0792 N   0  0  0  0  0  0  0  0  0  0  0  0
    4.1013   -1.2821   -3.3196 C   0  0  0  0  0  0  0  0  0  0  0  0
    3.8824    0.2133   -3.3840 C   0  0  0  0  0  0  0  0  0  0  0  0
    3.9994   -1.9571   -4.3491 O   0  0  0  0  0  0  0  0  0  0  0  0
    5.2517   -4.0152   -1.8621 C   0  0  0  0  0  0  0  0  0  0  0  0
    6.2125   -3.9831   -0.6781 C   0  0  0  0  0  0  0  0  0  0  0  0
    7.5692   -3.8050   -1.0486 C   0  0  0  0  0  0  0  0  0  0  0  0
    8.2057   -2.7254   -0.5153 C   0  0  0  0  0  0  0  0  0  0  0  0
    7.5479   -1.8922    0.3883 C   0  0  0  0  0  0  0  0  0  0  0  0
    8.1445   -0.6544    0.4968 O   0  0  0  0  0  0  0  0  0  0  0  0
    6.2697   -2.2447    0.8185 C   0  0  0  0  0  0  0  0  0  0  0  0
    5.6453   -3.4281    0.4893 C   0  0  0  0  0  0  0  0  0  0  0  0
    5.3421   -4.4827    1.6356 C   0  0  1  0  0  0  0  0  0  0  0  0
    5.5087   -1.1573    1.2348 O   0  0  0  0  0  0  0  0  0  0  0  0
    3.0873   -1.8445    0.6208 C   0  0  1  0  0  0  0  0  0  0  0  0
    1.8581   -2.0013    1.2820 O   0  0  0  0  0  0  0  0  0  0  0  0
    2.2888    1.5107    2.0408 H   0  0  0  0  0  0  0  0  0  0  0  0
    3.1774    0.9744    3.4648 H   0  0  0  0  0  0  0  0  0  0  0  0
    1.9822   -0.0513    2.7432 H   0  0  0  0  0  0  0  0  0  0  0  0
    4.6340   -0.7827    3.7446 H   0  0  0  0  0  0  0  0  0  0  0  0
    3.2263   -1.7943    3.5781 H   0  0  0  0  0  0  0  0  0  0  0  0
    6.2067   -2.4990    3.3151 H   0  0  0  0  0  0  0  0  0  0  0  0
    5.1893   -2.7887    4.7024 H   0  0  0  0  0  0  0  0  0  0  0  0
    4.7831   -7.1373    3.2687 H   0  0  0  0  0  0  0  0  0  0  0  0
    2.5219   -4.0255    2.6774 H   0  0  0  0  0  0  0  0  0  0  0  0
    3.5934   -4.1096    5.2269 H   0  0  0  0  0  0  0  0  0  0  0  0
    3.8395   -7.6668    0.2974 H   0  0  0  0  0  0  0  0  0  0  0  0
    2.2792   -7.0012    2.2536 H   0  0  0  0  0  0  0  0  0  0  0  0
    3.9884   -5.7287   -0.7231 H   0  0  0  0  0  0  0  0  0  0  0  0
    2.1267   -3.0531   -0.7856 H   0  0  0  0  0  0  0  0  0  0  0  0
    3.2928   -3.5295   -2.4210 H   0  0  0  0  0  0  0  0  0  0  0  0
    4.6155   -1.1498   -1.3223 H   0  0  0  0  0  0  0  0  0  0  0  0
    3.9952    0.5574   -2.3654 H   0  0  0  0  0  0  0  0  0  0  0  0
    2.8987    0.4538   -3.7769 H   0  0  0  0  0  0  0  0  0  0  0  0
    4.5526    0.7905   -4.0021 H   0  0  0  0  0  0  0  0  0  0  0  0
    5.0434   -5.0324   -2.1927 H   0  0  0  0  0  0  0  0  0  0  0  0
    5.8172   -3.6551   -2.7301 H   0  0  0  0  0  0  0  0  0  0  0  0
    8.0790   -4.0532   -1.9720 H   0  0  0  0  0  0  0  0  0  0  0  0
    9.1091   -2.3724   -0.9909 H   0  0  0  0  0  0  0  0  0  0  0  0
    7.6494   -0.0892    1.0749 H   0  0  0  0  0  0  0  0  0  0  0  0
    6.4006   -4.7155    1.7909 H   0  0  0  0  0  0  0  0  0  0  0  0
    2.9674   -0.9995   -0.0401 H   0  0  0  0  0  0  0  0  0  0  0  0
    1.2520   -1.5742    0.6435 H   0  0  0  0  0  0  0  0  0  0  0  0
  1  2  1  0
  1 35  1  0
  1 36  1  0
  1 37  1  0
  3  2  1  1
  3 32  1  0
  3 33  1  0
  3  4  1  0
  4  5  1  0
  4 38  1  0
  4 39  1  0
  6  5  1  1
  5 40  1  0
  5 41  1  0
  6 10  1  0
  6 31  1  0
  6  7  1  0
  7  8  1  0
  8  9  1  0
 12  8  1  1
  8 42  1  6
  9 10  1  0
 10 11  1  0
 10 43  1  6
 11 44  1  0
 12 15  1  0
 12 31  1  0
 12 13  1  0
 13 14  1  0
 13 15  1  0
 13 45  1  6
 14 46  1  0
 15 16  1  0
 15 47  1  6
 16 17  1  0
 17 18  1  0
 17 33  1  0
 17 48  1  6
 18 19  1  0
 18 23  1  0
 18 49  1  6
 19 20  1  0
 19 50  1  0
 20 21  1  0
 20 22  2  0
 21 51  1  0
 21 52  1  0
 21 53  1  0
 23 24  1  0
 23 54  1  0
 23 55  1  0
 24 30  2  0
 24 25  1  0
 25 26  2  0
 25 56  1  0
 26 27  1  0
 26 57  1  0
 27 28  1  0
 27 29  2  0
 28 58  1  0
 29 30  1  0
 29 32  1  0
 30 31  1  0
 31 59  1  1
 33 34  1  0
 33 60  1  6
 34 61  1  0
M  END
>  <i_m_ct_stereo_status>  (227) 
1

>  <s_m_source_file>  (227) 
/var/tmp/pbs.5076255.sched01/tmp378oxcv0/78pm6kuo1p.sdf

>  <i_m_source_file_index>  (227) 
28

>  <i_lp_mmshare_version>  (227) 
48012

>  <i_f3d_flags>  (227) 
0

>  <s_epik_input>  (227) 
W0NIM11PW0NAQF0oW0NIMl1bQ0gyXTEpKFtDQEBIXTJbT0hdKU9jKGMoW09IXSlbY0hdW2NIXTMpYzRjM1tDSDJdW0NASF0oW05IXUMoPU8pW0NIM10pW0NIXTJPW0NASF0oW0NAQEhdNVtPSF0pW0NAXTUoW0NAQEhdNEMxNjcpW0NAQEhdKE82KU9bQ0BIXTdbT0hd

>  <s_epik_cmdline>  (227) 
J2VwaWtfcHl0aG9uJywgJy1waHQnLCAnMi4wJywgJy1waCcsICc3LjAnLCAnLXRuJywgJzgnLCAnLW1hJywgJzIwMCcsICctaW1hZScsICc8aW5maWxlLm1hZT4nLCAnLW9tYWUnLCAnPG91dGZpbGUubWFlPic=

>  <r_lp_tautomer_probability>  (227) 
1

>  <r_epik_Ionization_Penalty>  (227) 
0.000324426

>  <r_epik_Ionization_Penalty_Charging>  (227) 
0

>  <r_epik_Ionization_Penalty_Neutral>  (227) 
0.000324426

>  <r_epik_State_Penalty>  (227) 
-0

>  <r_epik_Charging_Adjusted_Penalty>  (227) 
0

>  <i_epik_Tot_Q>  (227) 
0

>  <i_epik_Tot_abs_Q>  (227) 
0

>  <s_epik_Chemistry_Notes>  (227) 
This compound contains an acetal/aminal-like group ( X-CH(R)-Y where X, Y are N, S, or O) that may be acid/base labile, releasing an aldehyde.

>  <s_lp_Force_Field>  (227) 
OPLS3e

>  <r_lp_Energy>  (227) 
236.118

>  <b_lp_Chiralities_Consistent>  (227) 
1

>  <s_lp_Variant>  (227) 
76:0-1

>  <s_i_glide_gridfile>  (227) 
pfpi4k_grid

>  <i_i_glide_lignum>  (227) 
28

>  <i_i_glide_rotatable_bonds>  (227) 
7

>  <r_i_docking_score>  (227) 
-3.95051

>  <r_i_glide_ligand_efficiency>  (227) 
-0.116191

>  <r_i_glide_ligand_efficiency_sa>  (227) 
-0.376415

>  <r_i_glide_ligand_efficiency_ln>  (227) 
-0.872778

>  <r_i_glide_gscore>  (227) 
-3.95051

>  <r_i_glide_lipo>  (227) 
-0.529537

>  <r_i_glide_hbond>  (227) 
-0.293395

>  <r_i_glide_metal>  (227) 
-0

>  <r_i_glide_rewards>  (227) 
-0.839568

>  <r_i_glide_evdw>  (227) 
-0.303213

>  <r_i_glide_ecoul>  (227) 
-15.4062

>  <r_i_glide_erotb>  (227) 
0.0622018

>  <r_i_glide_esite>  (227) 
-0.0241182

>  <r_i_glide_emodel>  (227) 
-18.0346

>  <r_i_glide_energy>  (227) 
-15.7094

>  <r_i_glide_einternal>  (227) 
14.4597

>  <r_i_glide_intrahb_reward>  (227) 
-0.5

>  <i_i_glide_confnum>  (227) 
1

>  <i_i_glide_posenum>  (227) 
25

>  <r_i_glide_eff_state_penalty>  (227) 
0

>  <ligand_id>  (227) 
76

>  <original_smiles>  (227) 
COC12CCC34OC(OC3O)C35C(O)C3OC(C(NC(C)=O)Cc3ccc(O)c(c3C45)O1)C2O

>  <smiles>  (227) 
[H]Oc1c([H])c([H])c2c3c1OC1(OC([H])([H])[H])C([H])([H])C([H])([H])C45OC([H])(OC4([H])O[H])C4(C([H])(O[H])C4([H])OC([H])(C1([H])O[H])C([H])(N([H])C(=O)C([H])([H])[H])C2([H])[H])C35[H]

$$$$
76:0:1
     RDKit          3D

 61 67  0  0  1  0  0  0  0  0999 V2000
    2.9162    0.9405    2.4511 C   0  0  0  0  0  0  0  0  0  0  0  0
    3.9209    0.3515    1.5979 O   0  0  0  0  0  0  0  0  0  0  0  0
    4.2400   -1.0261    1.6369 C   0  0  2  0  0  0  0  0  0  0  0  0
    4.2488   -1.3904    3.1599 C   0  0  0  0  0  0  0  0  0  0  0  0
    5.1433   -2.5521    3.5926 C   0  0  0  0  0  0  0  0  0  0  0  0
    4.6697   -3.8776    3.0393 C   0  0  1  0  0  0  0  0  0  0  0  0
    5.2167   -5.0306    3.6335 O   0  0  0  0  0  0  0  0  0  0  0  0
    4.3407   -5.8903    2.9961 C   0  0  1  0  0  0  0  0  0  0  0  0
    3.0784   -5.4870    3.3664 O   0  0  0  0  0  0  0  0  0  0  0  0
    3.1374   -4.1276    3.3545 C   0  0  1  0  0  0  0  0  0  0  0  0
    2.7558   -3.6478    4.6218 O   0  0  0  0  0  0  0  0  0  0  0  0
    4.5043   -5.6692    1.4755 C   0  0  2  0  0  0  0  0  0  0  0  0
    3.3359   -6.5324    0.8551 C   0  0  1  0  0  0  0  0  0  0  0  0
    1.9929   -6.6187    1.2838 O   0  0  0  0  0  0  0  0  0  0  0  0
    3.5768   -5.2885    0.2631 C   0  0  1  0  0  0  0  0  0  0  0  0
    2.7685   -4.1094    0.4294 O   0  0  0  0  0  0  0  0  0  0  0  0
    3.1009   -2.8957   -0.3122 C   0  0  2  0  0  0  0  0  0  0  0  0
    3.9676   -2.9538   -1.6840 C   0  0  1  0  0  0  0  0  0  0  0  0
    4.3823   -1.5969   -2.0903 N   0  0  0  0  0  0  0  0  0  0  0  0
    4.1602   -1.0834   -3.3179 C   0  0  0  0  0  0  0  0  0  0  0  0
    3.9141    0.4074   -3.4458 C   0  0  0  0  0  0  0  0  0  0  0  0
    4.0569   -1.7803   -4.3204 O   0  0  0  0  0  0  0  0  0  0  0  0
    5.2215   -3.8853   -1.8718 C   0  0  0  0  0  0  0  0  0  0  0  0
    6.1734   -3.8791   -0.6882 C   0  0  0  0  0  0  0  0  0  0  0  0
    7.5251   -3.7460   -1.1040 C   0  0  0  0  0  0  0  0  0  0  0  0
    8.2049   -2.7083   -0.5458 C   0  0  0  0  0  0  0  0  0  0  0  0
    7.5808   -1.8339    0.3566 C   0  0  0  0  0  0  0  0  0  0  0  0
    8.2131   -0.6738    0.4803 O   0  0  0  0  0  0  0  0  0  0  0  0
    6.2611   -2.1412    0.8086 C   0  0  0  0  0  0  0  0  0  0  0  0
    5.5895   -3.2997    0.4643 C   0  0  0  0  0  0  0  0  0  0  0  0
    5.2121   -4.3007    1.6243 C   0  0  1  0  0  0  0  0  0  0  0  0
    5.5803   -1.0238    1.2025 O   0  0  0  0  0  0  0  0  0  0  0  0
    3.1018   -1.5885    0.6355 C   0  0  1  0  0  0  0  0  0  0  0  0
    1.8814   -1.6751    1.3198 O   0  0  0  0  0  0  0  0  0  0  0  0
    2.4579    1.8115    1.9809 H   0  0  0  0  0  0  0  0  0  0  0  0
    3.3108    1.2466    3.4171 H   0  0  0  0  0  0  0  0  0  0  0  0
    2.0884    0.2983    2.7076 H   0  0  0  0  0  0  0  0  0  0  0  0
    4.6900   -0.5506    3.7102 H   0  0  0  0  0  0  0  0  0  0  0  0
    3.2317   -1.5062    3.5433 H   0  0  0  0  0  0  0  0  0  0  0  0
    6.1703   -2.3596    3.3111 H   0  0  0  0  0  0  0  0  0  0  0  0
    5.1279   -2.5790    4.6823 H   0  0  0  0  0  0  0  0  0  0  0  0
    4.5247   -6.9127    3.2938 H   0  0  0  0  0  0  0  0  0  0  0  0
    2.4162   -3.7216    2.6503 H   0  0  0  0  0  0  0  0  0  0  0  0
    3.4329   -3.8982    5.2293 H   0  0  0  0  0  0  0  0  0  0  0  0
    3.6376   -7.4271    0.3325 H   0  0  0  0  0  0  0  0  0  0  0  0
    1.9497   -7.3352    1.9006 H   0  0  0  0  0  0  0  0  0  0  0  0
    3.8541   -5.4925   -0.7316 H   0  0  0  0  0  0  0  0  0  0  0  0
    2.1483   -2.7462   -0.8030 H   0  0  0  0  0  0  0  0  0  0  0  0
    3.2607   -3.2927   -2.4426 H   0  0  0  0  0  0  0  0  0  0  0  0
    4.7262   -0.9776   -1.3626 H   0  0  0  0  0  0  0  0  0  0  0  0
    3.9796    0.7601   -2.4381 H   0  0  0  0  0  0  0  0  0  0  0  0
    2.9133    0.5503   -3.8674 H   0  0  0  0  0  0  0  0  0  0  0  0
    4.6174    1.0259   -3.9933 H   0  0  0  0  0  0  0  0  0  0  0  0
    4.9829   -4.8917   -2.2031 H   0  0  0  0  0  0  0  0  0  0  0  0
    5.7653   -3.5482   -2.7617 H   0  0  0  0  0  0  0  0  0  0  0  0
    8.0272   -4.0352   -2.0338 H   0  0  0  0  0  0  0  0  0  0  0  0
    9.1509   -2.4165   -0.9917 H   0  0  0  0  0  0  0  0  0  0  0  0
    7.7865   -0.0727    1.0833 H   0  0  0  0  0  0  0  0  0  0  0  0
    6.2414   -4.6115    1.8191 H   0  0  0  0  0  0  0  0  0  0  0  0
    3.0308   -0.7523   -0.0753 H   0  0  0  0  0  0  0  0  0  0  0  0
    1.3139   -1.2764    0.6830 H   0  0  0  0  0  0  0  0  0  0  0  0
  1  2  1  0
  1 35  1  0
  1 36  1  0
  1 37  1  0
  3  2  1  1
  3 32  1  0
  3 33  1  0
  3  4  1  0
  4  5  1  0
  4 38  1  0
  4 39  1  0
  6  5  1  1
  5 40  1  0
  5 41  1  0
  6 10  1  0
  6 31  1  0
  6  7  1  0
  7  8  1  0
  8  9  1  0
 12  8  1  1
  8 42  1  6
  9 10  1  0
 10 11  1  0
 10 43  1  6
 11 44  1  0
 12 15  1  0
 12 31  1  0
 12 13  1  0
 13 14  1  0
 13 15  1  0
 13 45  1  6
 14 46  1  0
 15 16  1  0
 15 47  1  6
 16 17  1  0
 17 18  1  0
 17 33  1  0
 17 48  1  6
 18 19  1  0
 18 23  1  0
 18 49  1  6
 19 20  1  0
 19 50  1  0
 20 21  1  0
 20 22  2  0
 21 51  1  0
 21 52  1  0
 21 53  1  0
 23 24  1  0
 23 54  1  0
 23 55  1  0
 24 30  2  0
 24 25  1  0
 25 26  2  0
 25 56  1  0
 26 27  1  0
 26 57  1  0
 27 28  1  0
 27 29  2  0
 28 58  1  0
 29 30  1  0
 29 32  1  0
 30 31  1  0
 31 59  1  1
 33 34  1  0
 33 60  1  6
 34 61  1  0
M  END
>  <i_m_ct_stereo_status>  (228) 
1

>  <s_m_source_file>  (228) 
/var/tmp/pbs.5076255.sched01/tmp378oxcv0/78pm6kuo1p.sdf

>  <i_m_source_file_index>  (228) 
28

>  <i_lp_mmshare_version>  (228) 
48012

>  <i_f3d_flags>  (228) 
0

>  <s_epik_input>  (228) 
W0NIM11PW0NAQF0oW0NIMl1bQ0gyXTEpKFtDQEBIXTJbT0hdKU9jKGMoW09IXSlbY0hdW2NIXTMpYzRjM1tDSDJdW0NASF0oW05IXUMoPU8pW0NIM10pW0NIXTJPW0NASF0oW0NAQEhdNVtPSF0pW0NAXTUoW0NAQEhdNEMxNjcpW0NAQEhdKE82KU9bQ0BIXTdbT0hd

>  <s_epik_cmdline>  (228) 
J2VwaWtfcHl0aG9uJywgJy1waHQnLCAnMi4wJywgJy1waCcsICc3LjAnLCAnLXRuJywgJzgnLCAnLW1hJywgJzIwMCcsICctaW1hZScsICc8aW5maWxlLm1hZT4nLCAnLW9tYWUnLCAnPG91dGZpbGUubWFlPic=

>  <r_lp_tautomer_probability>  (228) 
1

>  <r_epik_Ionization_Penalty>  (228) 
0.000324426

>  <r_epik_Ionization_Penalty_Charging>  (228) 
0

>  <r_epik_Ionization_Penalty_Neutral>  (228) 
0.000324426

>  <r_epik_State_Penalty>  (228) 
-0

>  <r_epik_Charging_Adjusted_Penalty>  (228) 
0

>  <i_epik_Tot_Q>  (228) 
0

>  <i_epik_Tot_abs_Q>  (228) 
0

>  <s_epik_Chemistry_Notes>  (228) 
This compound contains an acetal/aminal-like group ( X-CH(R)-Y where X, Y are N, S, or O) that may be acid/base labile, releasing an aldehyde.

>  <s_lp_Force_Field>  (228) 
OPLS3e

>  <r_lp_Energy>  (228) 
236.118

>  <b_lp_Chiralities_Consistent>  (228) 
1

>  <s_lp_Variant>  (228) 
76:0-1

>  <s_i_glide_gridfile>  (228) 
pfpi4k_grid

>  <i_i_glide_lignum>  (228) 
28

>  <i_i_glide_rotatable_bonds>  (228) 
7

>  <r_i_docking_score>  (228) 
-3.46095

>  <r_i_glide_ligand_efficiency>  (228) 
-0.101793

>  <r_i_glide_ligand_efficiency_sa>  (228) 
-0.329769

>  <r_i_glide_ligand_efficiency_ln>  (228) 
-0.764621

>  <r_i_glide_gscore>  (228) 
-3.46095

>  <r_i_glide_lipo>  (228) 
-0.475651

>  <r_i_glide_hbond>  (228) 
-0.291154

>  <r_i_glide_metal>  (228) 
-0

>  <r_i_glide_rewards>  (228) 
-0.402216

>  <r_i_glide_evdw>  (228) 
0.219287

>  <r_i_glide_ecoul>  (228) 
-16.9943

>  <r_i_glide_erotb>  (228) 
0.0888598

>  <r_i_glide_esite>  (228) 
-0.0328366

>  <r_i_glide_emodel>  (228) 
-11.8453

>  <r_i_glide_energy>  (228) 
-16.775

>  <r_i_glide_einternal>  (228) 
15.9713

>  <r_i_glide_intrahb_reward>  (228) 
-0

>  <i_i_glide_confnum>  (228) 
1

>  <i_i_glide_posenum>  (228) 
29

>  <r_i_glide_eff_state_penalty>  (228) 
0

>  <ligand_id>  (228) 
76

>  <original_smiles>  (228) 
COC12CCC34OC(OC3O)C35C(O)C3OC(C(NC(C)=O)Cc3ccc(O)c(c3C45)O1)C2O

>  <smiles>  (228) 
[H]Oc1c([H])c([H])c2c3c1OC1(OC([H])([H])[H])C([H])([H])C([H])([H])C45OC([H])(OC4([H])O[H])C4(C([H])(O[H])C4([H])OC([H])(C1([H])O[H])C([H])(N([H])C(=O)C([H])([H])[H])C2([H])[H])C35[H]

$$$$
76:0:2
     RDKit          3D

 61 67  0  0  1  0  0  0  0  0999 V2000
    2.9138    0.9864    2.8980 C   0  0  0  0  0  0  0  0  0  0  0  0
    3.7841    0.4005    1.9068 O   0  0  0  0  0  0  0  0  0  0  0  0
    4.0746   -0.9853    1.8958 C   0  0  2  0  0  0  0  0  0  0  0  0
    4.1819   -1.3846    3.4059 C   0  0  0  0  0  0  0  0  0  0  0  0
    5.0692   -2.5729    3.7459 C   0  0  0  0  0  0  0  0  0  0  0  0
    4.5150   -3.8755    3.2150 C   0  0  1  0  0  0  0  0  0  0  0  0
    5.0791   -5.0474    3.7467 O   0  0  0  0  0  0  0  0  0  0  0  0
    4.1409   -5.8868    3.1559 C   0  0  1  0  0  0  0  0  0  0  0  0
    2.9182   -5.4620    3.6450 O   0  0  0  0  0  0  0  0  0  0  0  0
    3.0074   -4.0983    3.6430 C   0  0  1  0  0  0  0  0  0  0  0  0
    2.7349   -3.5999    4.9395 O   0  0  0  0  0  0  0  0  0  0  0  0
    4.1947   -5.6468    1.6147 C   0  0  2  0  0  0  0  0  0  0  0  0
    2.9565   -6.4635    1.0792 C   0  0  1  0  0  0  0  0  0  0  0  0
    1.6618   -6.5304    1.6487 O   0  0  0  0  0  0  0  0  0  0  0  0
    3.1862   -5.2314    0.4493 C   0  0  1  0  0  0  0  0  0  0  0  0
    2.4479   -4.0401    0.7279 O   0  0  0  0  0  0  0  0  0  0  0  0
    2.7767   -2.8127    0.0137 C   0  0  2  0  0  0  0  0  0  0  0  0
    3.4991   -2.8630   -1.4263 C   0  0  1  0  0  0  0  0  0  0  0  0
    3.9028   -1.5255   -1.8630 N   0  0  0  0  0  0  0  0  0  0  0  0
    3.8681   -1.0887   -3.1462 C   0  0  0  0  0  0  0  0  0  0  0  0
    3.8077    0.4038   -3.3563 C   0  0  0  0  0  0  0  0  0  0  0  0
    3.8507   -1.8097   -4.1353 O   0  0  0  0  0  0  0  0  0  0  0  0
    4.7183   -3.8018   -1.7082 C   0  0  0  0  0  0  0  0  0  0  0  0
    5.7358   -3.8765   -0.5985 C   0  0  0  0  0  0  0  0  0  0  0  0
    7.0124   -3.6919   -1.1600 C   0  0  0  0  0  0  0  0  0  0  0  0
    7.8037   -2.7071   -0.6361 C   0  0  0  0  0  0  0  0  0  0  0  0
    7.2601   -1.8314    0.3033 C   0  0  0  0  0  0  0  0  0  0  0  0
    7.9276   -0.6540    0.4862 O   0  0  0  0  0  0  0  0  0  0  0  0
    5.9920   -2.1371    0.8802 C   0  0  0  0  0  0  0  0  0  0  0  0
    5.2719   -3.2979    0.5919 C   0  0  0  0  0  0  0  0  0  0  0  0
    4.9296   -4.2984    1.7644 C   0  0  1  0  0  0  0  0  0  0  0  0
    5.3795   -1.0066    1.3654 O   0  0  0  0  0  0  0  0  0  0  0  0
    2.8617   -1.5041    0.9430 C   0  0  1  0  0  0  0  0  0  0  0  0
    1.6490   -1.5388    1.6952 O   0  0  0  0  0  0  0  0  0  0  0  0
    2.4098    1.8778    2.5151 H   0  0  0  0  0  0  0  0  0  0  0  0
    3.4466    1.2832    3.8027 H   0  0  0  0  0  0  0  0  0  0  0  0
    2.1141    0.3349    3.2333 H   0  0  0  0  0  0  0  0  0  0  0  0
    4.6789   -0.5653    3.9243 H   0  0  0  0  0  0  0  0  0  0  0  0
    3.1915   -1.4822    3.8396 H   0  0  0  0  0  0  0  0  0  0  0  0
    6.0794   -2.3999    3.4047 H   0  0  0  0  0  0  0  0  0  0  0  0
    5.1255   -2.6059    4.8322 H   0  0  0  0  0  0  0  0  0  0  0  0
    4.3357   -6.9160    3.4447 H   0  0  0  0  0  0  0  0  0  0  0  0
    2.2510   -3.6753    2.9821 H   0  0  0  0  0  0  0  0  0  0  0  0
    1.8336   -3.7839    5.1462 H   0  0  0  0  0  0  0  0  0  0  0  0
    3.1645   -7.3648    0.5097 H   0  0  0  0  0  0  0  0  0  0  0  0
    1.6850   -7.2163    2.3037 H   0  0  0  0  0  0  0  0  0  0  0  0
    3.2729   -5.4535   -0.5949 H   0  0  0  0  0  0  0  0  0  0  0  0
    1.8009   -2.6556   -0.3933 H   0  0  0  0  0  0  0  0  0  0  0  0
    2.7289   -3.1691   -2.1396 H   0  0  0  0  0  0  0  0  0  0  0  0
    4.1590   -0.8620   -1.1444 H   0  0  0  0  0  0  0  0  0  0  0  0
    3.9382    0.8447   -2.3915 H   0  0  0  0  0  0  0  0  0  0  0  0
    2.9307    0.7282   -3.9166 H   0  0  0  0  0  0  0  0  0  0  0  0
    4.5926    0.8696   -3.9071 H   0  0  0  0  0  0  0  0  0  0  0  0
    4.4545   -4.7845   -2.0063 H   0  0  0  0  0  0  0  0  0  0  0  0
    5.1786   -3.5036   -2.6516 H   0  0  0  0  0  0  0  0  0  0  0  0
    7.2677   -3.9369   -2.1889 H   0  0  0  0  0  0  0  0  0  0  0  0
    8.7379   -2.4770   -1.1441 H   0  0  0  0  0  0  0  0  0  0  0  0
    7.4414   -0.0426    0.9985 H   0  0  0  0  0  0  0  0  0  0  0  0
    5.9609   -4.6318    1.8842 H   0  0  0  0  0  0  0  0  0  0  0  0
    2.7063   -0.6707    0.2550 H   0  0  0  0  0  0  0  0  0  0  0  0
    1.0299   -1.0288    1.1569 H   0  0  0  0  0  0  0  0  0  0  0  0
  1  2  1  0
  1 35  1  0
  1 36  1  0
  1 37  1  0
  3  2  1  1
  3 32  1  0
  3 33  1  0
  3  4  1  0
  4  5  1  0
  4 38  1  0
  4 39  1  0
  6  5  1  1
  5 40  1  0
  5 41  1  0
  6 10  1  0
  6 31  1  0
  6  7  1  0
  7  8  1  0
  8  9  1  0
 12  8  1  1
  8 42  1  6
  9 10  1  0
 10 11  1  0
 10 43  1  6
 11 44  1  0
 12 15  1  0
 12 31  1  0
 12 13  1  0
 13 14  1  0
 13 15  1  0
 13 45  1  6
 14 46  1  0
 15 16  1  0
 15 47  1  6
 16 17  1  0
 17 18  1  0
 17 33  1  0
 17 48  1  6
 18 19  1  0
 18 23  1  0
 18 49  1  6
 19 20  1  0
 19 50  1  0
 20 21  1  0
 20 22  2  0
 21 51  1  0
 21 52  1  0
 21 53  1  0
 23 24  1  0
 23 54  1  0
 23 55  1  0
 24 30  2  0
 24 25  1  0
 25 26  2  0
 25 56  1  0
 26 27  1  0
 26 57  1  0
 27 28  1  0
 27 29  2  0
 28 58  1  0
 29 30  1  0
 29 32  1  0
 30 31  1  0
 31 59  1  1
 33 34  1  0
 33 60  1  6
 34 61  1  0
M  END
>  <i_m_ct_stereo_status>  (229) 
1

>  <s_m_source_file>  (229) 
/var/tmp/pbs.5076255.sched01/tmp378oxcv0/78pm6kuo1p.sdf

>  <i_m_source_file_index>  (229) 
28

>  <i_lp_mmshare_version>  (229) 
48012

>  <i_f3d_flags>  (229) 
0

>  <s_epik_input>  (229) 
W0NIM11PW0NAQF0oW0NIMl1bQ0gyXTEpKFtDQEBIXTJbT0hdKU9jKGMoW09IXSlbY0hdW2NIXTMpYzRjM1tDSDJdW0NASF0oW05IXUMoPU8pW0NIM10pW0NIXTJPW0NASF0oW0NAQEhdNVtPSF0pW0NAXTUoW0NAQEhdNEMxNjcpW0NAQEhdKE82KU9bQ0BIXTdbT0hd

>  <s_epik_cmdline>  (229) 
J2VwaWtfcHl0aG9uJywgJy1waHQnLCAnMi4wJywgJy1waCcsICc3LjAnLCAnLXRuJywgJzgnLCAnLW1hJywgJzIwMCcsICctaW1hZScsICc8aW5maWxlLm1hZT4nLCAnLW9tYWUnLCAnPG91dGZpbGUubWFlPic=

>  <r_lp_tautomer_probability>  (229) 
1

>  <r_epik_Ionization_Penalty>  (229) 
0.000324426

>  <r_epik_Ionization_Penalty_Charging>  (229) 
0

>  <r_epik_Ionization_Penalty_Neutral>  (229) 
0.000324426

>  <r_epik_State_Penalty>  (229) 
-0

>  <r_epik_Charging_Adjusted_Penalty>  (229) 
0

>  <i_epik_Tot_Q>  (229) 
0

>  <i_epik_Tot_abs_Q>  (229) 
0

>  <s_epik_Chemistry_Notes>  (229) 
This compound contains an acetal/aminal-like group ( X-CH(R)-Y where X, Y are N, S, or O) that may be acid/base labile, releasing an aldehyde.

>  <s_lp_Force_Field>  (229) 
OPLS3e

>  <r_lp_Energy>  (229) 
236.118

>  <b_lp_Chiralities_Consistent>  (229) 
1

>  <s_lp_Variant>  (229) 
76:0-1

>  <s_i_glide_gridfile>  (229) 
pfpi4k_grid

>  <i_i_glide_lignum>  (229) 
28

>  <i_i_glide_rotatable_bonds>  (229) 
7

>  <r_i_docking_score>  (229) 
-2.69826

>  <r_i_glide_ligand_efficiency>  (229) 
-0.0793606

>  <r_i_glide_ligand_efficiency_sa>  (229) 
-0.257097

>  <r_i_glide_ligand_efficiency_ln>  (229) 
-0.596121

>  <r_i_glide_gscore>  (229) 
-2.69826

>  <r_i_glide_lipo>  (229) 
-0.43515

>  <r_i_glide_hbond>  (229) 
-0.234521

>  <r_i_glide_metal>  (229) 
-0

>  <r_i_glide_rewards>  (229) 
-0.301624

>  <r_i_glide_evdw>  (229) 
3.1376

>  <r_i_glide_ecoul>  (229) 
-13.2337

>  <r_i_glide_erotb>  (229) 
0.0888598

>  <r_i_glide_esite>  (229) 
-0.0548142

>  <r_i_glide_emodel>  (229) 
-5.21636

>  <r_i_glide_energy>  (229) 
-10.0961

>  <r_i_glide_einternal>  (229) 
13.0632

>  <r_i_glide_intrahb_reward>  (229) 
-0

>  <i_i_glide_confnum>  (229) 
3

>  <i_i_glide_posenum>  (229) 
22

>  <r_i_glide_eff_state_penalty>  (229) 
0

>  <ligand_id>  (229) 
76

>  <original_smiles>  (229) 
COC12CCC34OC(OC3O)C35C(O)C3OC(C(NC(C)=O)Cc3ccc(O)c(c3C45)O1)C2O

>  <smiles>  (229) 
[H]Oc1c([H])c([H])c2c3c1OC1(OC([H])([H])[H])C([H])([H])C([H])([H])C45OC([H])(OC4([H])O[H])C4(C([H])(O[H])C4([H])OC([H])(C1([H])O[H])C([H])(N([H])C(=O)C([H])([H])[H])C2([H])[H])C35[H]

$$$$
78:0:0
     RDKit          3D

 58 63  0  0  1  0  0  0  0  0999 V2000
    2.7616   -4.7291    6.6376 C   0  0  0  0  0  0  0  0  0  0  0  0
    2.3619   -5.4748    5.3357 C   0  0  0  0  0  0  0  0  0  0  0  0
    1.9206   -6.8918    5.8225 C   0  0  0  0  0  0  0  0  0  0  0  0
    1.1512   -4.7366    4.7460 C   0  0  0  0  0  0  0  0  0  0  0  0
    0.0099   -5.1806    4.8807 O   0  0  0  0  0  0  0  0  0  0  0  0
    1.4224   -3.4689    4.0788 C   0  0  0  0  0  0  0  0  0  0  0  0
    2.6499   -3.1739    3.6184 C   0  0  0  0  0  0  0  0  0  0  0  0
    3.8797   -4.0866    3.5670 C   0  0  1  0  0  0  0  0  0  0  0  0
    4.9374   -3.4669    4.5415 C   0  0  0  0  0  0  0  0  0  0  0  0
    3.5125   -5.5104    4.2243 C   0  0  2  0  0  0  0  0  0  0  0  0
    3.1636   -6.6575    3.2408 C   0  0  0  0  0  0  0  0  0  0  0  0
    4.1787   -6.9128    2.1201 C   0  0  1  0  0  0  0  0  0  0  0  0
    3.6518   -6.6733    0.8410 O   0  0  0  0  0  0  0  0  0  0  0  0
    2.9854   -5.5120    0.6204 C   0  0  0  0  0  0  0  0  0  0  0  0
    1.8150   -5.4584    0.2347 O   0  0  0  0  0  0  0  0  0  0  0  0
    3.8818   -4.2728    0.7175 C   0  0  1  0  0  0  0  0  0  0  0  0
    3.2944   -2.9539    0.1880 C   0  0  1  0  0  0  0  0  0  0  0  0
    2.2397   -2.3123    0.8771 O   0  0  0  0  0  0  0  0  0  0  0  0
    4.6350   -2.2251    0.3054 C   0  0  1  0  0  0  0  0  0  0  0  0
    5.0639   -2.5526    1.7656 C   0  0  0  0  0  0  0  0  0  0  0  0
    4.5938   -4.0269    2.0960 C   0  0  1  0  0  0  0  0  0  0  0  0
    5.7626   -5.0586    1.9877 C   0  0  2  0  0  0  0  0  0  0  0  0
    6.1604   -5.2165    0.5151 C   0  0  0  0  0  0  0  0  0  0  0  0
    5.1079   -4.4384   -0.2759 C   0  0  2  0  0  0  0  0  0  0  0  0
    5.5240   -2.9891   -0.6918 C   0  0  0  0  0  0  0  0  0  0  0  0
    5.1546   -2.6857   -2.1722 C   0  0  0  0  0  0  0  0  0  0  0  0
    7.0204   -2.6016   -0.5752 C   0  0  0  0  0  0  0  0  0  0  0  0
    5.4275   -6.3651    2.4437 O   0  0  0  0  0  0  0  0  0  0  0  0
    3.7538   -5.0261    6.9847 H   0  0  0  0  0  0  0  0  0  0  0  0
    2.0639   -4.9403    7.4493 H   0  0  0  0  0  0  0  0  0  0  0  0
    2.7390   -3.6429    6.5240 H   0  0  0  0  0  0  0  0  0  0  0  0
    2.7715   -7.4935    6.1496 H   0  0  0  0  0  0  0  0  0  0  0  0
    1.3849   -7.4519    5.0506 H   0  0  0  0  0  0  0  0  0  0  0  0
    1.2242   -6.8347    6.6616 H   0  0  0  0  0  0  0  0  0  0  0  0
    0.6299   -2.7374    4.0338 H   0  0  0  0  0  0  0  0  0  0  0  0
    2.7801   -2.1705    3.2504 H   0  0  0  0  0  0  0  0  0  0  0  0
    5.8584   -4.0469    4.5655 H   0  0  0  0  0  0  0  0  0  0  0  0
    4.6072   -3.4085    5.5701 H   0  0  0  0  0  0  0  0  0  0  0  0
    5.2131   -2.4425    4.3051 H   0  0  0  0  0  0  0  0  0  0  0  0
    4.4092   -5.8646    4.7375 H   0  0  0  0  0  0  0  0  0  0  0  0
    3.2155   -7.5890    3.8018 H   0  0  0  0  0  0  0  0  0  0  0  0
    2.1410   -6.6208    2.8667 H   0  0  0  0  0  0  0  0  0  0  0  0
    4.3746   -7.9853    2.0880 H   0  0  0  0  0  0  0  0  0  0  0  0
    2.9283   -3.0726   -0.8276 H   0  0  0  0  0  0  0  0  0  0  0  0
    1.7858   -1.7206    0.2656 H   0  0  0  0  0  0  0  0  0  0  0  0
    4.5819   -1.1565    0.0961 H   0  0  0  0  0  0  0  0  0  0  0  0
    6.1193   -2.4048    1.9730 H   0  0  0  0  0  0  0  0  0  0  0  0
    4.5764   -1.8009    2.3754 H   0  0  0  0  0  0  0  0  0  0  0  0
    6.6365   -4.7331    2.5537 H   0  0  0  0  0  0  0  0  0  0  0  0
    7.1868   -4.9195    0.3271 H   0  0  0  0  0  0  0  0  0  0  0  0
    6.1338   -6.2612    0.2110 H   0  0  0  0  0  0  0  0  0  0  0  0
    4.8354   -5.0076   -1.1678 H   0  0  0  0  0  0  0  0  0  0  0  0
    5.8882   -3.1152   -2.8554 H   0  0  0  0  0  0  0  0  0  0  0  0
    5.1354   -1.6113   -2.3590 H   0  0  0  0  0  0  0  0  0  0  0  0
    4.1930   -3.0868   -2.4879 H   0  0  0  0  0  0  0  0  0  0  0  0
    7.6320   -3.1492   -1.2942 H   0  0  0  0  0  0  0  0  0  0  0  0
    7.4649   -2.7641    0.4044 H   0  0  0  0  0  0  0  0  0  0  0  0
    7.1354   -1.5413   -0.7805 H   0  0  0  0  0  0  0  0  0  0  0  0
  1  2  1  0
  1 29  1  0
  1 30  1  0
  1 31  1  0
  2 10  1  0
  2  3  1  0
  2  4  1  0
  3 32  1  0
  3 33  1  0
  3 34  1  0
  4  5  2  0
  4  6  1  0
  6  7  2  0
  6 35  1  0
  7  8  1  0
  7 36  1  0
  8 21  1  0
  8  9  1  1
  8 10  1  0
  9 37  1  0
  9 38  1  0
  9 39  1  0
 10 11  1  0
 10 40  1  1
 11 12  1  0
 11 41  1  0
 11 42  1  0
 12 28  1  0
 12 13  1  0
 12 43  1  6
 13 14  1  0
 14 15  2  0
 16 14  1  1
 16 21  1  0
 16 24  1  0
 16 17  1  0
 17 18  1  0
 17 19  1  0
 17 44  1  6
 18 45  1  0
 19 25  1  0
 19 20  1  0
 19 46  1  6
 21 20  1  6
 20 47  1  0
 20 48  1  0
 21 22  1  0
 22 23  1  0
 22 28  1  0
 22 49  1  1
 23 24  1  0
 23 50  1  0
 23 51  1  0
 24 25  1  0
 24 52  1  6
 25 26  1  0
 25 27  1  0
 26 53  1  0
 26 54  1  0
 26 55  1  0
 27 56  1  0
 27 57  1  0
 27 58  1  0
M  END
>  <i_m_ct_stereo_status>  (230) 
1

>  <s_m_source_file>  (230) 
/var/tmp/pbs.5076255.sched01/tmp378oxcv0/78pm6kuo1p.sdf

>  <i_m_source_file_index>  (230) 
30

>  <i_lp_mmshare_version>  (230) 
48012

>  <i_f3d_flags>  (230) 
0

>  <s_epik_input>  (230) 
W0NIXTE9W0NIXUMoPU8pQyhbQ0gzXSkoW0NIM10pW0NASF0oW0NAQF0xKFtDSDNdKVtDQEBdMjNbQ0BAXTQ1NilbQ0gyXVtDQEBIXShPQzQ9TylPW0NASF0zW0NIMl1bQ0BASF02QyhbQ0gzXSkoW0NIM10pW0NASF0oW0NIMl0yKVtDQEBIXTVbT0hd

>  <s_epik_cmdline>  (230) 
J2VwaWtfcHl0aG9uJywgJy1waHQnLCAnMi4wJywgJy1waCcsICc3LjAnLCAnLXRuJywgJzgnLCAnLW1hJywgJzIwMCcsICctaW1hZScsICc8aW5maWxlLm1hZT4nLCAnLW9tYWUnLCAnPG91dGZpbGUubWFlPic=

>  <r_lp_tautomer_probability>  (230) 
1

>  <r_epik_Ionization_Penalty>  (230) 
5.45983e-08

>  <r_epik_Ionization_Penalty_Charging>  (230) 
0

>  <r_epik_Ionization_Penalty_Neutral>  (230) 
5.45983e-08

>  <r_epik_State_Penalty>  (230) 
-0

>  <r_epik_Charging_Adjusted_Penalty>  (230) 
0

>  <i_epik_Tot_Q>  (230) 
0

>  <i_epik_Tot_abs_Q>  (230) 
0

>  <s_epik_Chemistry_Notes>  (230) 
This compound has an ester and may undergo hydrolysis at high or low pH. This compound contains an acetal/aminal-like group ( X-CH(R)-Y where X, Y are N, S, or O) that may be acid/base labile, releasing an aldehyde.

>  <s_lp_Force_Field>  (230) 
OPLS3e

>  <r_lp_Energy>  (230) 
110.726

>  <b_lp_Chiralities_Consistent>  (230) 
1

>  <s_lp_Variant>  (230) 
78:0-1

>  <s_i_glide_gridfile>  (230) 
pfpi4k_grid

>  <i_i_glide_lignum>  (230) 
30

>  <i_i_glide_rotatable_bonds>  (230) 
1

>  <r_i_docking_score>  (230) 
-3.3484

>  <r_i_glide_ligand_efficiency>  (230) 
-0.119586

>  <r_i_glide_ligand_efficiency_sa>  (230) 
-0.363132

>  <r_i_glide_ligand_efficiency_ln>  (230) 
-0.772908

>  <r_i_glide_gscore>  (230) 
-3.3484

>  <r_i_glide_lipo>  (230) 
-0.46756

>  <r_i_glide_hbond>  (230) 
-0.0872731

>  <r_i_glide_metal>  (230) 
-0

>  <r_i_glide_rewards>  (230) 
-0.801673

>  <r_i_glide_evdw>  (230) 
-23.1331

>  <r_i_glide_ecoul>  (230) 
-5.40459

>  <r_i_glide_erotb>  (230) 
0

>  <r_i_glide_esite>  (230) 
-0.0245454

>  <r_i_glide_emodel>  (230) 
-34.8676

>  <r_i_glide_energy>  (230) 
-28.5377

>  <r_i_glide_einternal>  (230) 
0.741963

>  <r_i_glide_intrahb_reward>  (230) 
-0

>  <i_i_glide_confnum>  (230) 
1

>  <i_i_glide_posenum>  (230) 
1

>  <r_i_glide_eff_state_penalty>  (230) 
0

>  <ligand_id>  (230) 
78

>  <original_smiles>  (230) 
CC1(C)C(=O)C=CC2(C)C1CC1OC(=O)C34C(O)C5CC23C(CC4C5(C)C)O1

>  <smiles>  (230) 
[H]OC1([H])C2([H])C([H])([H])C34C5([H])OC([H])(OC(=O)C13C([H])(C5([H])[H])C2(C([H])([H])[H])C([H])([H])[H])C([H])([H])C1([H])C(C([H])([H])[H])(C([H])([H])[H])C(=O)C([H])=C([H])C14C([H])([H])[H]

$$$$
78:0:1
     RDKit          3D

 58 63  0  0  1  0  0  0  0  0999 V2000
    5.6319   -8.2472    3.8914 C   0  0  0  0  0  0  0  0  0  0  0  0
    5.4588   -6.7506    4.2654 C   0  0  0  0  0  0  0  0  0  0  0  0
    4.9555   -6.7738    5.7446 C   0  0  0  0  0  0  0  0  0  0  0  0
    6.8532   -6.1101    4.2047 C   0  0  0  0  0  0  0  0  0  0  0  0
    7.4842   -5.8556    5.2316 O   0  0  0  0  0  0  0  0  0  0  0  0
    7.3949   -5.8586    2.8739 C   0  0  0  0  0  0  0  0  0  0  0  0
    6.5864   -5.7503    1.8074 C   0  0  0  0  0  0  0  0  0  0  0  0
    5.0529   -5.7384    1.7822 C   0  0  1  0  0  0  0  0  0  0  0  0
    4.6102   -7.0354    1.0215 C   0  0  0  0  0  0  0  0  0  0  0  0
    4.4949   -5.9399    3.2801 C   0  0  2  0  0  0  0  0  0  0  0  0
    4.0409   -4.6576    4.0256 C   0  0  0  0  0  0  0  0  0  0  0  0
    3.0527   -3.7536    3.2787 C   0  0  1  0  0  0  0  0  0  0  0  0
    3.5799   -2.4785    3.0036 O   0  0  0  0  0  0  0  0  0  0  0  0
    4.7976   -2.3951    2.4137 C   0  0  0  0  0  0  0  0  0  0  0  0
    5.7364   -1.7430    2.8755 O   0  0  0  0  0  0  0  0  0  0  0  0
    4.8518   -2.9887    1.0057 C   0  0  1  0  0  0  0  0  0  0  0  0
    6.1062   -2.6738    0.1816 C   0  0  1  0  0  0  0  0  0  0  0  0
    7.3327   -3.2553    0.5565 O   0  0  0  0  0  0  0  0  0  0  0  0
    5.5081   -3.2517   -1.0976 C   0  0  1  0  0  0  0  0  0  0  0  0
    5.0095   -4.6400   -0.6149 C   0  0  0  0  0  0  0  0  0  0  0  0
    4.4877   -4.5104    0.8668 C   0  0  1  0  0  0  0  0  0  0  0  0
    2.9348   -4.4197    0.9316 C   0  0  2  0  0  0  0  0  0  0  0  0
    2.4940   -3.0727    0.3475 C   0  0  0  0  0  0  0  0  0  0  0  0
    3.7641   -2.2767    0.1036 C   0  0  2  0  0  0  0  0  0  0  0  0
    4.3080   -2.3261   -1.3627 C   0  0  0  0  0  0  0  0  0  0  0  0
    4.7375   -0.9202   -1.8535 C   0  0  0  0  0  0  0  0  0  0  0  0
    3.3646   -2.8447   -2.4810 C   0  0  0  0  0  0  0  0  0  0  0  0
    2.4033   -4.4545    2.2530 O   0  0  0  0  0  0  0  0  0  0  0  0
    4.6751   -8.7214    3.6586 H   0  0  0  0  0  0  0  0  0  0  0  0
    6.0799   -8.8137    4.7095 H   0  0  0  0  0  0  0  0  0  0  0  0
    6.3093   -8.3934    3.0470 H   0  0  0  0  0  0  0  0  0  0  0  0
    3.9236   -7.1264    5.8174 H   0  0  0  0  0  0  0  0  0  0  0  0
    5.0143   -5.7925    6.2232 H   0  0  0  0  0  0  0  0  0  0  0  0
    5.5646   -7.4299    6.3704 H   0  0  0  0  0  0  0  0  0  0  0  0
    8.4674   -5.8214    2.7630 H   0  0  0  0  0  0  0  0  0  0  0  0
    7.0863   -5.6595    0.8585 H   0  0  0  0  0  0  0  0  0  0  0  0
    3.5262   -7.1219    0.9452 H   0  0  0  0  0  0  0  0  0  0  0  0
    4.9439   -7.9520    1.4895 H   0  0  0  0  0  0  0  0  0  0  0  0
    5.0022   -7.1088    0.0112 H   0  0  0  0  0  0  0  0  0  0  0  0
    3.5829   -6.5354    3.1996 H   0  0  0  0  0  0  0  0  0  0  0  0
    3.4444   -4.9772    4.8799 H   0  0  0  0  0  0  0  0  0  0  0  0
    4.8616   -4.0875    4.4592 H   0  0  0  0  0  0  0  0  0  0  0  0
    2.2385   -3.5153    3.9645 H   0  0  0  0  0  0  0  0  0  0  0  0
    6.2971   -1.6026    0.1481 H   0  0  0  0  0  0  0  0  0  0  0  0
    7.5413   -2.9325    1.4215 H   0  0  0  0  0  0  0  0  0  0  0  0
    6.2000   -3.3039   -1.9372 H   0  0  0  0  0  0  0  0  0  0  0  0
    4.2491   -5.0536   -1.2541 H   0  0  0  0  0  0  0  0  0  0  0  0
    5.8475   -5.3142   -0.7155 H   0  0  0  0  0  0  0  0  0  0  0  0
    2.4594   -5.2228    0.3646 H   0  0  0  0  0  0  0  0  0  0  0  0
    1.8638   -3.1890   -0.5302 H   0  0  0  0  0  0  0  0  0  0  0  0
    1.8636   -2.5261    1.0511 H   0  0  0  0  0  0  0  0  0  0  0  0
    3.5958   -1.2370    0.3989 H   0  0  0  0  0  0  0  0  0  0  0  0
    3.8729   -0.3361   -2.1713 H   0  0  0  0  0  0  0  0  0  0  0  0
    5.4008   -0.9948   -2.7141 H   0  0  0  0  0  0  0  0  0  0  0  0
    5.2332   -0.3129   -1.0983 H   0  0  0  0  0  0  0  0  0  0  0  0
    2.5176   -2.1729   -2.6226 H   0  0  0  0  0  0  0  0  0  0  0  0
    2.9427   -3.8313   -2.3047 H   0  0  0  0  0  0  0  0  0  0  0  0
    3.8910   -2.9012   -3.4330 H   0  0  0  0  0  0  0  0  0  0  0  0
  1  2  1  0
  1 29  1  0
  1 30  1  0
  1 31  1  0
  2 10  1  0
  2  3  1  0
  2  4  1  0
  3 32  1  0
  3 33  1  0
  3 34  1  0
  4  5  2  0
  4  6  1  0
  6  7  2  0
  6 35  1  0
  7  8  1  0
  7 36  1  0
  8 21  1  0
  8  9  1  6
  8 10  1  0
  9 37  1  0
  9 38  1  0
  9 39  1  0
 10 11  1  0
 10 40  1  6
 11 12  1  0
 11 41  1  0
 11 42  1  0
 12 28  1  0
 12 13  1  0
 12 43  1  1
 13 14  1  0
 14 15  2  0
 16 14  1  1
 16 21  1  0
 16 24  1  0
 16 17  1  0
 17 18  1  0
 17 19  1  0
 17 44  1  6
 18 45  1  0
 19 25  1  0
 19 20  1  0
 19 46  1  6
 21 20  1  6
 20 47  1  0
 20 48  1  0
 21 22  1  0
 22 23  1  0
 22 28  1  0
 22 49  1  6
 23 24  1  0
 23 50  1  0
 23 51  1  0
 24 25  1  0
 24 52  1  1
 25 26  1  0
 25 27  1  0
 26 53  1  0
 26 54  1  0
 26 55  1  0
 27 56  1  0
 27 57  1  0
 27 58  1  0
M  END
>  <i_m_ct_stereo_status>  (231) 
1

>  <s_m_source_file>  (231) 
/var/tmp/pbs.5076255.sched01/tmp378oxcv0/78pm6kuo1p.sdf

>  <i_m_source_file_index>  (231) 
30

>  <i_lp_mmshare_version>  (231) 
48012

>  <i_f3d_flags>  (231) 
0

>  <s_epik_input>  (231) 
W0NIXTE9W0NIXUMoPU8pQyhbQ0gzXSkoW0NIM10pW0NASF0oW0NAQF0xKFtDSDNdKVtDQEBdMjNbQ0BAXTQ1NilbQ0gyXVtDQEBIXShPQzQ9TylPW0NASF0zW0NIMl1bQ0BASF02QyhbQ0gzXSkoW0NIM10pW0NASF0oW0NIMl0yKVtDQEBIXTVbT0hd

>  <s_epik_cmdline>  (231) 
J2VwaWtfcHl0aG9uJywgJy1waHQnLCAnMi4wJywgJy1waCcsICc3LjAnLCAnLXRuJywgJzgnLCAnLW1hJywgJzIwMCcsICctaW1hZScsICc8aW5maWxlLm1hZT4nLCAnLW9tYWUnLCAnPG91dGZpbGUubWFlPic=

>  <r_lp_tautomer_probability>  (231) 
1

>  <r_epik_Ionization_Penalty>  (231) 
5.45983e-08

>  <r_epik_Ionization_Penalty_Charging>  (231) 
0

>  <r_epik_Ionization_Penalty_Neutral>  (231) 
5.45983e-08

>  <r_epik_State_Penalty>  (231) 
-0

>  <r_epik_Charging_Adjusted_Penalty>  (231) 
0

>  <i_epik_Tot_Q>  (231) 
0

>  <i_epik_Tot_abs_Q>  (231) 
0

>  <s_epik_Chemistry_Notes>  (231) 
This compound has an ester and may undergo hydrolysis at high or low pH. This compound contains an acetal/aminal-like group ( X-CH(R)-Y where X, Y are N, S, or O) that may be acid/base labile, releasing an aldehyde.

>  <s_lp_Force_Field>  (231) 
OPLS3e

>  <r_lp_Energy>  (231) 
110.726

>  <b_lp_Chiralities_Consistent>  (231) 
1

>  <s_lp_Variant>  (231) 
78:0-1

>  <s_i_glide_gridfile>  (231) 
pfpi4k_grid

>  <i_i_glide_lignum>  (231) 
30

>  <i_i_glide_rotatable_bonds>  (231) 
1

>  <r_i_docking_score>  (231) 
-2.57072

>  <r_i_glide_ligand_efficiency>  (231) 
-0.0918113

>  <r_i_glide_ligand_efficiency_sa>  (231) 
-0.278793

>  <r_i_glide_ligand_efficiency_ln>  (231) 
-0.593397

>  <r_i_glide_gscore>  (231) 
-2.57072

>  <r_i_glide_lipo>  (231) 
-0.398532

>  <r_i_glide_hbond>  (231) 
0

>  <r_i_glide_metal>  (231) 
-0

>  <r_i_glide_rewards>  (231) 
-0.834625

>  <r_i_glide_evdw>  (231) 
-23.353

>  <r_i_glide_ecoul>  (231) 
-1.13272

>  <r_i_glide_erotb>  (231) 
0

>  <r_i_glide_esite>  (231) 
-3.57443e-06

>  <r_i_glide_emodel>  (231) 
-29.5803

>  <r_i_glide_energy>  (231) 
-24.4857

>  <r_i_glide_einternal>  (231) 
0.330687

>  <r_i_glide_intrahb_reward>  (231) 
-0

>  <i_i_glide_confnum>  (231) 
1

>  <i_i_glide_posenum>  (231) 
28

>  <r_i_glide_eff_state_penalty>  (231) 
0

>  <ligand_id>  (231) 
78

>  <original_smiles>  (231) 
CC1(C)C(=O)C=CC2(C)C1CC1OC(=O)C34C(O)C5CC23C(CC4C5(C)C)O1

>  <smiles>  (231) 
[H]OC1([H])C2([H])C([H])([H])C34C5([H])OC([H])(OC(=O)C13C([H])(C5([H])[H])C2(C([H])([H])[H])C([H])([H])[H])C([H])([H])C1([H])C(C([H])([H])[H])(C([H])([H])[H])C(=O)C([H])=C([H])C14C([H])([H])[H]

$$$$
78:0:2
     RDKit          3D

 58 63  0  0  1  0  0  0  0  0999 V2000
    5.6754   -8.2474    3.9013 C   0  0  0  0  0  0  0  0  0  0  0  0
    5.5123   -6.7496    4.2721 C   0  0  0  0  0  0  0  0  0  0  0  0
    5.0258   -6.7696    5.7574 C   0  0  0  0  0  0  0  0  0  0  0  0
    6.9114   -6.1135    4.1965 C   0  0  0  0  0  0  0  0  0  0  0  0
    7.5487   -5.8665    5.2170 O   0  0  0  0  0  0  0  0  0  0  0  0
    7.4344   -5.8603    2.8588 C   0  0  0  0  0  0  0  0  0  0  0  0
    6.6153   -5.7609    1.8025 C   0  0  0  0  0  0  0  0  0  0  0  0
    5.0808   -5.7428    1.7942 C   0  0  1  0  0  0  0  0  0  0  0  0
    4.6243   -7.0391    1.0411 C   0  0  0  0  0  0  0  0  0  0  0  0
    4.5401   -5.9398    3.2972 C   0  0  2  0  0  0  0  0  0  0  0  0
    4.0998   -4.6543    4.0448 C   0  0  0  0  0  0  0  0  0  0  0  0
    3.1056   -3.7490    3.3050 C   0  0  1  0  0  0  0  0  0  0  0  0
    3.6334   -2.4705    3.0195 O   0  0  0  0  0  0  0  0  0  0  0  0
    4.8551   -2.3897    2.4224 C   0  0  0  0  0  0  0  0  0  0  0  0
    5.7965   -1.7226    2.8628 O   0  0  0  0  0  0  0  0  0  0  0  0
    4.8887   -2.9950    1.0178 C   0  0  1  0  0  0  0  0  0  0  0  0
    6.1329   -2.6917    0.1735 C   0  0  1  0  0  0  0  0  0  0  0  0
    7.3623   -3.2934    0.5064 O   0  0  0  0  0  0  0  0  0  0  0  0
    5.5137   -3.2649   -1.0983 C   0  0  1  0  0  0  0  0  0  0  0  0
    5.0118   -4.6497   -0.6053 C   0  0  0  0  0  0  0  0  0  0  0  0
    4.5135   -4.5149    0.8838 C   0  0  1  0  0  0  0  0  0  0  0  0
    2.9601   -4.4189    0.9642 C   0  0  2  0  0  0  0  0  0  0  0  0
    2.5199   -3.0712    0.3831 C   0  0  0  0  0  0  0  0  0  0  0  0
    3.7927   -2.2819    0.1241 C   0  0  2  0  0  0  0  0  0  0  0  0
    4.3163   -2.3355   -1.3493 C   0  0  0  0  0  0  0  0  0  0  0  0
    4.7457   -0.9319   -1.8464 C   0  0  0  0  0  0  0  0  0  0  0  0
    3.3565   -2.8513   -2.4564 C   0  0  0  0  0  0  0  0  0  0  0  0
    2.4400   -4.4543    2.2908 O   0  0  0  0  0  0  0  0  0  0  0  0
    4.7141   -8.7198    3.6798 H   0  0  0  0  0  0  0  0  0  0  0  0
    6.1299   -8.8168    4.7150 H   0  0  0  0  0  0  0  0  0  0  0  0
    6.3418   -8.3995    3.0501 H   0  0  0  0  0  0  0  0  0  0  0  0
    3.9924   -7.1180    5.8433 H   0  0  0  0  0  0  0  0  0  0  0  0
    5.0937   -5.7887    6.2342 H   0  0  0  0  0  0  0  0  0  0  0  0
    5.6387   -7.4275    6.3789 H   0  0  0  0  0  0  0  0  0  0  0  0
    8.5067   -5.8262    2.7371 H   0  0  0  0  0  0  0  0  0  0  0  0
    7.1024   -5.6756    0.8487 H   0  0  0  0  0  0  0  0  0  0  0  0
    3.5390   -7.1228    0.9762 H   0  0  0  0  0  0  0  0  0  0  0  0
    4.9600   -7.9564    1.5063 H   0  0  0  0  0  0  0  0  0  0  0  0
    5.0014   -7.1182    0.0257 H   0  0  0  0  0  0  0  0  0  0  0  0
    3.6240   -6.5327    3.2285 H   0  0  0  0  0  0  0  0  0  0  0  0
    3.5123   -4.9698    4.9075 H   0  0  0  0  0  0  0  0  0  0  0  0
    4.9276   -4.0858    4.4670 H   0  0  0  0  0  0  0  0  0  0  0  0
    2.3014   -3.5064    4.0014 H   0  0  0  0  0  0  0  0  0  0  0  0
    6.3348   -1.6227    0.1366 H   0  0  0  0  0  0  0  0  0  0  0  0
    8.0022   -3.0626   -0.1528 H   0  0  0  0  0  0  0  0  0  0  0  0
    6.1888   -3.3227   -1.9527 H   0  0  0  0  0  0  0  0  0  0  0  0
    4.2434   -5.0675   -1.2306 H   0  0  0  0  0  0  0  0  0  0  0  0
    5.8464   -5.3281   -0.7140 H   0  0  0  0  0  0  0  0  0  0  0  0
    2.4745   -5.2201    0.4029 H   0  0  0  0  0  0  0  0  0  0  0  0
    1.8771   -3.1843   -0.4864 H   0  0  0  0  0  0  0  0  0  0  0  0
    1.8986   -2.5200    1.0927 H   0  0  0  0  0  0  0  0  0  0  0  0
    3.6285   -1.2414    0.4165 H   0  0  0  0  0  0  0  0  0  0  0  0
    3.8812   -0.3435   -2.1587 H   0  0  0  0  0  0  0  0  0  0  0  0
    5.4019   -1.0103   -2.7108 H   0  0  0  0  0  0  0  0  0  0  0  0
    5.2506   -0.3249   -1.0969 H   0  0  0  0  0  0  0  0  0  0  0  0
    2.5101   -2.1762   -2.5909 H   0  0  0  0  0  0  0  0  0  0  0  0
    2.9333   -3.8356   -2.2726 H   0  0  0  0  0  0  0  0  0  0  0  0
    3.8721   -2.9123   -3.4143 H   0  0  0  0  0  0  0  0  0  0  0  0
  1  2  1  0
  1 29  1  0
  1 30  1  0
  1 31  1  0
  2 10  1  0
  2  3  1  0
  2  4  1  0
  3 32  1  0
  3 33  1  0
  3 34  1  0
  4  5  2  0
  4  6  1  0
  6  7  2  0
  6 35  1  0
  7  8  1  0
  7 36  1  0
  8 21  1  0
  8  9  1  6
  8 10  1  0
  9 37  1  0
  9 38  1  0
  9 39  1  0
 10 11  1  0
 10 40  1  6
 11 12  1  0
 11 41  1  0
 11 42  1  0
 12 28  1  0
 12 13  1  0
 12 43  1  1
 13 14  1  0
 14 15  2  0
 16 14  1  1
 16 21  1  0
 16 24  1  0
 16 17  1  0
 17 18  1  0
 17 19  1  0
 17 44  1  6
 18 45  1  0
 19 25  1  0
 19 20  1  0
 19 46  1  6
 21 20  1  6
 20 47  1  0
 20 48  1  0
 21 22  1  0
 22 23  1  0
 22 28  1  0
 22 49  1  6
 23 24  1  0
 23 50  1  0
 23 51  1  0
 24 25  1  0
 24 52  1  1
 25 26  1  0
 25 27  1  0
 26 53  1  0
 26 54  1  0
 26 55  1  0
 27 56  1  0
 27 57  1  0
 27 58  1  0
M  END
>  <i_m_ct_stereo_status>  (232) 
1

>  <s_m_source_file>  (232) 
/var/tmp/pbs.5076255.sched01/tmp378oxcv0/78pm6kuo1p.sdf

>  <i_m_source_file_index>  (232) 
30

>  <i_lp_mmshare_version>  (232) 
48012

>  <i_f3d_flags>  (232) 
0

>  <s_epik_input>  (232) 
W0NIXTE9W0NIXUMoPU8pQyhbQ0gzXSkoW0NIM10pW0NASF0oW0NAQF0xKFtDSDNdKVtDQEBdMjNbQ0BAXTQ1NilbQ0gyXVtDQEBIXShPQzQ9TylPW0NASF0zW0NIMl1bQ0BASF02QyhbQ0gzXSkoW0NIM10pW0NASF0oW0NIMl0yKVtDQEBIXTVbT0hd

>  <s_epik_cmdline>  (232) 
J2VwaWtfcHl0aG9uJywgJy1waHQnLCAnMi4wJywgJy1waCcsICc3LjAnLCAnLXRuJywgJzgnLCAnLW1hJywgJzIwMCcsICctaW1hZScsICc8aW5maWxlLm1hZT4nLCAnLW9tYWUnLCAnPG91dGZpbGUubWFlPic=

>  <r_lp_tautomer_probability>  (232) 
1

>  <r_epik_Ionization_Penalty>  (232) 
5.45983e-08

>  <r_epik_Ionization_Penalty_Charging>  (232) 
0

>  <r_epik_Ionization_Penalty_Neutral>  (232) 
5.45983e-08

>  <r_epik_State_Penalty>  (232) 
-0

>  <r_epik_Charging_Adjusted_Penalty>  (232) 
0

>  <i_epik_Tot_Q>  (232) 
0

>  <i_epik_Tot_abs_Q>  (232) 
0

>  <s_epik_Chemistry_Notes>  (232) 
This compound has an ester and may undergo hydrolysis at high or low pH. This compound contains an acetal/aminal-like group ( X-CH(R)-Y where X, Y are N, S, or O) that may be acid/base labile, releasing an aldehyde.

>  <s_lp_Force_Field>  (232) 
OPLS3e

>  <r_lp_Energy>  (232) 
110.726

>  <b_lp_Chiralities_Consistent>  (232) 
1

>  <s_lp_Variant>  (232) 
78:0-1

>  <s_i_glide_gridfile>  (232) 
pfpi4k_grid

>  <i_i_glide_lignum>  (232) 
30

>  <i_i_glide_rotatable_bonds>  (232) 
1

>  <r_i_docking_score>  (232) 
-2.54697

>  <r_i_glide_ligand_efficiency>  (232) 
-0.0909633

>  <r_i_glide_ligand_efficiency_sa>  (232) 
-0.276218

>  <r_i_glide_ligand_efficiency_ln>  (232) 
-0.587916

>  <r_i_glide_gscore>  (232) 
-2.54697

>  <r_i_glide_lipo>  (232) 
-0.401278

>  <r_i_glide_hbond>  (232) 
0

>  <r_i_glide_metal>  (232) 
-0

>  <r_i_glide_rewards>  (232) 
-0.839797

>  <r_i_glide_evdw>  (232) 
-23.5609

>  <r_i_glide_ecoul>  (232) 
-0.852355

>  <r_i_glide_erotb>  (232) 
0

>  <r_i_glide_esite>  (232) 
0

>  <r_i_glide_emodel>  (232) 
-29.4584

>  <r_i_glide_energy>  (232) 
-24.4132

>  <r_i_glide_einternal>  (232) 
0.307256

>  <r_i_glide_intrahb_reward>  (232) 
-0

>  <i_i_glide_confnum>  (232) 
1

>  <i_i_glide_posenum>  (232) 
37

>  <r_i_glide_eff_state_penalty>  (232) 
0

>  <ligand_id>  (232) 
78

>  <original_smiles>  (232) 
CC1(C)C(=O)C=CC2(C)C1CC1OC(=O)C34C(O)C5CC23C(CC4C5(C)C)O1

>  <smiles>  (232) 
[H]OC1([H])C2([H])C([H])([H])C34C5([H])OC([H])(OC(=O)C13C([H])(C5([H])[H])C2(C([H])([H])[H])C([H])([H])[H])C([H])([H])C1([H])C(C([H])([H])[H])(C([H])([H])[H])C(=O)C([H])=C([H])C14C([H])([H])[H]

$$$$
79:0:0
     RDKit          3D

 29 33  0  0  1  0  0  0  0  0999 V2000
  -10.1916   -3.4421   -6.9253 O   0  0  0  0  0  0  0  0  0  0  0  0
   -9.0848   -4.1238   -6.3772 C   0  0  0  0  0  0  0  0  0  0  0  0
   -8.7030   -5.3274   -7.2447 C   0  0  0  0  0  0  0  0  0  0  0  0
   -7.3997   -5.9873   -6.7778 C   0  0  2  0  0  0  0  0  0  0  0  0
   -6.8288   -7.2495   -7.4933 C   0  0  2  0  0  0  0  0  0  0  0  0
   -7.7185   -8.0382   -6.5258 C   0  0  1  0  0  0  0  0  0  0  0  0
   -7.0687   -9.4049   -6.2814 C   0  0  0  0  0  0  0  0  0  0  0  0
   -5.5826   -9.0516   -6.3243 C   0  0  1  0  0  0  0  0  0  0  0  0
   -5.3972   -7.7564   -7.1421 C   0  0  2  0  0  0  0  0  0  0  0  0
   -4.9223   -7.0819   -5.8820 C   0  0  2  0  0  0  0  0  0  0  0  0
   -5.2252   -8.2803   -5.0740 C   0  0  1  0  0  0  0  0  0  0  0  0
   -6.0094   -6.9982   -4.8300 C   0  0  2  0  0  0  0  0  0  0  0  0
   -7.3869   -6.8754   -5.5195 C   0  0  1  0  0  0  0  0  0  0  0  0
  -10.4887   -2.7938   -6.2937 H   0  0  0  0  0  0  0  0  0  0  0  0
   -8.2461   -3.4368   -6.3039 H   0  0  0  0  0  0  0  0  0  0  0  0
   -9.3268   -4.4394   -5.3645 H   0  0  0  0  0  0  0  0  0  0  0  0
   -9.5525   -6.0203   -7.2560 H   0  0  0  0  0  0  0  0  0  0  0  0
   -8.5807   -5.0065   -8.2781 H   0  0  0  0  0  0  0  0  0  0  0  0
   -6.6207   -5.2292   -6.7054 H   0  0  0  0  0  0  0  0  0  0  0  0
   -7.1239   -7.3744   -8.5423 H   0  0  0  0  0  0  0  0  0  0  0  0
   -8.7572   -8.0764   -6.8489 H   0  0  0  0  0  0  0  0  0  0  0  0
   -7.3653   -9.8502   -5.3311 H   0  0  0  0  0  0  0  0  0  0  0  0
   -7.3290  -10.1052   -7.0761 H   0  0  0  0  0  0  0  0  0  0  0  0
   -4.8738   -9.8477   -6.5677 H   0  0  0  0  0  0  0  0  0  0  0  0
   -4.6705   -7.8214   -7.9531 H   0  0  0  0  0  0  0  0  0  0  0  0
   -3.9355   -6.6183   -5.7997 H   0  0  0  0  0  0  0  0  0  0  0  0
   -4.4570   -8.6553   -4.3945 H   0  0  0  0  0  0  0  0  0  0  0  0
   -5.8226   -6.3992   -3.9455 H   0  0  0  0  0  0  0  0  0  0  0  0
   -8.2125   -6.6288   -4.8417 H   0  0  0  0  0  0  0  0  0  0  0  0
  1  2  1  0
  1 14  1  0
  2  3  1  0
  2 15  1  0
  2 16  1  0
  3  4  1  0
  3 17  1  0
  3 18  1  0
  4 13  1  0
  4  5  1  0
  4 19  1  1
  5  9  1  0
  5  6  1  0
  5 20  1  6
  6 13  1  0
  6  7  1  0
  6 21  1  6
  7  8  1  0
  7 22  1  0
  7 23  1  0
  8 11  1  0
  8  9  1  0
  8 24  1  6
  9 10  1  0
  9 25  1  6
 10 12  1  0
 10 11  1  0
 10 26  1  6
 11 12  1  0
 11 27  1  1
 12 13  1  0
 12 28  1  1
 13 29  1  1
M  END
>  <i_m_ct_stereo_status>  (233) 
1

>  <s_m_source_file>  (233) 
/var/tmp/pbs.5076255.sched01/tmp378oxcv0/78pm6kuo1p.sdf

>  <i_m_source_file_index>  (233) 
31

>  <i_lp_mmshare_version>  (233) 
48012

>  <i_f3d_flags>  (233) 
2

>  <s_epik_input>  (233) 
W09IXVtDSDJdW0NIMl1bQ0BIXTFbQ0BASF0oW0NASF0yW0NAQEhdMTMpW0NIXTRbQ0BASF01W0NAQEhdM1tDSF0oW0NIMl0yKVtDQEhdNDU=

>  <s_epik_cmdline>  (233) 
J2VwaWtfcHl0aG9uJywgJy1waHQnLCAnMi4wJywgJy1waCcsICc3LjAnLCAnLXRuJywgJzgnLCAnLW1hJywgJzIwMCcsICctaW1hZScsICc8aW5maWxlLm1hZT4nLCAnLW9tYWUnLCAnPG91dGZpbGUubWFlPic=

>  <r_lp_tautomer_probability>  (233) 
1

>  <r_epik_Ionization_Penalty>  (233) 
1.35973e-06

>  <r_epik_Ionization_Penalty_Charging>  (233) 
0

>  <r_epik_Ionization_Penalty_Neutral>  (233) 
1.35973e-06

>  <r_epik_State_Penalty>  (233) 
-0

>  <r_epik_Charging_Adjusted_Penalty>  (233) 
0

>  <i_epik_Tot_Q>  (233) 
0

>  <i_epik_Tot_abs_Q>  (233) 
0

>  <s_lp_Force_Field>  (233) 
OPLS3e

>  <r_lp_Energy>  (233) 
51.692

>  <b_lp_Chiralities_Consistent>  (233) 
0

>  <s_lp_Variant>  (233) 
79:0-1

>  <s_i_glide_gridfile>  (233) 
pfpi4k_grid

>  <i_i_glide_lignum>  (233) 
31

>  <i_i_glide_rotatable_bonds>  (233) 
3

>  <r_i_docking_score>  (233) 
-5.48311

>  <r_i_glide_ligand_efficiency>  (233) 
-0.421778

>  <r_i_glide_ligand_efficiency_sa>  (233) 
-0.99174

>  <r_i_glide_ligand_efficiency_ln>  (233) 
-1.53806

>  <r_i_glide_gscore>  (233) 
-5.48311

>  <r_i_glide_lipo>  (233) 
-2.54652

>  <r_i_glide_hbond>  (233) 
-0.0121297

>  <r_i_glide_metal>  (233) 
-0

>  <r_i_glide_rewards>  (233) 
-2.20735

>  <r_i_glide_evdw>  (233) 
-15.8173

>  <r_i_glide_ecoul>  (233) 
-1.85636

>  <r_i_glide_erotb>  (233) 
0.352219

>  <r_i_glide_esite>  (233) 
0

>  <r_i_glide_emodel>  (233) 
-24.1527

>  <r_i_glide_energy>  (233) 
-17.6737

>  <r_i_glide_einternal>  (233) 
0.730942

>  <r_i_glide_intrahb_reward>  (233) 
-0

>  <i_i_glide_confnum>  (233) 
6

>  <i_i_glide_posenum>  (233) 
21

>  <r_i_glide_eff_state_penalty>  (233) 
0

>  <ligand_id>  (233) 
79

>  <original_smiles>  (233) 
OCCC1C2C3CC4C2C2C4C2C13

>  <smiles>  (233) 
[H]OC([H])([H])C([H])([H])C1([H])C2([H])C3([H])C([H])([H])C4([H])C2([H])C2([H])C4([H])C2([H])C13[H]

$$$$
79:0:1
     RDKit          3D

 29 33  0  0  1  0  0  0  0  0999 V2000
   -6.4512   -3.8596   -4.6597 O   0  0  0  0  0  0  0  0  0  0  0  0
   -7.7135   -4.4686   -4.8442 C   0  0  0  0  0  0  0  0  0  0  0  0
   -7.7075   -5.3240   -6.1174 C   0  0  0  0  0  0  0  0  0  0  0  0
   -6.6009   -6.3911   -6.1103 C   0  0  2  0  0  0  0  0  0  0  0  0
   -6.4572   -7.4075   -7.2747 C   0  0  2  0  0  0  0  0  0  0  0  0
   -7.4473   -8.2630   -6.4812 C   0  0  1  0  0  0  0  0  0  0  0  0
   -7.1811   -9.7341   -6.8127 C   0  0  0  0  0  0  0  0  0  0  0  0
   -5.6631   -9.7313   -6.9858 C   0  0  1  0  0  0  0  0  0  0  0  0
   -5.1930   -8.3034   -7.3488 C   0  0  2  0  0  0  0  0  0  0  0  0
   -4.4682   -8.2528   -6.0322 C   0  0  2  0  0  0  0  0  0  0  0  0
   -5.0308   -9.5686   -5.6266 C   0  0  1  0  0  0  0  0  0  0  0  0
   -5.3969   -8.3069   -4.8612 C   0  0  2  0  0  0  0  0  0  0  0  0
   -6.7368   -7.6378   -5.2260 C   0  0  1  0  0  0  0  0  0  0  0  0
   -5.8206   -4.5240   -4.4295 H   0  0  0  0  0  0  0  0  0  0  0  0
   -7.9523   -5.0528   -3.9582 H   0  0  0  0  0  0  0  0  0  0  0  0
   -8.4585   -3.6776   -4.9346 H   0  0  0  0  0  0  0  0  0  0  0  0
   -8.7010   -5.7565   -6.2304 H   0  0  0  0  0  0  0  0  0  0  0  0
   -7.5691   -4.6839   -6.9858 H   0  0  0  0  0  0  0  0  0  0  0  0
   -5.6359   -5.9284   -5.9145 H   0  0  0  0  0  0  0  0  0  0  0  0
   -6.8714   -7.0836   -8.2281 H   0  0  0  0  0  0  0  0  0  0  0  0
   -8.4799   -7.9355   -6.6357 H   0  0  0  0  0  0  0  0  0  0  0  0
   -7.5207  -10.4155   -6.0304 H   0  0  0  0  0  0  0  0  0  0  0  0
   -7.6785  -10.0136   -7.7418 H   0  0  0  0  0  0  0  0  0  0  0  0
   -5.2178  -10.5267   -7.5853 H   0  0  0  0  0  0  0  0  0  0  0  0
   -4.5868   -8.2159   -8.2447 H   0  0  0  0  0  0  0  0  0  0  0  0
   -3.4095   -8.0458   -5.9206 H   0  0  0  0  0  0  0  0  0  0  0  0
   -4.3639  -10.3237   -5.2195 H   0  0  0  0  0  0  0  0  0  0  0  0
   -4.9746   -8.1225   -3.8916 H   0  0  0  0  0  0  0  0  0  0  0  0
   -7.3827   -7.4378   -4.3748 H   0  0  0  0  0  0  0  0  0  0  0  0
  1  2  1  0
  1 14  1  0
  2  3  1  0
  2 15  1  0
  2 16  1  0
  3  4  1  0
  3 17  1  0
  3 18  1  0
  4 13  1  0
  4  5  1  0
  4 19  1  1
  5  9  1  0
  5  6  1  0
  5 20  1  6
  6 13  1  0
  6  7  1  0
  6 21  1  6
  7  8  1  0
  7 22  1  0
  7 23  1  0
  8 11  1  0
  8  9  1  0
  8 24  1  6
  9 10  1  0
  9 25  1  6
 10 12  1  0
 10 11  1  0
 10 26  1  6
 11 12  1  0
 11 27  1  1
 12 13  1  0
 12 28  1  1
 13 29  1  1
M  END
>  <i_m_ct_stereo_status>  (234) 
1

>  <s_m_source_file>  (234) 
/var/tmp/pbs.5076255.sched01/tmp378oxcv0/78pm6kuo1p.sdf

>  <i_m_source_file_index>  (234) 
31

>  <i_lp_mmshare_version>  (234) 
48012

>  <i_f3d_flags>  (234) 
2

>  <s_epik_input>  (234) 
W09IXVtDSDJdW0NIMl1bQ0BIXTFbQ0BASF0oW0NASF0yW0NAQEhdMTMpW0NIXTRbQ0BASF01W0NAQEhdM1tDSF0oW0NIMl0yKVtDQEhdNDU=

>  <s_epik_cmdline>  (234) 
J2VwaWtfcHl0aG9uJywgJy1waHQnLCAnMi4wJywgJy1waCcsICc3LjAnLCAnLXRuJywgJzgnLCAnLW1hJywgJzIwMCcsICctaW1hZScsICc8aW5maWxlLm1hZT4nLCAnLW9tYWUnLCAnPG91dGZpbGUubWFlPic=

>  <r_lp_tautomer_probability>  (234) 
1

>  <r_epik_Ionization_Penalty>  (234) 
1.35973e-06

>  <r_epik_Ionization_Penalty_Charging>  (234) 
0

>  <r_epik_Ionization_Penalty_Neutral>  (234) 
1.35973e-06

>  <r_epik_State_Penalty>  (234) 
-0

>  <r_epik_Charging_Adjusted_Penalty>  (234) 
0

>  <i_epik_Tot_Q>  (234) 
0

>  <i_epik_Tot_abs_Q>  (234) 
0

>  <s_lp_Force_Field>  (234) 
OPLS3e

>  <r_lp_Energy>  (234) 
51.692

>  <b_lp_Chiralities_Consistent>  (234) 
0

>  <s_lp_Variant>  (234) 
79:0-1

>  <s_i_glide_gridfile>  (234) 
pfpi4k_grid

>  <i_i_glide_lignum>  (234) 
31

>  <i_i_glide_rotatable_bonds>  (234) 
3

>  <r_i_docking_score>  (234) 
-5.18337

>  <r_i_glide_ligand_efficiency>  (234) 
-0.398721

>  <r_i_glide_ligand_efficiency_sa>  (234) 
-0.937526

>  <r_i_glide_ligand_efficiency_ln>  (234) 
-1.45398

>  <r_i_glide_gscore>  (234) 
-5.18337

>  <r_i_glide_lipo>  (234) 
-2.32587

>  <r_i_glide_hbond>  (234) 
0

>  <r_i_glide_metal>  (234) 
-0

>  <r_i_glide_rewards>  (234) 
-2.82128

>  <r_i_glide_evdw>  (234) 
-12.9592

>  <r_i_glide_ecoul>  (234) 
0.72383

>  <r_i_glide_erotb>  (234) 
0.50317

>  <r_i_glide_esite>  (234) 
0

>  <r_i_glide_emodel>  (234) 
-17.6644

>  <r_i_glide_energy>  (234) 
-12.2354

>  <r_i_glide_einternal>  (234) 
1.72405

>  <r_i_glide_intrahb_reward>  (234) 
-0

>  <i_i_glide_confnum>  (234) 
6

>  <i_i_glide_posenum>  (234) 
2

>  <r_i_glide_eff_state_penalty>  (234) 
0

>  <ligand_id>  (234) 
79

>  <original_smiles>  (234) 
OCCC1C2C3CC4C2C2C4C2C13

>  <smiles>  (234) 
[H]OC([H])([H])C([H])([H])C1([H])C2([H])C3([H])C([H])([H])C4([H])C2([H])C2([H])C4([H])C2([H])C13[H]

$$$$
79:0:2
     RDKit          3D

 29 33  0  0  1  0  0  0  0  0999 V2000
   -1.8207    4.9435    2.8794 O   0  0  0  0  0  0  0  0  0  0  0  0
   -2.4165    3.6731    2.9772 C   0  0  0  0  0  0  0  0  0  0  0  0
   -1.3636    2.5624    2.9776 C   0  0  0  0  0  0  0  0  0  0  0  0
   -0.3873    2.6485    4.1569 C   0  0  2  0  0  0  0  0  0  0  0  0
    0.7229    3.7450    4.1991 C   0  0  2  0  0  0  0  0  0  0  0  0
    1.5634    2.7206    3.4122 C   0  0  1  0  0  0  0  0  0  0  0  0
    3.0347    2.9858    3.7459 C   0  0  0  0  0  0  0  0  0  0  0  0
    2.9536    3.4170    5.2107 C   0  0  1  0  0  0  0  0  0  0  0  0
    1.5352    3.9615    5.5001 C   0  0  2  0  0  0  0  0  0  0  0  0
    1.3137    2.7931    6.4297 C   0  0  2  0  0  0  0  0  0  0  0  0
    2.6266    2.2026    6.0505 C   0  0  1  0  0  0  0  0  0  0  0  0
    1.3367    1.4680    5.6907 C   0  0  2  0  0  0  0  0  0  0  0  0
    0.7868    1.6488    4.2607 C   0  0  1  0  0  0  0  0  0  0  0  0
   -1.1553    4.8839    2.1878 H   0  0  0  0  0  0  0  0  0  0  0  0
   -3.0032    3.6313    3.8940 H   0  0  0  0  0  0  0  0  0  0  0  0
   -3.1009    3.5232    2.1380 H   0  0  0  0  0  0  0  0  0  0  0  0
   -1.8814    1.6007    3.0238 H   0  0  0  0  0  0  0  0  0  0  0  0
   -0.8451    2.5459    2.0209 H   0  0  0  0  0  0  0  0  0  0  0  0
   -0.9492    2.6625    5.0954 H   0  0  0  0  0  0  0  0  0  0  0  0
    0.5705    4.6577    3.6083 H   0  0  0  0  0  0  0  0  0  0  0  0
    1.3297    2.6843    2.3437 H   0  0  0  0  0  0  0  0  0  0  0  0
    3.6735    2.1102    3.6119 H   0  0  0  0  0  0  0  0  0  0  0  0
    3.4259    3.7911    3.1166 H   0  0  0  0  0  0  0  0  0  0  0  0
    3.7621    4.0264    5.6138 H   0  0  0  0  0  0  0  0  0  0  0  0
    1.4898    4.9474    5.9622 H   0  0  0  0  0  0  0  0  0  0  0  0
    1.0827    2.9306    7.4798 H   0  0  0  0  0  0  0  0  0  0  0  0
    3.2932    1.9009    6.8591 H   0  0  0  0  0  0  0  0  0  0  0  0
    1.0383    0.5823    6.2451 H   0  0  0  0  0  0  0  0  0  0  0  0
    0.6152    0.7255    3.6985 H   0  0  0  0  0  0  0  0  0  0  0  0
  1  2  1  0
  1 14  1  0
  2  3  1  0
  2 15  1  0
  2 16  1  0
  3  4  1  0
  3 17  1  0
  3 18  1  0
  4 13  1  0
  4  5  1  0
  4 19  1  1
  5  9  1  0
  5  6  1  0
  5 20  1  6
  6 13  1  0
  6  7  1  0
  6 21  1  6
  7  8  1  0
  7 22  1  0
  7 23  1  0
  8 11  1  0
  8  9  1  0
  8 24  1  1
  9 10  1  0
  9 25  1  1
 10 12  1  0
 10 11  1  0
 10 26  1  1
 11 12  1  0
 11 27  1  1
 12 13  1  0
 12 28  1  1
 13 29  1  6
M  END
>  <i_m_ct_stereo_status>  (235) 
1

>  <s_m_source_file>  (235) 
/var/tmp/pbs.5076255.sched01/tmp378oxcv0/78pm6kuo1p.sdf

>  <i_m_source_file_index>  (235) 
31

>  <i_lp_mmshare_version>  (235) 
48012

>  <i_f3d_flags>  (235) 
2

>  <s_epik_input>  (235) 
W09IXVtDSDJdW0NIMl1bQ0BIXTFbQ0BASF0oW0NASF0yW0NAQEhdMTMpW0NIXTRbQ0BASF01W0NAQEhdM1tDSF0oW0NIMl0yKVtDQEhdNDU=

>  <s_epik_cmdline>  (235) 
J2VwaWtfcHl0aG9uJywgJy1waHQnLCAnMi4wJywgJy1waCcsICc3LjAnLCAnLXRuJywgJzgnLCAnLW1hJywgJzIwMCcsICctaW1hZScsICc8aW5maWxlLm1hZT4nLCAnLW9tYWUnLCAnPG91dGZpbGUubWFlPic=

>  <r_lp_tautomer_probability>  (235) 
1

>  <r_epik_Ionization_Penalty>  (235) 
1.35973e-06

>  <r_epik_Ionization_Penalty_Charging>  (235) 
0

>  <r_epik_Ionization_Penalty_Neutral>  (235) 
1.35973e-06

>  <r_epik_State_Penalty>  (235) 
-0

>  <r_epik_Charging_Adjusted_Penalty>  (235) 
0

>  <i_epik_Tot_Q>  (235) 
0

>  <i_epik_Tot_abs_Q>  (235) 
0

>  <s_lp_Force_Field>  (235) 
OPLS3e

>  <r_lp_Energy>  (235) 
51.692

>  <b_lp_Chiralities_Consistent>  (235) 
0

>  <s_lp_Variant>  (235) 
79:0-1

>  <s_i_glide_gridfile>  (235) 
pfpi4k_grid

>  <i_i_glide_lignum>  (235) 
31

>  <i_i_glide_rotatable_bonds>  (235) 
3

>  <r_i_docking_score>  (235) 
-3.52485

>  <r_i_glide_ligand_efficiency>  (235) 
-0.271143

>  <r_i_glide_ligand_efficiency_sa>  (235) 
-0.637547

>  <r_i_glide_ligand_efficiency_ln>  (235) 
-0.988753

>  <r_i_glide_gscore>  (235) 
-3.52485

>  <r_i_glide_lipo>  (235) 
0

>  <r_i_glide_hbond>  (235) 
-0.32

>  <r_i_glide_metal>  (235) 
-0

>  <r_i_glide_rewards>  (235) 
-2.20735

>  <r_i_glide_evdw>  (235) 
-8.37312

>  <r_i_glide_ecoul>  (235) 
-7.21344

>  <r_i_glide_erotb>  (235) 
0.50317

>  <r_i_glide_esite>  (235) 
0

>  <r_i_glide_emodel>  (235) 
-19.1218

>  <r_i_glide_energy>  (235) 
-15.5866

>  <r_i_glide_einternal>  (235) 
1.36839

>  <r_i_glide_intrahb_reward>  (235) 
-0

>  <i_i_glide_confnum>  (235) 
3

>  <i_i_glide_posenum>  (235) 
11

>  <r_i_glide_eff_state_penalty>  (235) 
0

>  <ligand_id>  (235) 
79

>  <original_smiles>  (235) 
OCCC1C2C3CC4C2C2C4C2C13

>  <smiles>  (235) 
[H]OC([H])([H])C([H])([H])C1([H])C2([H])C3([H])C([H])([H])C4([H])C2([H])C2([H])C4([H])C2([H])C13[H]

$$$$
80:0:0
     RDKit          3D

 44 46  0  0  1  0  0  0  0  0999 V2000
    1.9690   -2.5906    2.5913 C   0  0  0  0  0  0  0  0  0  0  0  0
    3.4485   -2.8043    2.2649 C   0  0  0  0  0  0  0  0  0  0  0  0
    4.0397   -3.9908    2.0379 C   0  0  0  0  0  0  0  0  0  0  0  0
    5.5083   -4.0377    1.6389 C   0  0  0  0  0  0  0  0  0  0  0  0
    5.8006   -3.1096    0.4395 C   0  0  0  0  0  0  0  0  0  0  0  0
    4.6235   -2.1281    0.1582 C   0  0  1  0  0  0  0  0  0  0  0  0
    5.0905   -0.8097   -0.5200 C   0  0  0  0  0  0  0  0  0  0  0  0
    4.9679   -0.7085   -2.0376 C   0  0  0  0  0  0  0  0  0  0  0  0
    3.6241   -1.1873   -2.5468 C   0  0  1  0  0  0  0  0  0  0  0  0
    3.3929   -0.7440   -4.0097 C   0  0  0  0  0  0  0  0  0  0  0  0
    3.4970   -2.6966   -2.2303 C   0  0  0  0  0  0  0  0  0  0  0  0
    2.1702   -3.1781   -2.8422 C   0  0  0  0  0  0  0  0  0  0  0  0
    4.6410   -3.5058   -2.9112 C   0  0  0  0  0  0  0  0  0  0  0  0
    3.4595   -2.8778   -0.6564 C   0  0  1  0  0  0  0  0  0  0  0  0
    3.1709   -4.3885   -0.2923 C   0  0  0  0  0  0  0  0  0  0  0  0
    3.2328   -4.8420    1.1729 C   0  0  0  0  0  0  0  0  0  0  0  0
    2.6818   -5.8833    1.5284 O   0  0  0  0  0  0  0  0  0  0  0  0
    4.1168   -1.6496    1.5676 C   0  0  0  0  0  0  0  0  0  0  0  0
    1.8771   -1.9699    3.4846 H   0  0  0  0  0  0  0  0  0  0  0  0
    1.4582   -3.5343    2.7898 H   0  0  0  0  0  0  0  0  0  0  0  0
    1.4520   -2.0858    1.7696 H   0  0  0  0  0  0  0  0  0  0  0  0
    6.0680   -3.6724    2.4999 H   0  0  0  0  0  0  0  0  0  0  0  0
    5.8415   -5.0631    1.4659 H   0  0  0  0  0  0  0  0  0  0  0  0
    6.7266   -2.5748    0.6365 H   0  0  0  0  0  0  0  0  0  0  0  0
    6.0195   -3.7253   -0.4257 H   0  0  0  0  0  0  0  0  0  0  0  0
    4.5246    0.0357   -0.1326 H   0  0  0  0  0  0  0  0  0  0  0  0
    6.1243   -0.5905   -0.2455 H   0  0  0  0  0  0  0  0  0  0  0  0
    5.0730    0.3185   -2.3482 H   0  0  0  0  0  0  0  0  0  0  0  0
    5.7896   -1.2298   -2.5059 H   0  0  0  0  0  0  0  0  0  0  0  0
    2.8600   -0.6609   -1.9694 H   0  0  0  0  0  0  0  0  0  0  0  0
    4.0425   -1.2509   -4.7169 H   0  0  0  0  0  0  0  0  0  0  0  0
    3.5584    0.3267   -4.1155 H   0  0  0  0  0  0  0  0  0  0  0  0
    2.3615   -0.9070   -4.3204 H   0  0  0  0  0  0  0  0  0  0  0  0
    1.9636   -4.2303   -2.6651 H   0  0  0  0  0  0  0  0  0  0  0  0
    2.1396   -3.0620   -3.9231 H   0  0  0  0  0  0  0  0  0  0  0  0
    1.3282   -2.6456   -2.4210 H   0  0  0  0  0  0  0  0  0  0  0  0
    4.5299   -4.5826   -2.8160 H   0  0  0  0  0  0  0  0  0  0  0  0
    5.6240   -3.2946   -2.4955 H   0  0  0  0  0  0  0  0  0  0  0  0
    4.6944   -3.2944   -3.9776 H   0  0  0  0  0  0  0  0  0  0  0  0
    2.5637   -2.3379   -0.3537 H   0  0  0  0  0  0  0  0  0  0  0  0
    2.1686   -4.6507   -0.6329 H   0  0  0  0  0  0  0  0  0  0  0  0
    3.8712   -5.0386   -0.8137 H   0  0  0  0  0  0  0  0  0  0  0  0
    3.4038   -0.8269    1.4826 H   0  0  0  0  0  0  0  0  0  0  0  0
    4.9438   -1.2852    2.1808 H   0  0  0  0  0  0  0  0  0  0  0  0
  1  2  1  0
  1 19  1  0
  1 20  1  0
  1 21  1  0
  2 18  1  0
  2  3  2  0
  3 16  1  0
  3  4  1  0
  4  5  1  0
  4 22  1  0
  4 23  1  0
  5  6  1  0
  5 24  1  0
  5 25  1  0
  6 14  1  0
  6  7  1  6
  6 18  1  0
  7  8  1  0
  7 26  1  0
  7 27  1  0
  8  9  1  0
  8 28  1  0
  8 29  1  0
  9 10  1  0
  9 11  1  0
  9 30  1  1
 10 31  1  0
 10 32  1  0
 10 33  1  0
 11 12  1  0
 11 13  1  0
 11 14  1  0
 12 34  1  0
 12 35  1  0
 12 36  1  0
 13 37  1  0
 13 38  1  0
 13 39  1  0
 14 15  1  0
 14 40  1  1
 15 16  1  0
 15 41  1  0
 15 42  1  0
 16 17  2  0
 18 43  1  0
 18 44  1  0
M  END
>  <i_m_ct_stereo_status>  (236) 
1

>  <s_m_source_file>  (236) 
/var/tmp/pbs.5076255.sched01/tmp378oxcv0/78pm6kuo1p.sdf

>  <i_m_source_file_index>  (236) 
32

>  <i_lp_mmshare_version>  (236) 
48012

>  <i_f3d_flags>  (236) 
0

>  <s_epik_input>  (236) 
W0NIM11DKFtDSDJdMSk9QyhbQ0gyXVtDSDJdMilDKD1PKVtDSDJdW0NAQEhdKFtDQEBdMTIzKUMoW0NIM10pKFtDSDNdKVtDQEhdKFtDSDNdKVtDSDJdW0NIMl0z

>  <s_epik_cmdline>  (236) 
J2VwaWtfcHl0aG9uJywgJy1waHQnLCAnMi4wJywgJy1waCcsICc3LjAnLCAnLXRuJywgJzgnLCAnLW1hJywgJzIwMCcsICctaW1hZScsICc8aW5maWxlLm1hZT4nLCAnLW9tYWUnLCAnPG91dGZpbGUubWFlPic=

>  <r_lp_tautomer_probability>  (236) 
1

>  <r_epik_Ionization_Penalty>  (236) 
0

>  <r_epik_Ionization_Penalty_Charging>  (236) 
0

>  <r_epik_Ionization_Penalty_Neutral>  (236) 
0

>  <r_epik_State_Penalty>  (236) 
-0

>  <r_epik_Charging_Adjusted_Penalty>  (236) 
0

>  <i_epik_Tot_Q>  (236) 
0

>  <i_epik_Tot_abs_Q>  (236) 
0

>  <s_lp_Force_Field>  (236) 
OPLS3e

>  <r_lp_Energy>  (236) 
83.6532

>  <b_lp_Chiralities_Consistent>  (236) 
1

>  <s_lp_Variant>  (236) 
80:0-1

>  <s_i_glide_gridfile>  (236) 
pfpi4k_grid

>  <i_i_glide_lignum>  (236) 
32

>  <i_i_glide_rotatable_bonds>  (236) 
0

>  <r_i_docking_score>  (236) 
-3.55313

>  <r_i_glide_ligand_efficiency>  (236) 
-0.197396

>  <r_i_glide_ligand_efficiency_sa>  (236) 
-0.517324

>  <r_i_glide_ligand_efficiency_ln>  (236) 
-0.913313

>  <r_i_glide_gscore>  (236) 
-3.55313

>  <r_i_glide_lipo>  (236) 
-0.587207

>  <r_i_glide_hbond>  (236) 
0

>  <r_i_glide_metal>  (236) 
-0

>  <r_i_glide_rewards>  (236) 
-1.72917

>  <r_i_glide_evdw>  (236) 
-20.701

>  <r_i_glide_ecoul>  (236) 
-1.32829

>  <r_i_glide_erotb>  (236) 
0

>  <r_i_glide_esite>  (236) 
-0.00245492

>  <r_i_glide_emodel>  (236) 
-26.0139

>  <r_i_glide_energy>  (236) 
-22.0293

>  <r_i_glide_einternal>  (236) 
0

>  <r_i_glide_intrahb_reward>  (236) 
-0

>  <i_i_glide_confnum>  (236) 
1

>  <i_i_glide_posenum>  (236) 
13

>  <r_i_glide_eff_state_penalty>  (236) 
0

>  <ligand_id>  (236) 
80

>  <original_smiles>  (236) 
CC1=C2CCC3(CCC(C)C(C)(C)C3CC2=O)C1

>  <smiles>  (236) 
[H]C([H])([H])C1=C2C(=O)C([H])([H])C3([H])C(C1([H])[H])(C([H])([H])C2([H])[H])C([H])([H])C([H])([H])C([H])(C([H])([H])[H])C3(C([H])([H])[H])C([H])([H])[H]

$$$$
80:0:1
     RDKit          3D

 44 46  0  0  1  0  0  0  0  0999 V2000
    1.4843   -1.1447    2.9181 C   0  0  0  0  0  0  0  0  0  0  0  0
    2.9515   -1.5886    2.9480 C   0  0  0  0  0  0  0  0  0  0  0  0
    3.3866   -2.8333    3.2077 C   0  0  0  0  0  0  0  0  0  0  0  0
    4.8787   -3.1397    3.1216 C   0  0  0  0  0  0  0  0  0  0  0  0
    5.4773   -2.6814    1.7714 C   0  0  0  0  0  0  0  0  0  0  0  0
    4.5152   -1.7348    0.9942 C   0  0  1  0  0  0  0  0  0  0  0  0
    5.2834   -0.7658    0.0486 C   0  0  0  0  0  0  0  0  0  0  0  0
    5.4034   -1.1241   -1.4357 C   0  0  0  0  0  0  0  0  0  0  0  0
    4.0635   -1.6006   -1.9980 C   0  0  1  0  0  0  0  0  0  0  0  0
    4.0921   -1.6360   -3.5410 C   0  0  0  0  0  0  0  0  0  0  0  0
    3.6476   -2.9162   -1.2811 C   0  0  0  0  0  0  0  0  0  0  0  0
    2.3493   -3.4419   -1.9475 C   0  0  0  0  0  0  0  0  0  0  0  0
    4.7397   -4.0065   -1.4538 C   0  0  0  0  0  0  0  0  0  0  0  0
    3.3798   -2.5907    0.2444 C   0  0  1  0  0  0  0  0  0  0  0  0
    2.8286   -3.8837    0.9828 C   0  0  0  0  0  0  0  0  0  0  0  0
    2.6086   -3.8423    2.5054 C   0  0  0  0  0  0  0  0  0  0  0  0
    1.8654   -4.6523    3.0474 O   0  0  0  0  0  0  0  0  0  0  0  0
    3.8782   -0.7808    2.0777 C   0  0  0  0  0  0  0  0  0  0  0  0
    1.3574   -0.2689    3.5574 H   0  0  0  0  0  0  0  0  0  0  0  0
    0.8189   -1.9242    3.2925 H   0  0  0  0  0  0  0  0  0  0  0  0
    1.1701   -0.8795    1.9053 H   0  0  0  0  0  0  0  0  0  0  0  0
    5.3564   -2.5729    3.9215 H   0  0  0  0  0  0  0  0  0  0  0  0
    5.0759   -4.1929    3.3228 H   0  0  0  0  0  0  0  0  0  0  0  0
    6.4321   -2.1957    1.9640 H   0  0  0  0  0  0  0  0  0  0  0  0
    5.7238   -3.5618    1.1850 H   0  0  0  0  0  0  0  0  0  0  0  0
    4.7610    0.1874    0.0655 H   0  0  0  0  0  0  0  0  0  0  0  0
    6.2770   -0.5517    0.4378 H   0  0  0  0  0  0  0  0  0  0  0  0
    5.6885   -0.2299   -1.9842 H   0  0  0  0  0  0  0  0  0  0  0  0
    6.2068   -1.8333   -1.6144 H   0  0  0  0  0  0  0  0  0  0  0  0
    3.3191   -0.8426   -1.7484 H   0  0  0  0  0  0  0  0  0  0  0  0
    4.7467   -2.4144   -3.9257 H   0  0  0  0  0  0  0  0  0  0  0  0
    4.4387   -0.6818   -3.9387 H   0  0  0  0  0  0  0  0  0  0  0  0
    3.0959   -1.7825   -3.9563 H   0  0  0  0  0  0  0  0  0  0  0  0
    1.9728   -4.3504   -1.4822 H   0  0  0  0  0  0  0  0  0  0  0  0
    2.5189   -3.7032   -2.9925 H   0  0  0  0  0  0  0  0  0  0  0  0
    1.5511   -2.7001   -1.9235 H   0  0  0  0  0  0  0  0  0  0  0  0
    4.4151   -4.9762   -1.0775 H   0  0  0  0  0  0  0  0  0  0  0  0
    5.6720   -3.7736   -0.9436 H   0  0  0  0  0  0  0  0  0  0  0  0
    4.9853   -4.1554   -2.5046 H   0  0  0  0  0  0  0  0  0  0  0  0
    2.5414   -1.8990    0.2144 H   0  0  0  0  0  0  0  0  0  0  0  0
    1.8556   -4.1309    0.5708 H   0  0  0  0  0  0  0  0  0  0  0  0
    3.4807   -4.7351    0.8059 H   0  0  0  0  0  0  0  0  0  0  0  0
    3.3163    0.0356    1.6244 H   0  0  0  0  0  0  0  0  0  0  0  0
    4.6507   -0.3238    2.6960 H   0  0  0  0  0  0  0  0  0  0  0  0
  1  2  1  0
  1 19  1  0
  1 20  1  0
  1 21  1  0
  2 18  1  0
  2  3  2  0
  3 16  1  0
  3  4  1  0
  4  5  1  0
  4 22  1  0
  4 23  1  0
  5  6  1  0
  5 24  1  0
  5 25  1  0
  6 14  1  0
  6  7  1  6
  6 18  1  0
  7  8  1  0
  7 26  1  0
  7 27  1  0
  8  9  1  0
  8 28  1  0
  8 29  1  0
  9 10  1  0
  9 11  1  0
  9 30  1  6
 10 31  1  0
 10 32  1  0
 10 33  1  0
 11 12  1  0
 11 13  1  0
 11 14  1  0
 12 34  1  0
 12 35  1  0
 12 36  1  0
 13 37  1  0
 13 38  1  0
 13 39  1  0
 14 15  1  0
 14 40  1  6
 15 16  1  0
 15 41  1  0
 15 42  1  0
 16 17  2  0
 18 43  1  0
 18 44  1  0
M  END
>  <i_m_ct_stereo_status>  (237) 
1

>  <s_m_source_file>  (237) 
/var/tmp/pbs.5076255.sched01/tmp378oxcv0/78pm6kuo1p.sdf

>  <i_m_source_file_index>  (237) 
32

>  <i_lp_mmshare_version>  (237) 
48012

>  <i_f3d_flags>  (237) 
0

>  <s_epik_input>  (237) 
W0NIM11DKFtDSDJdMSk9QyhbQ0gyXVtDSDJdMilDKD1PKVtDSDJdW0NAQEhdKFtDQEBdMTIzKUMoW0NIM10pKFtDSDNdKVtDQEhdKFtDSDNdKVtDSDJdW0NIMl0z

>  <s_epik_cmdline>  (237) 
J2VwaWtfcHl0aG9uJywgJy1waHQnLCAnMi4wJywgJy1waCcsICc3LjAnLCAnLXRuJywgJzgnLCAnLW1hJywgJzIwMCcsICctaW1hZScsICc8aW5maWxlLm1hZT4nLCAnLW9tYWUnLCAnPG91dGZpbGUubWFlPic=

>  <r_lp_tautomer_probability>  (237) 
1

>  <r_epik_Ionization_Penalty>  (237) 
0

>  <r_epik_Ionization_Penalty_Charging>  (237) 
0

>  <r_epik_Ionization_Penalty_Neutral>  (237) 
0

>  <r_epik_State_Penalty>  (237) 
-0

>  <r_epik_Charging_Adjusted_Penalty>  (237) 
0

>  <i_epik_Tot_Q>  (237) 
0

>  <i_epik_Tot_abs_Q>  (237) 
0

>  <s_lp_Force_Field>  (237) 
OPLS3e

>  <r_lp_Energy>  (237) 
83.6532

>  <b_lp_Chiralities_Consistent>  (237) 
1

>  <s_lp_Variant>  (237) 
80:0-1

>  <s_i_glide_gridfile>  (237) 
pfpi4k_grid

>  <i_i_glide_lignum>  (237) 
32

>  <i_i_glide_rotatable_bonds>  (237) 
0

>  <r_i_docking_score>  (237) 
-3.38308

>  <r_i_glide_ligand_efficiency>  (237) 
-0.187949

>  <r_i_glide_ligand_efficiency_sa>  (237) 
-0.492566

>  <r_i_glide_ligand_efficiency_ln>  (237) 
-0.869604

>  <r_i_glide_gscore>  (237) 
-3.38308

>  <r_i_glide_lipo>  (237) 
-0.517533

>  <r_i_glide_hbond>  (237) 
0

>  <r_i_glide_metal>  (237) 
-0

>  <r_i_glide_rewards>  (237) 
-1.72917

>  <r_i_glide_evdw>  (237) 
-21.1002

>  <r_i_glide_ecoul>  (237) 
-0.519125

>  <r_i_glide_erotb>  (237) 
0

>  <r_i_glide_esite>  (237) 
-0.00349324

>  <r_i_glide_emodel>  (237) 
-25.5147

>  <r_i_glide_energy>  (237) 
-21.6194

>  <r_i_glide_einternal>  (237) 
0

>  <r_i_glide_intrahb_reward>  (237) 
-0

>  <i_i_glide_confnum>  (237) 
2

>  <i_i_glide_posenum>  (237) 
4

>  <r_i_glide_eff_state_penalty>  (237) 
0

>  <ligand_id>  (237) 
80

>  <original_smiles>  (237) 
CC1=C2CCC3(CCC(C)C(C)(C)C3CC2=O)C1

>  <smiles>  (237) 
[H]C([H])([H])C1=C2C(=O)C([H])([H])C3([H])C(C1([H])[H])(C([H])([H])C2([H])[H])C([H])([H])C([H])([H])C([H])(C([H])([H])[H])C3(C([H])([H])[H])C([H])([H])[H]

$$$$
80:0:2
     RDKit          3D

 44 46  0  0  1  0  0  0  0  0999 V2000
    4.5931   -7.6289    0.7327 C   0  0  0  0  0  0  0  0  0  0  0  0
    4.5981   -6.5973    1.8594 C   0  0  0  0  0  0  0  0  0  0  0  0
    5.6606   -6.2738    2.6151 C   0  0  0  0  0  0  0  0  0  0  0  0
    5.5367   -5.1703    3.6554 C   0  0  0  0  0  0  0  0  0  0  0  0
    4.9627   -3.8727    3.0364 C   0  0  0  0  0  0  0  0  0  0  0  0
    4.3429   -4.1134    1.6226 C   0  0  1  0  0  0  0  0  0  0  0  0
    3.2072   -3.0904    1.2899 C   0  0  0  0  0  0  0  0  0  0  0  0
    3.5529   -1.8610    0.4493 C   0  0  0  0  0  0  0  0  0  0  0  0
    4.4176   -2.2483   -0.7511 C   0  0  1  0  0  0  0  0  0  0  0  0
    4.4802   -1.1070   -1.7868 C   0  0  0  0  0  0  0  0  0  0  0  0
    5.7843   -2.8141   -0.2613 C   0  0  0  0  0  0  0  0  0  0  0  0
    6.6818   -3.0824   -1.4971 C   0  0  0  0  0  0  0  0  0  0  0  0
    6.5375   -1.7756    0.6132 C   0  0  0  0  0  0  0  0  0  0  0  0
    5.5105   -4.1713    0.5111 C   0  0  1  0  0  0  0  0  0  0  0  0
    6.8846   -4.8458    0.9316 C   0  0  0  0  0  0  0  0  0  0  0  0
    6.8656   -6.1022    1.8162 C   0  0  0  0  0  0  0  0  0  0  0  0
    7.8404   -6.8478    1.8689 O   0  0  0  0  0  0  0  0  0  0  0  0
    3.5871   -5.4901    1.7195 C   0  0  0  0  0  0  0  0  0  0  0  0
    3.7666   -8.3284    0.8800 H   0  0  0  0  0  0  0  0  0  0  0  0
    5.5129   -8.2135    0.7167 H   0  0  0  0  0  0  0  0  0  0  0  0
    4.4678   -7.1477   -0.2416 H   0  0  0  0  0  0  0  0  0  0  0  0
    4.8373   -5.5369    4.4064 H   0  0  0  0  0  0  0  0  0  0  0  0
    6.4861   -5.0168    4.1689 H   0  0  0  0  0  0  0  0  0  0  0  0
    4.2269   -3.4631    3.7261 H   0  0  0  0  0  0  0  0  0  0  0  0
    5.7495   -3.1268    3.0058 H   0  0  0  0  0  0  0  0  0  0  0  0
    2.4130   -3.5910    0.7372 H   0  0  0  0  0  0  0  0  0  0  0  0
    2.7294   -2.7440    2.2059 H   0  0  0  0  0  0  0  0  0  0  0  0
    2.6212   -1.4229    0.0975 H   0  0  0  0  0  0  0  0  0  0  0  0
    4.0077   -1.0818    1.0563 H   0  0  0  0  0  0  0  0  0  0  0  0
    3.8923   -3.0568   -1.2639 H   0  0  0  0  0  0  0  0  0  0  0  0
    5.0497   -0.2558   -1.4275 H   0  0  0  0  0  0  0  0  0  0  0  0
    3.4742   -0.7589   -2.0292 H   0  0  0  0  0  0  0  0  0  0  0  0
    4.9154   -1.4410   -2.7301 H   0  0  0  0  0  0  0  0  0  0  0  0
    7.6637   -3.4668   -1.2160 H   0  0  0  0  0  0  0  0  0  0  0  0
    6.8864   -2.1754   -2.0618 H   0  0  0  0  0  0  0  0  0  0  0  0
    6.2122   -3.7991   -2.1726 H   0  0  0  0  0  0  0  0  0  0  0  0
    7.5531   -2.0939    0.8513 H   0  0  0  0  0  0  0  0  0  0  0  0
    6.0382   -1.5793    1.5608 H   0  0  0  0  0  0  0  0  0  0  0  0
    6.6217   -0.8153    0.1048 H   0  0  0  0  0  0  0  0  0  0  0  0
    5.1022   -4.8294   -0.2583 H   0  0  0  0  0  0  0  0  0  0  0  0
    7.4273   -5.1472    0.0384 H   0  0  0  0  0  0  0  0  0  0  0  0
    7.5138   -4.1330    1.4613 H   0  0  0  0  0  0  0  0  0  0  0  0
    2.9754   -5.6781    0.8354 H   0  0  0  0  0  0  0  0  0  0  0  0
    2.9155   -5.5082    2.5807 H   0  0  0  0  0  0  0  0  0  0  0  0
  1  2  1  0
  1 19  1  0
  1 20  1  0
  1 21  1  0
  2 18  1  0
  2  3  2  0
  3 16  1  0
  3  4  1  0
  4  5  1  0
  4 22  1  0
  4 23  1  0
  5  6  1  0
  5 24  1  0
  5 25  1  0
  6 14  1  0
  6  7  1  6
  6 18  1  0
  7  8  1  0
  7 26  1  0
  7 27  1  0
  8  9  1  0
  8 28  1  0
  8 29  1  0
  9 10  1  0
  9 11  1  0
  9 30  1  6
 10 31  1  0
 10 32  1  0
 10 33  1  0
 11 12  1  0
 11 13  1  0
 11 14  1  0
 12 34  1  0
 12 35  1  0
 12 36  1  0
 13 37  1  0
 13 38  1  0
 13 39  1  0
 14 15  1  0
 14 40  1  6
 15 16  1  0
 15 41  1  0
 15 42  1  0
 16 17  2  0
 18 43  1  0
 18 44  1  0
M  END
>  <i_m_ct_stereo_status>  (238) 
1

>  <s_m_source_file>  (238) 
/var/tmp/pbs.5076255.sched01/tmp378oxcv0/78pm6kuo1p.sdf

>  <i_m_source_file_index>  (238) 
32

>  <i_lp_mmshare_version>  (238) 
48012

>  <i_f3d_flags>  (238) 
0

>  <s_epik_input>  (238) 
W0NIM11DKFtDSDJdMSk9QyhbQ0gyXVtDSDJdMilDKD1PKVtDSDJdW0NAQEhdKFtDQEBdMTIzKUMoW0NIM10pKFtDSDNdKVtDQEhdKFtDSDNdKVtDSDJdW0NIMl0z

>  <s_epik_cmdline>  (238) 
J2VwaWtfcHl0aG9uJywgJy1waHQnLCAnMi4wJywgJy1waCcsICc3LjAnLCAnLXRuJywgJzgnLCAnLW1hJywgJzIwMCcsICctaW1hZScsICc8aW5maWxlLm1hZT4nLCAnLW9tYWUnLCAnPG91dGZpbGUubWFlPic=

>  <r_lp_tautomer_probability>  (238) 
1

>  <r_epik_Ionization_Penalty>  (238) 
0

>  <r_epik_Ionization_Penalty_Charging>  (238) 
0

>  <r_epik_Ionization_Penalty_Neutral>  (238) 
0

>  <r_epik_State_Penalty>  (238) 
-0

>  <r_epik_Charging_Adjusted_Penalty>  (238) 
0

>  <i_epik_Tot_Q>  (238) 
0

>  <i_epik_Tot_abs_Q>  (238) 
0

>  <s_lp_Force_Field>  (238) 
OPLS3e

>  <r_lp_Energy>  (238) 
83.6532

>  <b_lp_Chiralities_Consistent>  (238) 
1

>  <s_lp_Variant>  (238) 
80:0-1

>  <s_i_glide_gridfile>  (238) 
pfpi4k_grid

>  <i_i_glide_lignum>  (238) 
32

>  <i_i_glide_rotatable_bonds>  (238) 
0

>  <r_i_docking_score>  (238) 
-3.33895

>  <r_i_glide_ligand_efficiency>  (238) 
-0.185497

>  <r_i_glide_ligand_efficiency_sa>  (238) 
-0.48614

>  <r_i_glide_ligand_efficiency_ln>  (238) 
-0.858259

>  <r_i_glide_gscore>  (238) 
-3.33895

>  <r_i_glide_lipo>  (238) 
-0.463925

>  <r_i_glide_hbond>  (238) 
0

>  <r_i_glide_metal>  (238) 
-0

>  <r_i_glide_rewards>  (238) 
-1.81572

>  <r_i_glide_evdw>  (238) 
-21.7341

>  <r_i_glide_ecoul>  (238) 
0.182712

>  <r_i_glide_erotb>  (238) 
0

>  <r_i_glide_esite>  (238) 
0

>  <r_i_glide_emodel>  (238) 
-25.4422

>  <r_i_glide_energy>  (238) 
-21.5514

>  <r_i_glide_einternal>  (238) 
0

>  <r_i_glide_intrahb_reward>  (238) 
-0

>  <i_i_glide_confnum>  (238) 
1

>  <i_i_glide_posenum>  (238) 
12

>  <r_i_glide_eff_state_penalty>  (238) 
0

>  <ligand_id>  (238) 
80

>  <original_smiles>  (238) 
CC1=C2CCC3(CCC(C)C(C)(C)C3CC2=O)C1

>  <smiles>  (238) 
[H]C([H])([H])C1=C2C(=O)C([H])([H])C3([H])C(C1([H])[H])(C([H])([H])C2([H])[H])C([H])([H])C([H])([H])C([H])(C([H])([H])[H])C3(C([H])([H])[H])C([H])([H])[H]

$$$$
81:0:0
     RDKit          3D

 69 75  0  0  1  0  0  0  0  0999 V2000
    2.1718   -6.4612    1.2839 C   0  0  0  0  0  0  0  0  0  0  0  0
    2.3006   -5.2271    2.2173 C   0  0  2  0  0  0  0  0  0  0  0  0
    3.5598   -4.2285    2.1396 C   0  0  1  0  0  0  0  0  0  0  0  0
    4.9242   -4.5250    1.5003 C   0  0  1  0  0  0  0  0  0  0  0  0
    4.5703   -4.9985    0.0676 C   0  0  0  0  0  0  0  0  0  0  0  0
    3.5406   -3.9321   -0.4969 C   0  0  0  0  0  0  0  0  0  0  0  0
    3.7000   -2.5633    0.2605 C   0  0  2  0  0  0  0  0  0  0  0  0
    5.2196   -2.2403    0.1019 C   0  0  0  0  0  0  0  0  0  0  0  0
    6.0050   -2.6298   -1.1982 C   0  0  0  0  0  0  0  0  0  0  0  0
    5.3844   -0.6882    0.0802 C   0  0  0  0  0  0  0  0  0  0  0  0
    5.6828   -3.0923    1.3636 C   0  0  1  0  0  0  0  0  0  0  0  0
    4.9690   -2.3793    2.4661 C   0  0  1  0  0  0  0  0  0  0  0  0
    5.3950   -1.0689    2.7760 O   0  0  0  0  0  0  0  0  0  0  0  0
    3.5428   -2.7143    1.8690 C   0  0  2  0  0  0  0  0  0  0  0  0
    2.3698   -2.2006    2.7264 C   0  0  1  0  0  0  0  0  0  0  0  0
    2.7642   -2.1216    4.1931 C   0  0  0  0  0  0  0  0  0  0  0  0
    3.3854   -2.6486    5.2936 C   0  0  0  0  0  0  0  0  0  0  0  0
    4.1584   -3.9736    5.6732 C   0  0  0  0  0  0  0  0  0  0  0  0
    4.5353   -5.2525    4.7825 C   0  0  1  0  0  0  0  0  0  0  0  0
    3.3614   -6.2512    4.4768 C   0  0  0  0  0  0  0  0  0  0  0  0
    2.0918   -5.7146    3.7196 C   0  0  0  0  0  0  0  0  0  0  0  0
    1.5521   -4.6555    4.4314 O   0  0  0  0  0  0  0  0  0  0  0  0
    0.5401   -5.1396    5.2888 C   0  0  0  0  0  0  0  0  0  0  0  0
    0.4706   -6.6334    5.0047 C   0  0  0  0  0  0  0  0  0  0  0  0
    1.1164   -6.7166    3.7497 O   0  0  0  0  0  0  0  0  0  0  0  0
    5.6493   -5.0762    3.8353 O   0  0  0  0  0  0  0  0  0  0  0  0
    5.7162   -5.4860    2.4608 C   0  0  1  0  0  0  0  0  0  0  0  0
    5.4119   -6.8389    2.2561 O   0  0  0  0  0  0  0  0  0  0  0  0
    2.1043   -0.9224    3.5994 C   0  0  0  0  0  0  0  0  0  0  0  0
    2.8722    0.3613    3.3602 C   0  0  0  0  0  0  0  0  0  0  0  0
    0.6785   -0.6409    4.0348 C   0  0  0  0  0  0  0  0  0  0  0  0
    2.9673   -7.1838    1.4325 H   0  0  0  0  0  0  0  0  0  0  0  0
    2.1133   -6.2157    0.2286 H   0  0  0  0  0  0  0  0  0  0  0  0
    1.2401   -6.9978    1.4452 H   0  0  0  0  0  0  0  0  0  0  0  0
    1.4190   -4.6527    1.9712 H   0  0  0  0  0  0  0  0  0  0  0  0
    3.6531   -4.1066    3.1546 H   0  0  0  0  0  0  0  0  0  0  0  0
    5.4610   -5.1011   -0.5373 H   0  0  0  0  0  0  0  0  0  0  0  0
    4.1982   -6.0127    0.0102 H   0  0  0  0  0  0  0  0  0  0  0  0
    3.6562   -3.8271   -1.5736 H   0  0  0  0  0  0  0  0  0  0  0  0
    2.5083   -4.2472   -0.3790 H   0  0  0  0  0  0  0  0  0  0  0  0
    3.0476   -1.7940   -0.1581 H   0  0  0  0  0  0  0  0  0  0  0  0
    6.8023   -1.9187   -1.4026 H   0  0  0  0  0  0  0  0  0  0  0  0
    5.3843   -2.6390   -2.0944 H   0  0  0  0  0  0  0  0  0  0  0  0
    6.5575   -3.5596   -1.1316 H   0  0  0  0  0  0  0  0  0  0  0  0
    6.3778   -0.3867    0.4162 H   0  0  0  0  0  0  0  0  0  0  0  0
    4.6297   -0.1580    0.6580 H   0  0  0  0  0  0  0  0  0  0  0  0
    5.2493   -0.2922   -0.9286 H   0  0  0  0  0  0  0  0  0  0  0  0
    6.7644   -3.1319    1.4891 H   0  0  0  0  0  0  0  0  0  0  0  0
    5.2179   -2.8502    3.4093 H   0  0  0  0  0  0  0  0  0  0  0  0
    5.2684   -0.5437    2.0034 H   0  0  0  0  0  0  0  0  0  0  0  0
    1.4217   -2.6261    2.4145 H   0  0  0  0  0  0  0  0  0  0  0  0
    3.3637   -1.9806    6.1388 H   0  0  0  0  0  0  0  0  0  0  0  0
    5.0974   -3.6299    6.1069 H   0  0  0  0  0  0  0  0  0  0  0  0
    3.6047   -4.3634    6.5274 H   0  0  0  0  0  0  0  0  0  0  0  0
    5.0861   -5.8480    5.5126 H   0  0  0  0  0  0  0  0  0  0  0  0
    3.7124   -7.1521    3.9813 H   0  0  0  0  0  0  0  0  0  0  0  0
    3.0401   -6.5974    5.4569 H   0  0  0  0  0  0  0  0  0  0  0  0
    0.7801   -4.9198    6.3279 H   0  0  0  0  0  0  0  0  0  0  0  0
   -0.3947   -4.6436    5.0378 H   0  0  0  0  0  0  0  0  0  0  0  0
    1.0256   -7.2081    5.7474 H   0  0  0  0  0  0  0  0  0  0  0  0
   -0.5485   -7.0210    4.9708 H   0  0  0  0  0  0  0  0  0  0  0  0
    6.7736   -5.4004    2.2155 H   0  0  0  0  0  0  0  0  0  0  0  0
    6.0501   -7.3540    2.7293 H   0  0  0  0  0  0  0  0  0  0  0  0
    2.2348    1.2379    3.4876 H   0  0  0  0  0  0  0  0  0  0  0  0
    3.2430    0.3829    2.3367 H   0  0  0  0  0  0  0  0  0  0  0  0
    3.7050    0.4431    4.0577 H   0  0  0  0  0  0  0  0  0  0  0  0
    0.1375   -0.1166    3.2445 H   0  0  0  0  0  0  0  0  0  0  0  0
    0.6653   -0.0252    4.9346 H   0  0  0  0  0  0  0  0  0  0  0  0
    0.1536   -1.5746    4.2458 H   0  0  0  0  0  0  0  0  0  0  0  0
  1  2  1  0
  1 32  1  0
  1 33  1  0
  1 34  1  0
  2 21  1  0
  2  3  1  0
  2 35  1  6
  3 14  1  0
  3  4  1  0
  3 36  1  1
  4 11  1  0
  4 27  1  0
  4  5  1  6
  5  6  1  0
  5 37  1  0
  5 38  1  0
  6  7  1  0
  6 39  1  0
  6 40  1  0
 14  7  1  6
  7  8  1  0
  7 41  1  6
  8  9  1  0
  8 10  1  0
  8 11  1  0
  9 42  1  0
  9 43  1  0
  9 44  1  0
 10 45  1  0
 10 46  1  0
 10 47  1  0
 11 12  1  0
 11 48  1  1
 12 13  1  0
 12 14  1  0
 12 49  1  1
 13 50  1  0
 14 15  1  0
 15 29  1  0
 15 16  1  0
 15 51  1  1
 16 17  2  3
 16 29  1  0
 17 18  1  0
 17 52  1  0
 18 19  1  0
 18 53  1  0
 18 54  1  0
 19 20  1  0
 19 26  1  0
 19 55  1  1
 20 21  1  0
 20 56  1  0
 20 57  1  0
 21 25  1  0
 21 22  1  0
 22 23  1  0
 23 24  1  0
 23 58  1  0
 23 59  1  0
 24 25  1  0
 24 60  1  0
 24 61  1  0
 26 27  1  0
 27 28  1  0
 27 62  1  6
 28 63  1  0
 29 30  1  0
 29 31  1  0
 30 64  1  0
 30 65  1  0
 30 66  1  0
 31 67  1  0
 31 68  1  0
 31 69  1  0
M  END
>  <i_m_ct_stereo_status>  (239) 
1

>  <s_m_source_file>  (239) 
/var/tmp/pbs.5076255.sched01/tmp378oxcv0/78pm6kuo1p.sdf

>  <i_m_source_file_index>  (239) 
33

>  <i_lp_mmshare_version>  (239) 
48012

>  <i_f3d_flags>  (239) 
0

>  <s_epik_input>  (239) 
TzFbQ0gyXVtDSDJdT0MxKFtDQEBIXTJbQ0gzXSlbQ0gyXVtDQEBIXShPW0NASF0zW09IXSlbQ0gyXS9bQ0hdPUMoQzQoW0NIM10pW0NIM10pXFtDSF00W0NAQF01KFtDQEhdMltDQEBdMzY3KVtDQEhdKFtDSDJdW0NIMl02KUMoW0NIM10pKFtDSDNdKVtDQEhdN1tDQEhdNVtPSF0=

>  <s_epik_cmdline>  (239) 
J2VwaWtfcHl0aG9uJywgJy1waHQnLCAnMi4wJywgJy1waCcsICc3LjAnLCAnLXRuJywgJzgnLCAnLW1hJywgJzIwMCcsICctaW1hZScsICc8aW5maWxlLm1hZT4nLCAnLW9tYWUnLCAnPG91dGZpbGUubWFlPic=

>  <r_lp_tautomer_probability>  (239) 
1

>  <r_epik_Ionization_Penalty>  (239) 
5.46082e-07

>  <r_epik_Ionization_Penalty_Charging>  (239) 
0

>  <r_epik_Ionization_Penalty_Neutral>  (239) 
5.46082e-07

>  <r_epik_State_Penalty>  (239) 
-0

>  <r_epik_Charging_Adjusted_Penalty>  (239) 
0

>  <i_epik_Tot_Q>  (239) 
0

>  <i_epik_Tot_abs_Q>  (239) 
0

>  <s_epik_Chemistry_Notes>  (239) 
This compound contains an acetal/aminal-like group ( X-CH(R)-Y where X, Y are N, S, or O) that may be acid/base labile, releasing an aldehyde.

>  <s_lp_Force_Field>  (239) 
OPLS3e

>  <r_lp_Energy>  (239) 
183.337

>  <b_lp_Chiralities_Consistent>  (239) 
1

>  <s_lp_Variant>  (239) 
81:0-1

>  <s_i_glide_gridfile>  (239) 
pfpi4k_grid

>  <i_i_glide_lignum>  (239) 
33

>  <i_i_glide_rotatable_bonds>  (239) 
2

>  <r_i_docking_score>  (239) 
-2.05185

>  <r_i_glide_ligand_efficiency>  (239) 
-0.0661886

>  <r_i_glide_ligand_efficiency_sa>  (239) 
-0.207924

>  <r_i_glide_ligand_efficiency_ln>  (239) 
-0.462754

>  <r_i_glide_gscore>  (239) 
-2.05185

>  <r_i_glide_lipo>  (239) 
-0.222306

>  <r_i_glide_hbond>  (239) 
0

>  <r_i_glide_metal>  (239) 
-0

>  <r_i_glide_rewards>  (239) 
-0.497651

>  <r_i_glide_evdw>  (239) 
-26.8885

>  <r_i_glide_ecoul>  (239) 
0.088444

>  <r_i_glide_erotb>  (239) 
0

>  <r_i_glide_esite>  (239) 
-0.000733144

>  <r_i_glide_emodel>  (239) 
-29.7677

>  <r_i_glide_energy>  (239) 
-26.8

>  <r_i_glide_einternal>  (239) 
0.462285

>  <r_i_glide_intrahb_reward>  (239) 
-0

>  <i_i_glide_confnum>  (239) 
4

>  <i_i_glide_posenum>  (239) 
27

>  <r_i_glide_eff_state_penalty>  (239) 
0

>  <ligand_id>  (239) 
81

>  <original_smiles>  (239) 
CC1C2C34CCC5C(C)(C)C3C(O)C52C2C(=CCC(CC13OCCO3)OC4O)C2(C)C

>  <smiles>  (239) 
[H]OC1([H])OC2([H])C([H])([H])C([H])=C3C([H])(C3(C([H])([H])[H])C([H])([H])[H])C34C([H])(O[H])C5([H])C(C([H])([H])[H])(C([H])([H])[H])C3([H])C([H])([H])C([H])([H])C15C4([H])C([H])(C([H])([H])[H])C1(OC([H])([H])C([H])([H])O1)C2([H])[H]

$$$$
81:0:1
     RDKit          3D

 69 75  0  0  1  0  0  0  0  0999 V2000
    2.2123   -6.6673    1.5192 C   0  0  0  0  0  0  0  0  0  0  0  0
    2.3459   -5.4222    2.4369 C   0  0  2  0  0  0  0  0  0  0  0  0
    3.5228   -4.3439    2.2634 C   0  0  1  0  0  0  0  0  0  0  0  0
    4.8312   -4.5439    1.4913 C   0  0  1  0  0  0  0  0  0  0  0  0
    4.3741   -5.0348    0.0947 C   0  0  0  0  0  0  0  0  0  0  0  0
    3.2229   -4.0390   -0.3471 C   0  0  0  0  0  0  0  0  0  0  0  0
    3.3635   -2.6665    0.4057 C   0  0  2  0  0  0  0  0  0  0  0  0
    4.8332   -2.2389    0.0999 C   0  0  0  0  0  0  0  0  0  0  0  0
    5.5119   -2.5658   -1.2748 C   0  0  0  0  0  0  0  0  0  0  0  0
    4.8866   -0.6793    0.0798 C   0  0  0  0  0  0  0  0  0  0  0  0
    5.4760   -3.0627    1.3001 C   0  0  1  0  0  0  0  0  0  0  0  0
    4.8274   -2.4061    2.4765 C   0  0  1  0  0  0  0  0  0  0  0  0
    5.1858   -1.0701    2.7591 O   0  0  0  0  0  0  0  0  0  0  0  0
    3.3774   -2.8357    2.0176 C   0  0  2  0  0  0  0  0  0  0  0  0
    2.2627   -2.4114    2.9910 C   0  0  1  0  0  0  0  0  0  0  0  0
    2.7927   -2.3045    4.4092 C   0  0  0  0  0  0  0  0  0  0  0  0
    3.5523   -2.7934    5.4398 C   0  0  0  0  0  0  0  0  0  0  0  0
    4.4400   -4.0693    5.7321 C   0  0  0  0  0  0  0  0  0  0  0  0
    4.7954   -5.3255    4.8003 C   0  0  1  0  0  0  0  0  0  0  0  0
    3.6509   -6.3875    4.5931 C   0  0  0  0  0  0  0  0  0  0  0  0
    2.3067   -5.9136    3.9456 C   0  0  0  0  0  0  0  0  0  0  0  0
    1.7915   -4.8801    4.7155 O   0  0  0  0  0  0  0  0  0  0  0  0
    0.6744   -5.3456    5.4248 C   0  0  0  0  0  0  0  0  0  0  0  0
    0.1947   -6.4583    4.5163 C   0  0  0  0  0  0  0  0  0  0  0  0
    1.4206   -6.9846    4.0715 O   0  0  0  0  0  0  0  0  0  0  0  0
    5.7969   -5.0778    3.7478 O   0  0  0  0  0  0  0  0  0  0  0  0
    5.7619   -5.4636    2.3633 C   0  0  1  0  0  0  0  0  0  0  0  0
    5.5313   -6.8343    2.1602 O   0  0  0  0  0  0  0  0  0  0  0  0
    1.9927   -1.1546    3.8966 C   0  0  0  0  0  0  0  0  0  0  0  0
    2.6413    0.1801    3.6015 C   0  0  0  0  0  0  0  0  0  0  0  0
    0.6021   -0.9762    4.4759 C   0  0  0  0  0  0  0  0  0  0  0  0
    3.0581   -7.3428    1.5746 H   0  0  0  0  0  0  0  0  0  0  0  0
    2.0287   -6.4238    0.4780 H   0  0  0  0  0  0  0  0  0  0  0  0
    1.3379   -7.2635    1.7664 H   0  0  0  0  0  0  0  0  0  0  0  0
    1.4064   -4.9101    2.2717 H   0  0  0  0  0  0  0  0  0  0  0  0
    3.7097   -4.2233    3.2662 H   0  0  0  0  0  0  0  0  0  0  0  0
    5.2042   -5.0742   -0.5978 H   0  0  0  0  0  0  0  0  0  0  0  0
    4.0684   -6.0707    0.0594 H   0  0  0  0  0  0  0  0  0  0  0  0
    3.2244   -3.9119   -1.4278 H   0  0  0  0  0  0  0  0  0  0  0  0
    2.2305   -4.4260   -0.1381 H   0  0  0  0  0  0  0  0  0  0  0  0
    2.6229   -1.9422    0.0639 H   0  0  0  0  0  0  0  0  0  0  0  0
    6.2311   -1.7972   -1.5518 H   0  0  0  0  0  0  0  0  0  0  0  0
    4.8084   -2.6156   -2.1054 H   0  0  0  0  0  0  0  0  0  0  0  0
    6.1321   -3.4551   -1.2729 H   0  0  0  0  0  0  0  0  0  0  0  0
    5.8845   -0.3074    0.3157 H   0  0  0  0  0  0  0  0  0  0  0  0
    4.1581   -0.2050    0.7323 H   0  0  0  0  0  0  0  0  0  0  0  0
    4.6268   -0.2906   -0.9068 H   0  0  0  0  0  0  0  0  0  0  0  0
    6.5659   -3.0257    1.3198 H   0  0  0  0  0  0  0  0  0  0  0  0
    5.2002   -2.8652    3.3838 H   0  0  0  0  0  0  0  0  0  0  0  0
    4.9147   -0.5429    2.0264 H   0  0  0  0  0  0  0  0  0  0  0  0
    1.3187   -2.8973    2.7671 H   0  0  0  0  0  0  0  0  0  0  0  0
    3.5657   -2.1330    6.2920 H   0  0  0  0  0  0  0  0  0  0  0  0
    5.3967   -3.6681    6.0669 H   0  0  0  0  0  0  0  0  0  0  0  0
    4.0022   -4.4913    6.6369 H   0  0  0  0  0  0  0  0  0  0  0  0
    5.4493   -5.8906    5.4665 H   0  0  0  0  0  0  0  0  0  0  0  0
    4.0140   -7.2763    4.0806 H   0  0  0  0  0  0  0  0  0  0  0  0
    3.3838   -6.7568    5.5836 H   0  0  0  0  0  0  0  0  0  0  0  0
    0.9912   -5.7309    6.3940 H   0  0  0  0  0  0  0  0  0  0  0  0
   -0.0584   -4.5518    5.5734 H   0  0  0  0  0  0  0  0  0  0  0  0
   -0.4205   -7.1998    5.0248 H   0  0  0  0  0  0  0  0  0  0  0  0
   -0.3576   -6.0608    3.6670 H   0  0  0  0  0  0  0  0  0  0  0  0
    6.7864   -5.3059    2.0311 H   0  0  0  0  0  0  0  0  0  0  0  0
    4.6451   -7.0196    2.4304 H   0  0  0  0  0  0  0  0  0  0  0  0
    1.9612    1.0093    3.8022 H   0  0  0  0  0  0  0  0  0  0  0  0
    2.9072    0.2295    2.5471 H   0  0  0  0  0  0  0  0  0  0  0  0
    3.5332    0.3120    4.2134 H   0  0  0  0  0  0  0  0  0  0  0  0
   -0.0499   -0.4876    3.7495 H   0  0  0  0  0  0  0  0  0  0  0  0
    0.6352   -0.3702    5.3818 H   0  0  0  0  0  0  0  0  0  0  0  0
    0.1672   -1.9457    4.7238 H   0  0  0  0  0  0  0  0  0  0  0  0
  1  2  1  0
  1 32  1  0
  1 33  1  0
  1 34  1  0
  2 21  1  0
  2  3  1  0
  2 35  1  1
  3 14  1  0
  3  4  1  0
  3 36  1  1
  4 11  1  0
  4 27  1  0
  4  5  1  6
  5  6  1  0
  5 37  1  0
  5 38  1  0
  6  7  1  0
  6 39  1  0
  6 40  1  0
 14  7  1  6
  7  8  1  0
  7 41  1  1
  8  9  1  0
  8 10  1  0
  8 11  1  0
  9 42  1  0
  9 43  1  0
  9 44  1  0
 10 45  1  0
 10 46  1  0
 10 47  1  0
 11 12  1  0
 11 48  1  1
 12 13  1  0
 12 14  1  0
 12 49  1  1
 13 50  1  0
 14 15  1  0
 15 29  1  0
 15 16  1  0
 15 51  1  1
 16 17  2  3
 16 29  1  0
 17 18  1  0
 17 52  1  0
 18 19  1  0
 18 53  1  0
 18 54  1  0
 19 20  1  0
 19 26  1  0
 19 55  1  1
 20 21  1  0
 20 56  1  0
 20 57  1  0
 21 25  1  0
 21 22  1  0
 22 23  1  0
 23 24  1  0
 23 58  1  0
 23 59  1  0
 24 25  1  0
 24 60  1  0
 24 61  1  0
 26 27  1  0
 27 28  1  0
 27 62  1  6
 28 63  1  0
 29 30  1  0
 29 31  1  0
 30 64  1  0
 30 65  1  0
 30 66  1  0
 31 67  1  0
 31 68  1  0
 31 69  1  0
M  END
>  <i_m_ct_stereo_status>  (240) 
1

>  <s_m_source_file>  (240) 
/var/tmp/pbs.5076255.sched01/tmp378oxcv0/78pm6kuo1p.sdf

>  <i_m_source_file_index>  (240) 
33

>  <i_lp_mmshare_version>  (240) 
48012

>  <i_f3d_flags>  (240) 
0

>  <s_epik_input>  (240) 
TzFbQ0gyXVtDSDJdT0MxKFtDQEBIXTJbQ0gzXSlbQ0gyXVtDQEBIXShPW0NASF0zW09IXSlbQ0gyXS9bQ0hdPUMoQzQoW0NIM10pW0NIM10pXFtDSF00W0NAQF01KFtDQEhdMltDQEBdMzY3KVtDQEhdKFtDSDJdW0NIMl02KUMoW0NIM10pKFtDSDNdKVtDQEhdN1tDQEhdNVtPSF0=

>  <s_epik_cmdline>  (240) 
J2VwaWtfcHl0aG9uJywgJy1waHQnLCAnMi4wJywgJy1waCcsICc3LjAnLCAnLXRuJywgJzgnLCAnLW1hJywgJzIwMCcsICctaW1hZScsICc8aW5maWxlLm1hZT4nLCAnLW9tYWUnLCAnPG91dGZpbGUubWFlPic=

>  <r_lp_tautomer_probability>  (240) 
1

>  <r_epik_Ionization_Penalty>  (240) 
5.46082e-07

>  <r_epik_Ionization_Penalty_Charging>  (240) 
0

>  <r_epik_Ionization_Penalty_Neutral>  (240) 
5.46082e-07

>  <r_epik_State_Penalty>  (240) 
-0

>  <r_epik_Charging_Adjusted_Penalty>  (240) 
0

>  <i_epik_Tot_Q>  (240) 
0

>  <i_epik_Tot_abs_Q>  (240) 
0

>  <s_epik_Chemistry_Notes>  (240) 
This compound contains an acetal/aminal-like group ( X-CH(R)-Y where X, Y are N, S, or O) that may be acid/base labile, releasing an aldehyde.

>  <s_lp_Force_Field>  (240) 
OPLS3e

>  <r_lp_Energy>  (240) 
183.337

>  <b_lp_Chiralities_Consistent>  (240) 
1

>  <s_lp_Variant>  (240) 
81:0-1

>  <s_i_glide_gridfile>  (240) 
pfpi4k_grid

>  <i_i_glide_lignum>  (240) 
33

>  <i_i_glide_rotatable_bonds>  (240) 
2

>  <r_i_docking_score>  (240) 
-2.02836

>  <r_i_glide_ligand_efficiency>  (240) 
-0.065431

>  <r_i_glide_ligand_efficiency_sa>  (240) 
-0.205544

>  <r_i_glide_ligand_efficiency_ln>  (240) 
-0.457457

>  <r_i_glide_gscore>  (240) 
-2.02836

>  <r_i_glide_lipo>  (240) 
-0.187788

>  <r_i_glide_hbond>  (240) 
0

>  <r_i_glide_metal>  (240) 
-0

>  <r_i_glide_rewards>  (240) 
-0.502758

>  <r_i_glide_evdw>  (240) 
-26.3815

>  <r_i_glide_ecoul>  (240) 
-0.123063

>  <r_i_glide_erotb>  (240) 
0

>  <r_i_glide_esite>  (240) 
-0.000278159

>  <r_i_glide_emodel>  (240) 
-29.6794

>  <r_i_glide_energy>  (240) 
-26.5046

>  <r_i_glide_einternal>  (240) 
0.0338939

>  <r_i_glide_intrahb_reward>  (240) 
-0

>  <i_i_glide_confnum>  (240) 
2

>  <i_i_glide_posenum>  (240) 
34

>  <r_i_glide_eff_state_penalty>  (240) 
0

>  <ligand_id>  (240) 
81

>  <original_smiles>  (240) 
CC1C2C34CCC5C(C)(C)C3C(O)C52C2C(=CCC(CC13OCCO3)OC4O)C2(C)C

>  <smiles>  (240) 
[H]OC1([H])OC2([H])C([H])([H])C([H])=C3C([H])(C3(C([H])([H])[H])C([H])([H])[H])C34C([H])(O[H])C5([H])C(C([H])([H])[H])(C([H])([H])[H])C3([H])C([H])([H])C([H])([H])C15C4([H])C([H])(C([H])([H])[H])C1(OC([H])([H])C([H])([H])O1)C2([H])[H]

$$$$
81:0:2
     RDKit          3D

 69 75  0  0  1  0  0  0  0  0999 V2000
    2.1996   -6.5889    1.5441 C   0  0  0  0  0  0  0  0  0  0  0  0
    2.3457   -5.3261    2.4349 C   0  0  2  0  0  0  0  0  0  0  0  0
    3.5360   -4.2672    2.2437 C   0  0  1  0  0  0  0  0  0  0  0  0
    4.8456   -4.5012    1.4839 C   0  0  1  0  0  0  0  0  0  0  0  0
    4.3900   -5.0163    0.0955 C   0  0  0  0  0  0  0  0  0  0  0  0
    3.2551   -4.0157   -0.3765 C   0  0  0  0  0  0  0  0  0  0  0  0
    3.4098   -2.6292    0.3463 C   0  0  2  0  0  0  0  0  0  0  0  0
    4.8864   -2.2291    0.0383 C   0  0  0  0  0  0  0  0  0  0  0  0
    5.5687   -2.5947   -1.3248 C   0  0  0  0  0  0  0  0  0  0  0  0
    4.9626   -0.6729   -0.0195 C   0  0  0  0  0  0  0  0  0  0  0  0
    5.5110   -3.0341    1.2612 C   0  0  1  0  0  0  0  0  0  0  0  0
    4.8637   -2.3414    2.4162 C   0  0  1  0  0  0  0  0  0  0  0  0
    5.2385   -1.0030    2.6692 O   0  0  0  0  0  0  0  0  0  0  0  0
    3.4110   -2.7641    1.9620 C   0  0  2  0  0  0  0  0  0  0  0  0
    2.2984   -2.3008    2.9209 C   0  0  1  0  0  0  0  0  0  0  0  0
    2.8223   -2.1680    4.3395 C   0  0  0  0  0  0  0  0  0  0  0  0
    3.5706   -2.6429    5.3849 C   0  0  0  0  0  0  0  0  0  0  0  0
    4.4406   -3.9224    5.7103 C   0  0  0  0  0  0  0  0  0  0  0  0
    4.7830   -5.2057    4.8098 C   0  0  1  0  0  0  0  0  0  0  0  0
    3.6253   -6.2576    4.6211 C   0  0  0  0  0  0  0  0  0  0  0  0
    2.2916   -5.7813    3.9543 C   0  0  0  0  0  0  0  0  0  0  0  0
    1.7865   -4.7230    4.6976 O   0  0  0  0  0  0  0  0  0  0  0  0
    0.6599   -5.1564    5.4129 C   0  0  0  0  0  0  0  0  0  0  0  0
    0.1706   -6.2834    4.5292 C   0  0  0  0  0  0  0  0  0  0  0  0
    1.3904   -6.8358    4.1010 O   0  0  0  0  0  0  0  0  0  0  0  0
    5.7930   -4.9968    3.7581 O   0  0  0  0  0  0  0  0  0  0  0  0
    5.7606   -5.4124    2.3818 C   0  0  1  0  0  0  0  0  0  0  0  0
    5.5137   -6.7841    2.2081 O   0  0  0  0  0  0  0  0  0  0  0  0
    2.0403   -1.0195    3.7964 C   0  0  0  0  0  0  0  0  0  0  0  0
    2.7091    0.3007    3.4756 C   0  0  0  0  0  0  0  0  0  0  0  0
    0.6493   -0.8097    4.3652 C   0  0  0  0  0  0  0  0  0  0  0  0
    3.0365   -7.2741    1.6213 H   0  0  0  0  0  0  0  0  0  0  0  0
    2.0256   -6.3660    0.4957 H   0  0  0  0  0  0  0  0  0  0  0  0
    1.3173   -7.1685    1.8016 H   0  0  0  0  0  0  0  0  0  0  0  0
    1.4153   -4.8041    2.2540 H   0  0  0  0  0  0  0  0  0  0  0  0
    3.7186   -4.1260    3.2454 H   0  0  0  0  0  0  0  0  0  0  0  0
    5.2237   -5.0828   -0.5910 H   0  0  0  0  0  0  0  0  0  0  0  0
    4.0718   -6.0484    0.0805 H   0  0  0  0  0  0  0  0  0  0  0  0
    3.2641   -3.9130   -1.4600 H   0  0  0  0  0  0  0  0  0  0  0  0
    2.2568   -4.3840   -0.1644 H   0  0  0  0  0  0  0  0  0  0  0  0
    2.6829   -1.9017   -0.0164 H   0  0  0  0  0  0  0  0  0  0  0  0
    6.3002   -1.8438   -1.6141 H   0  0  0  0  0  0  0  0  0  0  0  0
    4.8685   -2.6540   -2.1576 H   0  0  0  0  0  0  0  0  0  0  0  0
    6.1757   -3.4924   -1.3004 H   0  0  0  0  0  0  0  0  0  0  0  0
    5.9616   -0.3103    0.2245 H   0  0  0  0  0  0  0  0  0  0  0  0
    4.2476   -0.1777    0.6333 H   0  0  0  0  0  0  0  0  0  0  0  0
    4.7116   -0.2938   -1.0112 H   0  0  0  0  0  0  0  0  0  0  0  0
    6.6000   -3.0061    1.2881 H   0  0  0  0  0  0  0  0  0  0  0  0
    5.2245   -2.7822    3.3384 H   0  0  0  0  0  0  0  0  0  0  0  0
    4.7064   -0.6849    3.3802 H   0  0  0  0  0  0  0  0  0  0  0  0
    1.3475   -2.7776    2.7028 H   0  0  0  0  0  0  0  0  0  0  0  0
    3.5862   -1.9669    6.2250 H   0  0  0  0  0  0  0  0  0  0  0  0
    5.4007   -3.5257    6.0409 H   0  0  0  0  0  0  0  0  0  0  0  0
    3.9923   -4.3175    6.6229 H   0  0  0  0  0  0  0  0  0  0  0  0
    5.4260   -5.7636    5.4928 H   0  0  0  0  0  0  0  0  0  0  0  0
    3.9809   -7.1617    4.1302 H   0  0  0  0  0  0  0  0  0  0  0  0
    3.3482   -6.6008    5.6180 H   0  0  0  0  0  0  0  0  0  0  0  0
    0.9677   -5.5208    6.3927 H   0  0  0  0  0  0  0  0  0  0  0  0
   -0.0630   -4.3501    5.5388 H   0  0  0  0  0  0  0  0  0  0  0  0
   -0.4574   -7.0040    5.0510 H   0  0  0  0  0  0  0  0  0  0  0  0
   -0.3720   -5.8973    3.6692 H   0  0  0  0  0  0  0  0  0  0  0  0
    6.7891   -5.2740    2.0529 H   0  0  0  0  0  0  0  0  0  0  0  0
    4.6236   -6.9519    2.4770 H   0  0  0  0  0  0  0  0  0  0  0  0
    2.0329    1.1407    3.6471 H   0  0  0  0  0  0  0  0  0  0  0  0
    2.9859    0.3238    2.4220 H   0  0  0  0  0  0  0  0  0  0  0  0
    3.5909    0.4472    4.0986 H   0  0  0  0  0  0  0  0  0  0  0  0
    0.0073   -0.3286    3.6250 H   0  0  0  0  0  0  0  0  0  0  0  0
    0.6843   -0.1850    5.2579 H   0  0  0  0  0  0  0  0  0  0  0  0
    0.1990   -1.7680    4.6321 H   0  0  0  0  0  0  0  0  0  0  0  0
  1  2  1  0
  1 32  1  0
  1 33  1  0
  1 34  1  0
  2 21  1  0
  2  3  1  0
  2 35  1  6
  3 14  1  0
  3  4  1  0
  3 36  1  1
  4 11  1  0
  4 27  1  0
  4  5  1  6
  5  6  1  0
  5 37  1  0
  5 38  1  0
  6  7  1  0
  6 39  1  0
  6 40  1  0
 14  7  1  6
  7  8  1  0
  7 41  1  1
  8  9  1  0
  8 10  1  0
  8 11  1  0
  9 42  1  0
  9 43  1  0
  9 44  1  0
 10 45  1  0
 10 46  1  0
 10 47  1  0
 11 12  1  0
 11 48  1  1
 12 13  1  0
 12 14  1  0
 12 49  1  1
 13 50  1  0
 14 15  1  0
 15 29  1  0
 15 16  1  0
 15 51  1  1
 16 17  2  3
 16 29  1  0
 17 18  1  0
 17 52  1  0
 18 19  1  0
 18 53  1  0
 18 54  1  0
 19 20  1  0
 19 26  1  0
 19 55  1  1
 20 21  1  0
 20 56  1  0
 20 57  1  0
 21 25  1  0
 21 22  1  0
 22 23  1  0
 23 24  1  0
 23 58  1  0
 23 59  1  0
 24 25  1  0
 24 60  1  0
 24 61  1  0
 26 27  1  0
 27 28  1  0
 27 62  1  6
 28 63  1  0
 29 30  1  0
 29 31  1  0
 30 64  1  0
 30 65  1  0
 30 66  1  0
 31 67  1  0
 31 68  1  0
 31 69  1  0
M  END
>  <i_m_ct_stereo_status>  (241) 
1

>  <s_m_source_file>  (241) 
/var/tmp/pbs.5076255.sched01/tmp378oxcv0/78pm6kuo1p.sdf

>  <i_m_source_file_index>  (241) 
33

>  <i_lp_mmshare_version>  (241) 
48012

>  <i_f3d_flags>  (241) 
0

>  <s_epik_input>  (241) 
TzFbQ0gyXVtDSDJdT0MxKFtDQEBIXTJbQ0gzXSlbQ0gyXVtDQEBIXShPW0NASF0zW09IXSlbQ0gyXS9bQ0hdPUMoQzQoW0NIM10pW0NIM10pXFtDSF00W0NAQF01KFtDQEhdMltDQEBdMzY3KVtDQEhdKFtDSDJdW0NIMl02KUMoW0NIM10pKFtDSDNdKVtDQEhdN1tDQEhdNVtPSF0=

>  <s_epik_cmdline>  (241) 
J2VwaWtfcHl0aG9uJywgJy1waHQnLCAnMi4wJywgJy1waCcsICc3LjAnLCAnLXRuJywgJzgnLCAnLW1hJywgJzIwMCcsICctaW1hZScsICc8aW5maWxlLm1hZT4nLCAnLW9tYWUnLCAnPG91dGZpbGUubWFlPic=

>  <r_lp_tautomer_probability>  (241) 
1

>  <r_epik_Ionization_Penalty>  (241) 
5.46082e-07

>  <r_epik_Ionization_Penalty_Charging>  (241) 
0

>  <r_epik_Ionization_Penalty_Neutral>  (241) 
5.46082e-07

>  <r_epik_State_Penalty>  (241) 
-0

>  <r_epik_Charging_Adjusted_Penalty>  (241) 
0

>  <i_epik_Tot_Q>  (241) 
0

>  <i_epik_Tot_abs_Q>  (241) 
0

>  <s_epik_Chemistry_Notes>  (241) 
This compound contains an acetal/aminal-like group ( X-CH(R)-Y where X, Y are N, S, or O) that may be acid/base labile, releasing an aldehyde.

>  <s_lp_Force_Field>  (241) 
OPLS3e

>  <r_lp_Energy>  (241) 
183.337

>  <b_lp_Chiralities_Consistent>  (241) 
1

>  <s_lp_Variant>  (241) 
81:0-1

>  <s_i_glide_gridfile>  (241) 
pfpi4k_grid

>  <i_i_glide_lignum>  (241) 
33

>  <i_i_glide_rotatable_bonds>  (241) 
2

>  <r_i_docking_score>  (241) 
-2.00084

>  <r_i_glide_ligand_efficiency>  (241) 
-0.0645431

>  <r_i_glide_ligand_efficiency_sa>  (241) 
-0.202754

>  <r_i_glide_ligand_efficiency_ln>  (241) 
-0.45125

>  <r_i_glide_gscore>  (241) 
-2.00084

>  <r_i_glide_lipo>  (241) 
-0.171062

>  <r_i_glide_hbond>  (241) 
0

>  <r_i_glide_metal>  (241) 
-0

>  <r_i_glide_rewards>  (241) 
-0.502358

>  <r_i_glide_evdw>  (241) 
-26.4061

>  <r_i_glide_ecoul>  (241) 
-0.0459807

>  <r_i_glide_erotb>  (241) 
0

>  <r_i_glide_esite>  (241) 
-0.00021183

>  <r_i_glide_emodel>  (241) 
-29.4346

>  <r_i_glide_energy>  (241) 
-26.4521

>  <r_i_glide_einternal>  (241) 
0.337291

>  <r_i_glide_intrahb_reward>  (241) 
-0

>  <i_i_glide_confnum>  (241) 
5

>  <i_i_glide_posenum>  (241) 
7

>  <r_i_glide_eff_state_penalty>  (241) 
0

>  <ligand_id>  (241) 
81

>  <original_smiles>  (241) 
CC1C2C34CCC5C(C)(C)C3C(O)C52C2C(=CCC(CC13OCCO3)OC4O)C2(C)C

>  <smiles>  (241) 
[H]OC1([H])OC2([H])C([H])([H])C([H])=C3C([H])(C3(C([H])([H])[H])C([H])([H])[H])C34C([H])(O[H])C5([H])C(C([H])([H])[H])(C([H])([H])[H])C3([H])C([H])([H])C([H])([H])C15C4([H])C([H])(C([H])([H])[H])C1(OC([H])([H])C([H])([H])O1)C2([H])[H]

$$$$
81:1:0
     RDKit          3D

 69 75  0  0  1  0  0  0  0  0999 V2000
    2.5865   -3.7465   -0.6651 C   0  0  0  0  0  0  0  0  0  0  0  0
    4.0659   -3.6183   -0.2405 C   0  0  2  0  0  0  0  0  0  0  0  0
    4.3665   -3.1844    1.2607 C   0  0  1  0  0  0  0  0  0  0  0  0
    4.5336   -1.8076    1.8844 C   0  0  1  0  0  0  0  0  0  0  0  0
    3.1789   -1.1542    1.5077 C   0  0  0  0  0  0  0  0  0  0  0  0
    2.0517   -2.1289    2.0558 C   0  0  0  0  0  0  0  0  0  0  0  0
    2.6393   -3.2109    3.0440 C   0  0  2  0  0  0  0  0  0  0  0  0
    3.2206   -2.3070    4.1745 C   0  0  0  0  0  0  0  0  0  0  0  0
    2.5687   -0.9377    4.5553 C   0  0  0  0  0  0  0  0  0  0  0  0
    3.1032   -3.0709    5.5286 C   0  0  0  0  0  0  0  0  0  0  0  0
    4.6276   -2.0995    3.4791 C   0  0  1  0  0  0  0  0  0  0  0  0
    5.1443   -3.5211    3.4315 C   0  0  1  0  0  0  0  0  0  0  0  0
    5.4604   -4.1396    4.6624 O   0  0  0  0  0  0  0  0  0  0  0  0
    3.9681   -3.9911    2.4992 C   0  0  2  0  0  0  0  0  0  0  0  0
    4.0713   -5.4591    2.0046 C   0  0  1  0  0  0  0  0  0  0  0  0
    5.5126   -5.9011    1.8214 C   0  0  0  0  0  0  0  0  0  0  0  0
    6.7780   -5.6101    1.3363 C   0  0  0  0  0  0  0  0  0  0  0  0
    7.6792   -4.5465    0.6228 C   0  0  0  0  0  0  0  0  0  0  0  0
    7.2362   -3.0364    0.1940 C   0  0  1  0  0  0  0  0  0  0  0  0
    6.5068   -2.8538   -1.1823 C   0  0  0  0  0  0  0  0  0  0  0  0
    4.9195   -2.8650   -1.3027 C   0  0  0  0  0  0  0  0  0  0  0  0
    4.4627   -1.5570   -1.3683 O   0  0  0  0  0  0  0  0  0  0  0  0
    3.5765   -1.4482   -2.4588 C   0  0  0  0  0  0  0  0  0  0  0  0
    4.1778   -2.4645   -3.4041 C   0  0  0  0  0  0  0  0  0  0  0  0
    4.6578   -3.4676   -2.5364 O   0  0  0  0  0  0  0  0  0  0  0  0
    7.0056   -2.0844    1.2856 O   0  0  0  0  0  0  0  0  0  0  0  0
    5.9145   -1.1635    1.4077 C   0  0  1  0  0  0  0  0  0  0  0  0
    5.7838   -0.2612    0.3433 O   0  0  0  0  0  0  0  0  0  0  0  0
    4.6204   -6.7912    2.6198 C   0  0  0  0  0  0  0  0  0  0  0  0
    4.7951   -6.9496    4.1180 C   0  0  0  0  0  0  0  0  0  0  0  0
    4.1326   -8.0871    1.9612 C   0  0  0  0  0  0  0  0  0  0  0  0
    2.0953   -2.7857   -0.7111 H   0  0  0  0  0  0  0  0  0  0  0  0
    2.0181   -4.3819    0.0063 H   0  0  0  0  0  0  0  0  0  0  0  0
    2.4816   -4.1859   -1.6524 H   0  0  0  0  0  0  0  0  0  0  0  0
    4.4223   -4.6360   -0.3664 H   0  0  0  0  0  0  0  0  0  0  0  0
    5.3288   -3.4515    1.1819 H   0  0  0  0  0  0  0  0  0  0  0  0
    3.1027   -0.1405    1.8806 H   0  0  0  0  0  0  0  0  0  0  0  0
    3.0579   -1.0409    0.4383 H   0  0  0  0  0  0  0  0  0  0  0  0
    1.2475   -1.5430    2.5003 H   0  0  0  0  0  0  0  0  0  0  0  0
    1.5141   -2.6209    1.2603 H   0  0  0  0  0  0  0  0  0  0  0  0
    1.8561   -3.8899    3.3965 H   0  0  0  0  0  0  0  0  0  0  0  0
    2.9757   -0.5702    5.4981 H   0  0  0  0  0  0  0  0  0  0  0  0
    1.4909   -1.0238    4.6949 H   0  0  0  0  0  0  0  0  0  0  0  0
    2.7470   -0.1195    3.8681 H   0  0  0  0  0  0  0  0  0  0  0  0
    3.8627   -2.7418    6.2399 H   0  0  0  0  0  0  0  0  0  0  0  0
    3.1743   -4.1538    5.4203 H   0  0  0  0  0  0  0  0  0  0  0  0
    2.1321   -2.9129    5.9999 H   0  0  0  0  0  0  0  0  0  0  0  0
    5.2720   -1.4229    4.0351 H   0  0  0  0  0  0  0  0  0  0  0  0
    6.1336   -3.5395    2.9835 H   0  0  0  0  0  0  0  0  0  0  0  0
    6.1581   -3.6481    5.0682 H   0  0  0  0  0  0  0  0  0  0  0  0
    3.3021   -5.6871    1.2641 H   0  0  0  0  0  0  0  0  0  0  0  0
    6.3187   -5.0079    0.6255 H   0  0  0  0  0  0  0  0  0  0  0  0
    8.5650   -4.4672    1.2397 H   0  0  0  0  0  0  0  0  0  0  0  0
    8.0085   -5.0093   -0.3047 H   0  0  0  0  0  0  0  0  0  0  0  0
    8.2177   -2.6652   -0.0852 H   0  0  0  0  0  0  0  0  0  0  0  0
    6.8251   -1.9065   -1.6104 H   0  0  0  0  0  0  0  0  0  0  0  0
    6.9072   -3.5824   -1.8734 H   0  0  0  0  0  0  0  0  0  0  0  0
    2.5577   -1.7276   -2.2182 H   0  0  0  0  0  0  0  0  0  0  0  0
    3.5532   -0.4399   -2.8557 H   0  0  0  0  0  0  0  0  0  0  0  0
    3.4731   -2.8586   -4.1342 H   0  0  0  0  0  0  0  0  0  0  0  0
    5.0040   -2.0096   -3.9412 H   0  0  0  0  0  0  0  0  0  0  0  0
    6.2436   -0.5244    2.2186 H   0  0  0  0  0  0  0  0  0  0  0  0
    5.1832   -0.6619   -0.2767 H   0  0  0  0  0  0  0  0  0  0  0  0
    4.0694   -6.3340    4.6525 H   0  0  0  0  0  0  0  0  0  0  0  0
    5.8026   -6.6586    4.4102 H   0  0  0  0  0  0  0  0  0  0  0  0
    4.6421   -7.9794    4.4335 H   0  0  0  0  0  0  0  0  0  0  0  0
    3.1629   -8.3915    2.3611 H   0  0  0  0  0  0  0  0  0  0  0  0
    4.8400   -8.8971    2.1264 H   0  0  0  0  0  0  0  0  0  0  0  0
    4.0117   -7.9669    0.8807 H   0  0  0  0  0  0  0  0  0  0  0  0
  1  2  1  0
  1 32  1  0
  1 33  1  0
  1 34  1  0
  2 21  1  0
  2  3  1  0
  2 35  1  1
  3 14  1  0
  3  4  1  0
  3 36  1  6
  4 11  1  0
  4 27  1  0
  4  5  1  1
  5  6  1  0
  5 37  1  0
  5 38  1  0
  6  7  1  0
  6 39  1  0
  6 40  1  0
 14  7  1  1
  7  8  1  0
  7 41  1  1
  8  9  1  0
  8 10  1  0
  8 11  1  0
  9 42  1  0
  9 43  1  0
  9 44  1  0
 10 45  1  0
 10 46  1  0
 10 47  1  0
 11 12  1  0
 11 48  1  1
 12 13  1  0
 12 14  1  0
 12 49  1  6
 13 50  1  0
 14 15  1  0
 15 29  1  0
 15 16  1  0
 15 51  1  6
 16 17  2  3
 16 29  1  0
 17 18  1  0
 17 52  1  0
 18 19  1  0
 18 53  1  0
 18 54  1  0
 19 20  1  0
 19 26  1  0
 19 55  1  6
 20 21  1  0
 20 56  1  0
 20 57  1  0
 21 25  1  0
 21 22  1  0
 22 23  1  0
 23 24  1  0
 23 58  1  0
 23 59  1  0
 24 25  1  0
 24 60  1  0
 24 61  1  0
 26 27  1  0
 27 28  1  0
 27 62  1  1
 28 63  1  0
 29 30  1  0
 29 31  1  0
 30 64  1  0
 30 65  1  0
 30 66  1  0
 31 67  1  0
 31 68  1  0
 31 69  1  0
M  END
>  <i_m_ct_stereo_status>  (242) 
1

>  <s_m_source_file>  (242) 
/var/tmp/pbs.5076255.sched01/tmp378oxcv0/78pm6kuo1p.sdf

>  <i_m_source_file_index>  (242) 
34

>  <i_lp_mmshare_version>  (242) 
48012

>  <i_f3d_flags>  (242) 
0

>  <s_epik_input>  (242) 
TzFbQ0gyXVtDSDJdT0MxKFtDQEBIXTJbQ0gzXSlbQ0gyXVtDQEBIXShPW0NASF0zW09IXSlbQ0gyXS9bQ0hdPUMoQzQoW0NIM10pW0NIM10pXFtDSF00W0NAQF01KFtDQEhdMltDQEBdMzY3KVtDQEhdKFtDSDJdW0NIMl02KUMoW0NIM10pKFtDSDNdKVtDQEhdN1tDQEhdNVtPSF0=

>  <s_epik_cmdline>  (242) 
J2VwaWtfcHl0aG9uJywgJy1waHQnLCAnMi4wJywgJy1waCcsICc3LjAnLCAnLXRuJywgJzgnLCAnLW1hJywgJzIwMCcsICctaW1hZScsICc8aW5maWxlLm1hZT4nLCAnLW9tYWUnLCAnPG91dGZpbGUubWFlPic=

>  <r_lp_tautomer_probability>  (242) 
1

>  <r_epik_Ionization_Penalty>  (242) 
5.46082e-07

>  <r_epik_Ionization_Penalty_Charging>  (242) 
0

>  <r_epik_Ionization_Penalty_Neutral>  (242) 
5.46082e-07

>  <r_epik_State_Penalty>  (242) 
-0

>  <r_epik_Charging_Adjusted_Penalty>  (242) 
0

>  <i_epik_Tot_Q>  (242) 
0

>  <i_epik_Tot_abs_Q>  (242) 
0

>  <s_epik_Chemistry_Notes>  (242) 
This compound contains an acetal/aminal-like group ( X-CH(R)-Y where X, Y are N, S, or O) that may be acid/base labile, releasing an aldehyde.

>  <s_lp_Force_Field>  (242) 
OPLS3e

>  <r_lp_Energy>  (242) 
184.758

>  <b_lp_Chiralities_Consistent>  (242) 
1

>  <s_lp_Variant>  (242) 
81:0-2

>  <s_i_glide_gridfile>  (242) 
pfpi4k_grid

>  <i_i_glide_lignum>  (242) 
34

>  <i_i_glide_rotatable_bonds>  (242) 
2

>  <r_i_docking_score>  (242) 
-1.3597

>  <r_i_glide_ligand_efficiency>  (242) 
-0.0438612

>  <r_i_glide_ligand_efficiency_sa>  (242) 
-0.137785

>  <r_i_glide_ligand_efficiency_ln>  (242) 
-0.306653

>  <r_i_glide_gscore>  (242) 
-1.3597

>  <r_i_glide_lipo>  (242) 
-0.74558

>  <r_i_glide_hbond>  (242) 
0

>  <r_i_glide_metal>  (242) 
-0

>  <r_i_glide_rewards>  (242) 
-1.18887

>  <r_i_glide_evdw>  (242) 
-28.3787

>  <r_i_glide_ecoul>  (242) 
1.29348

>  <r_i_glide_erotb>  (242) 
0

>  <r_i_glide_esite>  (242) 
-0.000675816

>  <r_i_glide_emodel>  (242) 
-26.2285

>  <r_i_glide_energy>  (242) 
-27.0852

>  <r_i_glide_einternal>  (242) 
0.824276

>  <r_i_glide_intrahb_reward>  (242) 
-0.5

>  <i_i_glide_confnum>  (242) 
2

>  <i_i_glide_posenum>  (242) 
33

>  <r_i_glide_eff_state_penalty>  (242) 
0

>  <ligand_id>  (242) 
81

>  <original_smiles>  (242) 
CC1C2C34CCC5C(C)(C)C3C(O)C52C2C(=CCC(CC13OCCO3)OC4O)C2(C)C

>  <smiles>  (242) 
[H]OC1([H])OC2([H])C([H])([H])C([H])=C3C([H])(C3(C([H])([H])[H])C([H])([H])[H])C34C([H])(O[H])C5([H])C(C([H])([H])[H])(C([H])([H])[H])C3([H])C([H])([H])C([H])([H])C15C4([H])C([H])(C([H])([H])[H])C1(OC([H])([H])C([H])([H])O1)C2([H])[H]

$$$$
81:1:1
     RDKit          3D

 69 75  0  0  1  0  0  0  0  0999 V2000
    2.5906   -3.6911   -0.7285 C   0  0  0  0  0  0  0  0  0  0  0  0
    4.0628   -3.5880   -0.2869 C   0  0  2  0  0  0  0  0  0  0  0  0
    4.3511   -3.1625    1.2181 C   0  0  1  0  0  0  0  0  0  0  0  0
    4.5364   -1.7831    1.8446 C   0  0  1  0  0  0  0  0  0  0  0  0
    3.1946   -1.1161    1.4563 C   0  0  0  0  0  0  0  0  0  0  0  0
    2.0473   -2.0698    1.9834 C   0  0  0  0  0  0  0  0  0  0  0  0
    2.6011   -3.1674    2.9805 C   0  0  2  0  0  0  0  0  0  0  0  0
    3.1862   -2.2723    4.1174 C   0  0  0  0  0  0  0  0  0  0  0  0
    2.5478   -0.8941    4.4940 C   0  0  0  0  0  0  0  0  0  0  0  0
    3.0391   -3.0378    5.4704 C   0  0  0  0  0  0  0  0  0  0  0  0
    4.6010   -2.0861    3.4419 C   0  0  1  0  0  0  0  0  0  0  0  0
    5.0991   -3.5129    3.3993 C   0  0  1  0  0  0  0  0  0  0  0  0
    5.3955   -4.1424    4.6298 O   0  0  0  0  0  0  0  0  0  0  0  0
    3.9301   -3.9630    2.4508 C   0  0  2  0  0  0  0  0  0  0  0  0
    4.0136   -5.4369    1.9539 C   0  0  1  0  0  0  0  0  0  0  0  0
    5.4581   -5.8860    1.7858 C   0  0  0  0  0  0  0  0  0  0  0  0
    6.7161   -5.6329    1.3229 C   0  0  0  0  0  0  0  0  0  0  0  0
    7.6446   -4.5554    0.6259 C   0  0  0  0  0  0  0  0  0  0  0  0
    7.2398   -3.0575    0.1921 C   0  0  1  0  0  0  0  0  0  0  0  0
    6.5273   -2.8587   -1.1904 C   0  0  0  0  0  0  0  0  0  0  0  0
    4.9484   -2.8510   -1.3386 C   0  0  0  0  0  0  0  0  0  0  0  0
    4.4966   -1.5394   -1.4140 O   0  0  0  0  0  0  0  0  0  0  0  0
    3.6245   -1.4198   -2.5070 C   0  0  0  0  0  0  0  0  0  0  0  0
    4.2344   -2.4404   -3.4424 C   0  0  0  0  0  0  0  0  0  0  0  0
    4.6823   -3.4540   -2.5712 O   0  0  0  0  0  0  0  0  0  0  0  0
    7.0100   -2.0971    1.2613 O   0  0  0  0  0  0  0  0  0  0  0  0
    5.9342   -1.1592    1.3892 C   0  0  1  0  0  0  0  0  0  0  0  0
    5.8567   -0.2543    0.3404 O   0  0  0  0  0  0  0  0  0  0  0  0
    4.5345   -6.7759    2.5806 C   0  0  0  0  0  0  0  0  0  0  0  0
    4.6884   -6.9385    4.0771 C   0  0  0  0  0  0  0  0  0  0  0  0
    4.0369   -8.0611    1.9107 C   0  0  0  0  0  0  0  0  0  0  0  0
    2.1243   -2.7229   -0.7860 H   0  0  0  0  0  0  0  0  0  0  0  0
    2.0015   -4.3211   -0.0652 H   0  0  0  0  0  0  0  0  0  0  0  0
    2.4916   -4.1286   -1.7173 H   0  0  0  0  0  0  0  0  0  0  0  0
    4.4095   -4.6158   -0.4077 H   0  0  0  0  0  0  0  0  0  0  0  0
    5.3140   -3.4523    1.1513 H   0  0  0  0  0  0  0  0  0  0  0  0
    3.1281   -0.0993    1.8283 H   0  0  0  0  0  0  0  0  0  0  0  0
    3.0921   -0.9989    0.3823 H   0  0  0  0  0  0  0  0  0  0  0  0
    1.2455   -1.4748    2.4200 H   0  0  0  0  0  0  0  0  0  0  0  0
    1.5115   -2.5529    1.1814 H   0  0  0  0  0  0  0  0  0  0  0  0
    1.8063   -3.8315    3.3199 H   0  0  0  0  0  0  0  0  0  0  0  0
    2.9482   -0.5340    5.4426 H   0  0  0  0  0  0  0  0  0  0  0  0
    1.4673   -0.9636    4.6193 H   0  0  0  0  0  0  0  0  0  0  0  0
    2.7475   -0.0776    3.8108 H   0  0  0  0  0  0  0  0  0  0  0  0
    3.7948   -2.7203    6.1905 H   0  0  0  0  0  0  0  0  0  0  0  0
    3.0952   -4.1205    5.3611 H   0  0  0  0  0  0  0  0  0  0  0  0
    2.0645   -2.8640    5.9290 H   0  0  0  0  0  0  0  0  0  0  0  0
    5.2517   -1.4235    4.0114 H   0  0  0  0  0  0  0  0  0  0  0  0
    6.0941   -3.5433    2.9620 H   0  0  0  0  0  0  0  0  0  0  0  0
    5.6718   -5.0321    4.4431 H   0  0  0  0  0  0  0  0  0  0  0  0
    3.2522   -5.6504    1.2037 H   0  0  0  0  0  0  0  0  0  0  0  0
    6.3104   -5.0149    0.5749 H   0  0  0  0  0  0  0  0  0  0  0  0
    8.5267   -4.5106    1.2591 H   0  0  0  0  0  0  0  0  0  0  0  0
    7.9788   -5.0412   -0.3230 H   0  0  0  0  0  0  0  0  0  0  0  0
    8.2275   -2.7014   -0.0737 H   0  0  0  0  0  0  0  0  0  0  0  0
    6.8644   -1.9198   -1.6132 H   0  0  0  0  0  0  0  0  0  0  0  0
    6.9284   -3.5947   -1.8811 H   0  0  0  0  0  0  0  0  0  0  0  0
    2.6032   -1.6762   -2.2781 H   0  0  0  0  0  0  0  0  0  0  0  0
    3.6346   -0.4072   -2.9060 H   0  0  0  0  0  0  0  0  0  0  0  0
    3.5411   -2.8174   -4.1941 H   0  0  0  0  0  0  0  0  0  0  0  0
    5.1022   -1.9938   -3.9297 H   0  0  0  0  0  0  0  0  0  0  0  0
    6.2576   -0.5315    2.2194 H   0  0  0  0  0  0  0  0  0  0  0  0
    5.0880    0.2969    0.4726 H   0  0  0  0  0  0  0  0  0  0  0  0
    3.9638   -6.3142    4.6041 H   0  0  0  0  0  0  0  0  0  0  0  0
    5.6993   -6.6753    4.3841 H   0  0  0  0  0  0  0  0  0  0  0  0
    4.5121   -7.9665    4.3865 H   0  0  0  0  0  0  0  0  0  0  0  0
    3.0575   -8.3517    2.2966 H   0  0  0  0  0  0  0  0  0  0  0  0
    4.7295   -8.8834    2.0830 H   0  0  0  0  0  0  0  0  0  0  0  0
    3.9322   -7.9382    0.8286 H   0  0  0  0  0  0  0  0  0  0  0  0
  1  2  1  0
  1 32  1  0
  1 33  1  0
  1 34  1  0
  2 21  1  0
  2  3  1  0
  2 35  1  1
  3 14  1  0
  3  4  1  0
  3 36  1  6
  4 11  1  0
  4 27  1  0
  4  5  1  1
  5  6  1  0
  5 37  1  0
  5 38  1  0
  6  7  1  0
  6 39  1  0
  6 40  1  0
 14  7  1  1
  7  8  1  0
  7 41  1  1
  8  9  1  0
  8 10  1  0
  8 11  1  0
  9 42  1  0
  9 43  1  0
  9 44  1  0
 10 45  1  0
 10 46  1  0
 10 47  1  0
 11 12  1  0
 11 48  1  1
 12 13  1  0
 12 14  1  0
 12 49  1  6
 13 50  1  0
 14 15  1  0
 15 29  1  0
 15 16  1  0
 15 51  1  6
 16 17  2  3
 16 29  1  0
 17 18  1  0
 17 52  1  0
 18 19  1  0
 18 53  1  0
 18 54  1  0
 19 20  1  0
 19 26  1  0
 19 55  1  6
 20 21  1  0
 20 56  1  0
 20 57  1  0
 21 25  1  0
 21 22  1  0
 22 23  1  0
 23 24  1  0
 23 58  1  0
 23 59  1  0
 24 25  1  0
 24 60  1  0
 24 61  1  0
 26 27  1  0
 27 28  1  0
 27 62  1  1
 28 63  1  0
 29 30  1  0
 29 31  1  0
 30 64  1  0
 30 65  1  0
 30 66  1  0
 31 67  1  0
 31 68  1  0
 31 69  1  0
M  END
>  <i_m_ct_stereo_status>  (243) 
1

>  <s_m_source_file>  (243) 
/var/tmp/pbs.5076255.sched01/tmp378oxcv0/78pm6kuo1p.sdf

>  <i_m_source_file_index>  (243) 
34

>  <i_lp_mmshare_version>  (243) 
48012

>  <i_f3d_flags>  (243) 
0

>  <s_epik_input>  (243) 
TzFbQ0gyXVtDSDJdT0MxKFtDQEBIXTJbQ0gzXSlbQ0gyXVtDQEBIXShPW0NASF0zW09IXSlbQ0gyXS9bQ0hdPUMoQzQoW0NIM10pW0NIM10pXFtDSF00W0NAQF01KFtDQEhdMltDQEBdMzY3KVtDQEhdKFtDSDJdW0NIMl02KUMoW0NIM10pKFtDSDNdKVtDQEhdN1tDQEhdNVtPSF0=

>  <s_epik_cmdline>  (243) 
J2VwaWtfcHl0aG9uJywgJy1waHQnLCAnMi4wJywgJy1waCcsICc3LjAnLCAnLXRuJywgJzgnLCAnLW1hJywgJzIwMCcsICctaW1hZScsICc8aW5maWxlLm1hZT4nLCAnLW9tYWUnLCAnPG91dGZpbGUubWFlPic=

>  <r_lp_tautomer_probability>  (243) 
1

>  <r_epik_Ionization_Penalty>  (243) 
5.46082e-07

>  <r_epik_Ionization_Penalty_Charging>  (243) 
0

>  <r_epik_Ionization_Penalty_Neutral>  (243) 
5.46082e-07

>  <r_epik_State_Penalty>  (243) 
-0

>  <r_epik_Charging_Adjusted_Penalty>  (243) 
0

>  <i_epik_Tot_Q>  (243) 
0

>  <i_epik_Tot_abs_Q>  (243) 
0

>  <s_epik_Chemistry_Notes>  (243) 
This compound contains an acetal/aminal-like group ( X-CH(R)-Y where X, Y are N, S, or O) that may be acid/base labile, releasing an aldehyde.

>  <s_lp_Force_Field>  (243) 
OPLS3e

>  <r_lp_Energy>  (243) 
184.758

>  <b_lp_Chiralities_Consistent>  (243) 
1

>  <s_lp_Variant>  (243) 
81:0-2

>  <s_i_glide_gridfile>  (243) 
pfpi4k_grid

>  <i_i_glide_lignum>  (243) 
34

>  <i_i_glide_rotatable_bonds>  (243) 
2

>  <r_i_docking_score>  (243) 
-1.28291

>  <r_i_glide_ligand_efficiency>  (243) 
-0.0413842

>  <r_i_glide_ligand_efficiency_sa>  (243) 
-0.130004

>  <r_i_glide_ligand_efficiency_ln>  (243) 
-0.289336

>  <r_i_glide_gscore>  (243) 
-1.28291

>  <r_i_glide_lipo>  (243) 
-0.740062

>  <r_i_glide_hbond>  (243) 
0

>  <r_i_glide_metal>  (243) 
-0

>  <r_i_glide_rewards>  (243) 
-0.69063

>  <r_i_glide_evdw>  (243) 
-28.511

>  <r_i_glide_ecoul>  (243) 
0.0866673

>  <r_i_glide_erotb>  (243) 
0

>  <r_i_glide_esite>  (243) 
-0.000732108

>  <r_i_glide_emodel>  (243) 
-22.1512

>  <r_i_glide_energy>  (243) 
-28.4244

>  <r_i_glide_einternal>  (243) 
2.41976

>  <r_i_glide_intrahb_reward>  (243) 
-0

>  <i_i_glide_confnum>  (243) 
2

>  <i_i_glide_posenum>  (243) 
8

>  <r_i_glide_eff_state_penalty>  (243) 
0

>  <ligand_id>  (243) 
81

>  <original_smiles>  (243) 
CC1C2C34CCC5C(C)(C)C3C(O)C52C2C(=CCC(CC13OCCO3)OC4O)C2(C)C

>  <smiles>  (243) 
[H]OC1([H])OC2([H])C([H])([H])C([H])=C3C([H])(C3(C([H])([H])[H])C([H])([H])[H])C34C([H])(O[H])C5([H])C(C([H])([H])[H])(C([H])([H])[H])C3([H])C([H])([H])C([H])([H])C15C4([H])C([H])(C([H])([H])[H])C1(OC([H])([H])C([H])([H])O1)C2([H])[H]

$$$$
81:1:2
     RDKit          3D

 69 75  0  0  1  0  0  0  0  0999 V2000
    2.5603   -3.7018   -0.7134 C   0  0  0  0  0  0  0  0  0  0  0  0
    4.0425   -3.5892   -0.2769 C   0  0  2  0  0  0  0  0  0  0  0  0
    4.3282   -3.1583    1.2286 C   0  0  1  0  0  0  0  0  0  0  0  0
    4.5021   -1.7798    1.8536 C   0  0  1  0  0  0  0  0  0  0  0  0
    3.1666   -1.1167    1.4655 C   0  0  0  0  0  0  0  0  0  0  0  0
    2.0230   -2.0722    1.9997 C   0  0  0  0  0  0  0  0  0  0  0  0
    2.5831   -3.1677    2.9933 C   0  0  2  0  0  0  0  0  0  0  0  0
    3.1665   -2.2703    4.1288 C   0  0  0  0  0  0  0  0  0  0  0  0
    2.5246   -0.8938    4.5038 C   0  0  0  0  0  0  0  0  0  0  0  0
    3.0233   -3.0341    5.4823 C   0  0  0  0  0  0  0  0  0  0  0  0
    4.5822   -2.0790    3.4518 C   0  0  1  0  0  0  0  0  0  0  0  0
    5.0818   -3.5075    3.4063 C   0  0  1  0  0  0  0  0  0  0  0  0
    5.3857   -4.1281    4.6431 O   0  0  0  0  0  0  0  0  0  0  0  0
    3.9097   -3.9602    2.4606 C   0  0  2  0  0  0  0  0  0  0  0  0
    3.9929   -5.4307    1.9691 C   0  0  1  0  0  0  0  0  0  0  0  0
    5.4371   -5.8900    1.7996 C   0  0  0  0  0  0  0  0  0  0  0  0
    6.6980   -5.6135    1.3419 C   0  0  0  0  0  0  0  0  0  0  0  0
    7.6309   -4.5482    0.6608 C   0  0  0  0  0  0  0  0  0  0  0  0
    7.2110   -3.0422    0.1991 C   0  0  1  0  0  0  0  0  0  0  0  0
    6.5020   -2.8540   -1.1865 C   0  0  0  0  0  0  0  0  0  0  0  0
    4.9093   -2.8462   -1.3249 C   0  0  0  0  0  0  0  0  0  0  0  0
    4.4679   -1.5373   -1.4048 O   0  0  0  0  0  0  0  0  0  0  0  0
    3.5975   -1.4160   -2.4970 C   0  0  0  0  0  0  0  0  0  0  0  0
    4.2009   -2.4411   -3.4318 C   0  0  0  0  0  0  0  0  0  0  0  0
    4.6527   -3.4524   -2.5626 O   0  0  0  0  0  0  0  0  0  0  0  0
    6.9819   -2.0772    1.2598 O   0  0  0  0  0  0  0  0  0  0  0  0
    5.9022   -1.1517    1.4058 C   0  0  1  0  0  0  0  0  0  0  0  0
    5.8105   -0.2511    0.3541 O   0  0  0  0  0  0  0  0  0  0  0  0
    4.5197   -6.7762    2.5917 C   0  0  0  0  0  0  0  0  0  0  0  0
    4.6792   -6.9327    4.0880 C   0  0  0  0  0  0  0  0  0  0  0  0
    4.0257   -8.0594    1.9234 C   0  0  0  0  0  0  0  0  0  0  0  0
    2.0868   -2.7336   -0.7659 H   0  0  0  0  0  0  0  0  0  0  0  0
    1.9802   -4.3321   -0.0494 H   0  0  0  0  0  0  0  0  0  0  0  0
    2.4623   -4.1365   -1.7040 H   0  0  0  0  0  0  0  0  0  0  0  0
    4.3846   -4.6147   -0.3963 H   0  0  0  0  0  0  0  0  0  0  0  0
    5.2870   -3.4375    1.1619 H   0  0  0  0  0  0  0  0  0  0  0  0
    3.0977   -0.0981    1.8386 H   0  0  0  0  0  0  0  0  0  0  0  0
    3.0597   -1.0008    0.3898 H   0  0  0  0  0  0  0  0  0  0  0  0
    1.2178   -1.4807    2.4352 H   0  0  0  0  0  0  0  0  0  0  0  0
    1.4850   -2.5593    1.1986 H   0  0  0  0  0  0  0  0  0  0  0  0
    1.7879   -3.8352    3.3366 H   0  0  0  0  0  0  0  0  0  0  0  0
    2.9241   -0.5319    5.4558 H   0  0  0  0  0  0  0  0  0  0  0  0
    1.4437   -0.9647    4.6325 H   0  0  0  0  0  0  0  0  0  0  0  0
    2.7208   -0.0765    3.8220 H   0  0  0  0  0  0  0  0  0  0  0  0
    3.7803   -2.7169    6.2020 H   0  0  0  0  0  0  0  0  0  0  0  0
    3.0800   -4.1191    5.3727 H   0  0  0  0  0  0  0  0  0  0  0  0
    2.0498   -2.8628    5.9429 H   0  0  0  0  0  0  0  0  0  0  0  0
    5.2268   -1.4137    4.0152 H   0  0  0  0  0  0  0  0  0  0  0  0
    6.0733   -3.5383    2.9702 H   0  0  0  0  0  0  0  0  0  0  0  0
    6.0631   -3.6280    5.0661 H   0  0  0  0  0  0  0  0  0  0  0  0
    3.2324   -5.6499    1.2211 H   0  0  0  0  0  0  0  0  0  0  0  0
    6.2610   -5.0163    0.6093 H   0  0  0  0  0  0  0  0  0  0  0  0
    8.5137   -4.4911    1.2751 H   0  0  0  0  0  0  0  0  0  0  0  0
    7.9799   -5.0495   -0.2435 H   0  0  0  0  0  0  0  0  0  0  0  0
    8.1984   -2.6899   -0.0743 H   0  0  0  0  0  0  0  0  0  0  0  0
    6.8291   -1.9121   -1.6125 H   0  0  0  0  0  0  0  0  0  0  0  0
    6.8985   -3.5895   -1.8769 H   0  0  0  0  0  0  0  0  0  0  0  0
    2.5673   -1.6807   -2.2711 H   0  0  0  0  0  0  0  0  0  0  0  0
    3.5945   -0.4111   -2.8972 H   0  0  0  0  0  0  0  0  0  0  0  0
    3.5071   -2.8207   -4.1834 H   0  0  0  0  0  0  0  0  0  0  0  0
    5.0698   -1.9930   -3.9090 H   0  0  0  0  0  0  0  0  0  0  0  0
    6.2281   -0.5262    2.2320 H   0  0  0  0  0  0  0  0  0  0  0  0
    5.0343    0.2814    0.4639 H   0  0  0  0  0  0  0  0  0  0  0  0
    3.9565   -6.3076    4.6148 H   0  0  0  0  0  0  0  0  0  0  0  0
    5.6865   -6.6557    4.3923 H   0  0  0  0  0  0  0  0  0  0  0  0
    4.5094   -7.9607    4.3999 H   0  0  0  0  0  0  0  0  0  0  0  0
    3.0475   -8.3521    2.3132 H   0  0  0  0  0  0  0  0  0  0  0  0
    4.7214   -8.8792    2.0936 H   0  0  0  0  0  0  0  0  0  0  0  0
    3.9167   -7.9358    0.8424 H   0  0  0  0  0  0  0  0  0  0  0  0
  1  2  1  0
  1 32  1  0
  1 33  1  0
  1 34  1  0
  2 21  1  0
  2  3  1  0
  2 35  1  1
  3 14  1  0
  3  4  1  0
  3 36  1  6
  4 11  1  0
  4 27  1  0
  4  5  1  1
  5  6  1  0
  5 37  1  0
  5 38  1  0
  6  7  1  0
  6 39  1  0
  6 40  1  0
 14  7  1  1
  7  8  1  0
  7 41  1  1
  8  9  1  0
  8 10  1  0
  8 11  1  0
  9 42  1  0
  9 43  1  0
  9 44  1  0
 10 45  1  0
 10 46  1  0
 10 47  1  0
 11 12  1  0
 11 48  1  1
 12 13  1  0
 12 14  1  0
 12 49  1  6
 13 50  1  0
 14 15  1  0
 15 29  1  0
 15 16  1  0
 15 51  1  6
 16 17  2  3
 16 29  1  0
 17 18  1  0
 17 52  1  0
 18 19  1  0
 18 53  1  0
 18 54  1  0
 19 20  1  0
 19 26  1  0
 19 55  1  6
 20 21  1  0
 20 56  1  0
 20 57  1  0
 21 25  1  0
 21 22  1  0
 22 23  1  0
 23 24  1  0
 23 58  1  0
 23 59  1  0
 24 25  1  0
 24 60  1  0
 24 61  1  0
 26 27  1  0
 27 28  1  0
 27 62  1  1
 28 63  1  0
 29 30  1  0
 29 31  1  0
 30 64  1  0
 30 65  1  0
 30 66  1  0
 31 67  1  0
 31 68  1  0
 31 69  1  0
M  END
>  <i_m_ct_stereo_status>  (244) 
1

>  <s_m_source_file>  (244) 
/var/tmp/pbs.5076255.sched01/tmp378oxcv0/78pm6kuo1p.sdf

>  <i_m_source_file_index>  (244) 
34

>  <i_lp_mmshare_version>  (244) 
48012

>  <i_f3d_flags>  (244) 
0

>  <s_epik_input>  (244) 
TzFbQ0gyXVtDSDJdT0MxKFtDQEBIXTJbQ0gzXSlbQ0gyXVtDQEBIXShPW0NASF0zW09IXSlbQ0gyXS9bQ0hdPUMoQzQoW0NIM10pW0NIM10pXFtDSF00W0NAQF01KFtDQEhdMltDQEBdMzY3KVtDQEhdKFtDSDJdW0NIMl02KUMoW0NIM10pKFtDSDNdKVtDQEhdN1tDQEhdNVtPSF0=

>  <s_epik_cmdline>  (244) 
J2VwaWtfcHl0aG9uJywgJy1waHQnLCAnMi4wJywgJy1waCcsICc3LjAnLCAnLXRuJywgJzgnLCAnLW1hJywgJzIwMCcsICctaW1hZScsICc8aW5maWxlLm1hZT4nLCAnLW9tYWUnLCAnPG91dGZpbGUubWFlPic=

>  <r_lp_tautomer_probability>  (244) 
1

>  <r_epik_Ionization_Penalty>  (244) 
5.46082e-07

>  <r_epik_Ionization_Penalty_Charging>  (244) 
0

>  <r_epik_Ionization_Penalty_Neutral>  (244) 
5.46082e-07

>  <r_epik_State_Penalty>  (244) 
-0

>  <r_epik_Charging_Adjusted_Penalty>  (244) 
0

>  <i_epik_Tot_Q>  (244) 
0

>  <i_epik_Tot_abs_Q>  (244) 
0

>  <s_epik_Chemistry_Notes>  (244) 
This compound contains an acetal/aminal-like group ( X-CH(R)-Y where X, Y are N, S, or O) that may be acid/base labile, releasing an aldehyde.

>  <s_lp_Force_Field>  (244) 
OPLS3e

>  <r_lp_Energy>  (244) 
184.758

>  <b_lp_Chiralities_Consistent>  (244) 
1

>  <s_lp_Variant>  (244) 
81:0-2

>  <s_i_glide_gridfile>  (244) 
pfpi4k_grid

>  <i_i_glide_lignum>  (244) 
34

>  <i_i_glide_rotatable_bonds>  (244) 
2

>  <r_i_docking_score>  (244) 
-0.799638

>  <r_i_glide_ligand_efficiency>  (244) 
-0.0257948

>  <r_i_glide_ligand_efficiency_sa>  (244) 
-0.0810312

>  <r_i_glide_ligand_efficiency_ln>  (244) 
-0.180343

>  <r_i_glide_gscore>  (244) 
-0.799638

>  <r_i_glide_lipo>  (244) 
-0.73364

>  <r_i_glide_hbond>  (244) 
0

>  <r_i_glide_metal>  (244) 
-0

>  <r_i_glide_rewards>  (244) 
-0.685013

>  <r_i_glide_evdw>  (244) 
-28.802

>  <r_i_glide_ecoul>  (244) 
0.500354

>  <r_i_glide_erotb>  (244) 
0

>  <r_i_glide_esite>  (244) 
-0.00164806

>  <r_i_glide_emodel>  (244) 
-20.2063

>  <r_i_glide_energy>  (244) 
-28.3016

>  <r_i_glide_einternal>  (244) 
2.45331

>  <r_i_glide_intrahb_reward>  (244) 
-0

>  <i_i_glide_confnum>  (244) 
5

>  <i_i_glide_posenum>  (244) 
39

>  <r_i_glide_eff_state_penalty>  (244) 
0

>  <ligand_id>  (244) 
81

>  <original_smiles>  (244) 
CC1C2C34CCC5C(C)(C)C3C(O)C52C2C(=CCC(CC13OCCO3)OC4O)C2(C)C

>  <smiles>  (244) 
[H]OC1([H])OC2([H])C([H])([H])C([H])=C3C([H])(C3(C([H])([H])[H])C([H])([H])[H])C34C([H])(O[H])C5([H])C(C([H])([H])[H])(C([H])([H])[H])C3([H])C([H])([H])C([H])([H])C15C4([H])C([H])(C([H])([H])[H])C1(OC([H])([H])C([H])([H])O1)C2([H])[H]

$$$$
81:2:0
     RDKit          3D

 69 75  0  0  1  0  0  0  0  0999 V2000
    2.2221   -3.5189   -1.1458 C   0  0  0  0  0  0  0  0  0  0  0  0
    3.6416   -3.3303   -0.4762 C   0  0  2  0  0  0  0  0  0  0  0  0
    3.5972   -2.5971    0.9649 C   0  0  2  0  0  0  0  0  0  0  0  0
    4.3857   -1.4043    1.6537 C   0  0  1  0  0  0  0  0  0  0  0  0
    3.3571   -0.2420    1.5264 C   0  0  0  0  0  0  0  0  0  0  0  0
    1.9957   -0.7601    2.1696 C   0  0  0  0  0  0  0  0  0  0  0  0
    2.2513   -2.0828    3.0284 C   0  0  2  0  0  0  0  0  0  0  0  0
    3.2175   -1.5207    4.1023 C   0  0  0  0  0  0  0  0  0  0  0  0
    3.1137   -0.0497    4.6271 C   0  0  0  0  0  0  0  0  0  0  0  0
    2.9901   -2.2903    5.4393 C   0  0  0  0  0  0  0  0  0  0  0  0
    4.5155   -1.7591    3.2366 C   0  0  1  0  0  0  0  0  0  0  0  0
    4.5134   -3.2364    3.0800 C   0  0  1  0  0  0  0  0  0  0  0  0
    4.7607   -3.9903    4.2473 O   0  0  0  0  0  0  0  0  0  0  0  0
    3.1716   -3.2467    2.2986 C   0  0  2  0  0  0  0  0  0  0  0  0
    2.7122   -4.6545    1.9274 C   0  0  1  0  0  0  0  0  0  0  0  0
    3.9023   -5.5682    1.7380 C   0  0  0  0  0  0  0  0  0  0  0  0
    5.1861   -5.7828    1.3374 C   0  0  0  0  0  0  0  0  0  0  0  0
    6.3290   -4.9655    0.6228 C   0  0  0  0  0  0  0  0  0  0  0  0
    6.4058   -3.4218    0.1855 C   0  0  1  0  0  0  0  0  0  0  0  0
    6.0543   -3.0270   -1.2737 C   0  0  0  0  0  0  0  0  0  0  0  0
    4.5700   -2.6768   -1.5163 C   0  0  0  0  0  0  0  0  0  0  0  0
    4.2734   -3.1788   -2.7863 O   0  0  0  0  0  0  0  0  0  0  0  0
    4.0736   -2.0791   -3.6409 C   0  0  0  0  0  0  0  0  0  0  0  0
    3.6594   -0.9482   -2.7141 C   0  0  0  0  0  0  0  0  0  0  0  0
    4.3594   -1.3018   -1.5453 O   0  0  0  0  0  0  0  0  0  0  0  0
    6.6128   -2.3646    1.1524 O   0  0  0  0  0  0  0  0  0  0  0  0
    5.8704   -1.1653    1.1958 C   0  0  1  0  0  0  0  0  0  0  0  0
    6.0608   -0.3226    0.0841 O   0  0  0  0  0  0  0  0  0  0  0  0
    2.7759   -6.0964    2.5599 C   0  0  0  0  0  0  0  0  0  0  0  0
    2.9116   -6.2914    4.0496 C   0  0  0  0  0  0  0  0  0  0  0  0
    1.9295   -7.1891    1.9374 C   0  0  0  0  0  0  0  0  0  0  0  0
    1.8376   -2.6483   -1.6307 H   0  0  0  0  0  0  0  0  0  0  0  0
    1.4383   -3.8494   -0.4779 H   0  0  0  0  0  0  0  0  0  0  0  0
    2.2591   -4.2522   -1.9382 H   0  0  0  0  0  0  0  0  0  0  0  0
    4.0066   -4.3487   -0.4043 H   0  0  0  0  0  0  0  0  0  0  0  0
    2.6890   -2.1828    0.5718 H   0  0  0  0  0  0  0  0  0  0  0  0
    3.7258    0.6834    1.9593 H   0  0  0  0  0  0  0  0  0  0  0  0
    3.1779   -0.0002    0.4788 H   0  0  0  0  0  0  0  0  0  0  0  0
    1.4937    0.0272    2.7303 H   0  0  0  0  0  0  0  0  0  0  0  0
    1.2619   -0.9697    1.3916 H   0  0  0  0  0  0  0  0  0  0  0  0
    1.3233   -2.4746    3.4475 H   0  0  0  0  0  0  0  0  0  0  0  0
    3.7348    0.0750    5.5123 H   0  0  0  0  0  0  0  0  0  0  0  0
    2.0957    0.2099    4.9210 H   0  0  0  0  0  0  0  0  0  0  0  0
    3.4632    0.7249    3.9559 H   0  0  0  0  0  0  0  0  0  0  0  0
    3.8891   -2.2795    6.0564 H   0  0  0  0  0  0  0  0  0  0  0  0
    2.6821   -3.3214    5.2910 H   0  0  0  0  0  0  0  0  0  0  0  0
    2.1879   -1.8464    6.0324 H   0  0  0  0  0  0  0  0  0  0  0  0
    5.4033   -1.3815    3.7438 H   0  0  0  0  0  0  0  0  0  0  0  0
    5.3470   -3.5596    2.4964 H   0  0  0  0  0  0  0  0  0  0  0  0
    5.6463   -3.8155    4.5264 H   0  0  0  0  0  0  0  0  0  0  0  0
    1.8680   -4.6387    1.2646 H   0  0  0  0  0  0  0  0  0  0  0  0
    5.5485   -6.7678    1.5993 H   0  0  0  0  0  0  0  0  0  0  0  0
    7.2030   -5.1443    1.2505 H   0  0  0  0  0  0  0  0  0  0  0  0
    6.5320   -5.5496   -0.2708 H   0  0  0  0  0  0  0  0  0  0  0  0
    7.4802   -3.4678   -0.0036 H   0  0  0  0  0  0  0  0  0  0  0  0
    6.6758   -2.2026   -1.6221 H   0  0  0  0  0  0  0  0  0  0  0  0
    6.3212   -3.8587   -1.9297 H   0  0  0  0  0  0  0  0  0  0  0  0
    5.0090   -1.8183   -4.1106 H   0  0  0  0  0  0  0  0  0  0  0  0
    3.3621   -2.3173   -4.4250 H   0  0  0  0  0  0  0  0  0  0  0  0
    3.9552    0.0410   -3.0884 H   0  0  0  0  0  0  0  0  0  0  0  0
    2.5914   -0.9436   -2.5314 H   0  0  0  0  0  0  0  0  0  0  0  0
    6.3664   -0.6167    1.9974 H   0  0  0  0  0  0  0  0  0  0  0  0
    5.3644    0.3148    0.0608 H   0  0  0  0  0  0  0  0  0  0  0  0
    2.3498   -7.1594    4.3905 H   0  0  0  0  0  0  0  0  0  0  0  0
    2.5151   -5.4162    4.5660 H   0  0  0  0  0  0  0  0  0  0  0  0
    3.9579   -6.4289    4.3196 H   0  0  0  0  0  0  0  0  0  0  0  0
    0.9126   -7.1557    2.3297 H   0  0  0  0  0  0  0  0  0  0  0  0
    2.3553   -8.1718    2.1423 H   0  0  0  0  0  0  0  0  0  0  0  0
    1.8807   -7.0544    0.8556 H   0  0  0  0  0  0  0  0  0  0  0  0
  1  2  1  0
  1 32  1  0
  1 33  1  0
  1 34  1  0
  2 21  1  0
  2  3  1  0
  2 35  1  1
  3 14  1  0
  3  4  1  0
  3 36  1  6
  4 11  1  0
  4 27  1  0
  4  5  1  1
  5  6  1  0
  5 37  1  0
  5 38  1  0
  6  7  1  0
  6 39  1  0
  6 40  1  0
 14  7  1  1
  7  8  1  0
  7 41  1  1
  8  9  1  0
  8 10  1  0
  8 11  1  0
  9 42  1  0
  9 43  1  0
  9 44  1  0
 10 45  1  0
 10 46  1  0
 10 47  1  0
 11 12  1  0
 11 48  1  1
 12 13  1  0
 12 14  1  0
 12 49  1  6
 13 50  1  0
 14 15  1  0
 15 29  1  0
 15 16  1  0
 15 51  1  6
 16 17  2  3
 16 29  1  0
 17 18  1  0
 17 52  1  0
 18 19  1  0
 18 53  1  0
 18 54  1  0
 19 20  1  0
 19 26  1  0
 19 55  1  6
 20 21  1  0
 20 56  1  0
 20 57  1  0
 21 25  1  0
 21 22  1  0
 22 23  1  0
 23 24  1  0
 23 58  1  0
 23 59  1  0
 24 25  1  0
 24 60  1  0
 24 61  1  0
 26 27  1  0
 27 28  1  0
 27 62  1  1
 28 63  1  0
 29 30  1  0
 29 31  1  0
 30 64  1  0
 30 65  1  0
 30 66  1  0
 31 67  1  0
 31 68  1  0
 31 69  1  0
M  END
>  <i_m_ct_stereo_status>  (245) 
1

>  <s_m_source_file>  (245) 
/var/tmp/pbs.5076255.sched01/tmp378oxcv0/78pm6kuo1p.sdf

>  <i_m_source_file_index>  (245) 
35

>  <i_lp_mmshare_version>  (245) 
48012

>  <i_f3d_flags>  (245) 
0

>  <s_epik_input>  (245) 
TzFbQ0gyXVtDSDJdT0MxKFtDQEBIXTJbQ0gzXSlbQ0gyXVtDQEBIXShPW0NASF0zW09IXSlbQ0gyXS9bQ0hdPUMoQzQoW0NIM10pW0NIM10pXFtDSF00W0NAQF01KFtDQEhdMltDQEBdMzY3KVtDQEhdKFtDSDJdW0NIMl02KUMoW0NIM10pKFtDSDNdKVtDQEhdN1tDQEhdNVtPSF0=

>  <s_epik_cmdline>  (245) 
J2VwaWtfcHl0aG9uJywgJy1waHQnLCAnMi4wJywgJy1waCcsICc3LjAnLCAnLXRuJywgJzgnLCAnLW1hJywgJzIwMCcsICctaW1hZScsICc8aW5maWxlLm1hZT4nLCAnLW9tYWUnLCAnPG91dGZpbGUubWFlPic=

>  <r_lp_tautomer_probability>  (245) 
1

>  <r_epik_Ionization_Penalty>  (245) 
5.46082e-07

>  <r_epik_Ionization_Penalty_Charging>  (245) 
0

>  <r_epik_Ionization_Penalty_Neutral>  (245) 
5.46082e-07

>  <r_epik_State_Penalty>  (245) 
-0

>  <r_epik_Charging_Adjusted_Penalty>  (245) 
0

>  <i_epik_Tot_Q>  (245) 
0

>  <i_epik_Tot_abs_Q>  (245) 
0

>  <s_epik_Chemistry_Notes>  (245) 
This compound contains an acetal/aminal-like group ( X-CH(R)-Y where X, Y are N, S, or O) that may be acid/base labile, releasing an aldehyde.

>  <s_lp_Force_Field>  (245) 
OPLS3e

>  <r_lp_Energy>  (245) 
200.934

>  <b_lp_Chiralities_Consistent>  (245) 
1

>  <s_lp_Variant>  (245) 
81:0-3

>  <s_i_glide_gridfile>  (245) 
pfpi4k_grid

>  <i_i_glide_lignum>  (245) 
35

>  <i_i_glide_rotatable_bonds>  (245) 
2

>  <r_i_docking_score>  (245) 
-3.04238

>  <r_i_glide_ligand_efficiency>  (245) 
-0.0981414

>  <r_i_glide_ligand_efficiency_sa>  (245) 
-0.308299

>  <r_i_glide_ligand_efficiency_ln>  (245) 
-0.686151

>  <r_i_glide_gscore>  (245) 
-3.04238

>  <r_i_glide_lipo>  (245) 
-0.674455

>  <r_i_glide_hbond>  (245) 
0

>  <r_i_glide_metal>  (245) 
-0

>  <r_i_glide_rewards>  (245) 
-0.674386

>  <r_i_glide_evdw>  (245) 
-29.9038

>  <r_i_glide_ecoul>  (245) 
-1.22552

>  <r_i_glide_erotb>  (245) 
0

>  <r_i_glide_esite>  (245) 
-0.0145244

>  <r_i_glide_emodel>  (245) 
-35.2749

>  <r_i_glide_energy>  (245) 
-31.1293

>  <r_i_glide_einternal>  (245) 
2.6127

>  <r_i_glide_intrahb_reward>  (245) 
-0

>  <i_i_glide_confnum>  (245) 
5

>  <i_i_glide_posenum>  (245) 
35

>  <r_i_glide_eff_state_penalty>  (245) 
0

>  <ligand_id>  (245) 
81

>  <original_smiles>  (245) 
CC1C2C34CCC5C(C)(C)C3C(O)C52C2C(=CCC(CC13OCCO3)OC4O)C2(C)C

>  <smiles>  (245) 
[H]OC1([H])OC2([H])C([H])([H])C([H])=C3C([H])(C3(C([H])([H])[H])C([H])([H])[H])C34C([H])(O[H])C5([H])C(C([H])([H])[H])(C([H])([H])[H])C3([H])C([H])([H])C([H])([H])C15C4([H])C([H])(C([H])([H])[H])C1(OC([H])([H])C([H])([H])O1)C2([H])[H]

$$$$
81:2:1
     RDKit          3D

 69 75  0  0  1  0  0  0  0  0999 V2000
    1.1845   -6.6100    2.5900 C   0  0  0  0  0  0  0  0  0  0  0  0
    2.6658   -6.3435    3.0591 C   0  0  2  0  0  0  0  0  0  0  0  0
    3.4341   -5.1837    2.2409 C   0  0  2  0  0  0  0  0  0  0  0  0
    4.8578   -5.0200    1.5654 C   0  0  1  0  0  0  0  0  0  0  0  0
    4.5073   -5.2471    0.0666 C   0  0  0  0  0  0  0  0  0  0  0  0
    3.3443   -4.2185   -0.2910 C   0  0  0  0  0  0  0  0  0  0  0  0
    3.2141   -3.1110    0.8478 C   0  0  2  0  0  0  0  0  0  0  0  0
    4.6102   -2.4481    0.7408 C   0  0  0  0  0  0  0  0  0  0  0  0
    5.3755   -2.3301   -0.6203 C   0  0  0  0  0  0  0  0  0  0  0  0
    4.4942   -0.9372    1.0995 C   0  0  0  0  0  0  0  0  0  0  0  0
    5.3046   -3.4642    1.7303 C   0  0  1  0  0  0  0  0  0  0  0  0
    4.5666   -3.2224    2.9910 C   0  0  1  0  0  0  0  0  0  0  0  0
    4.7769   -1.9705    3.6055 O   0  0  0  0  0  0  0  0  0  0  0  0
    3.2019   -3.6721    2.4018 C   0  0  2  0  0  0  0  0  0  0  0  0
    2.0566   -3.5483    3.3918 C   0  0  1  0  0  0  0  0  0  0  0  0
    2.5491   -3.7265    4.8052 C   0  0  0  0  0  0  0  0  0  0  0  0
    3.3888   -4.3115    5.7106 C   0  0  0  0  0  0  0  0  0  0  0  0
    4.4828   -5.4409    5.7113 C   0  0  0  0  0  0  0  0  0  0  0  0
    5.1235   -6.2823    4.5003 C   0  0  1  0  0  0  0  0  0  0  0  0
    4.5460   -7.6860    4.1731 C   0  0  0  0  0  0  0  0  0  0  0  0
    3.4168   -7.7006    3.1234 C   0  0  0  0  0  0  0  0  0  0  0  0
    2.5452   -8.7032    3.5483 O   0  0  0  0  0  0  0  0  0  0  0  0
    2.6830   -9.8021    2.6759 C   0  0  0  0  0  0  0  0  0  0  0  0
    3.1442   -9.1535    1.3892 C   0  0  0  0  0  0  0  0  0  0  0  0
    3.8972   -8.0566    1.8676 O   0  0  0  0  0  0  0  0  0  0  0  0
    6.0995   -5.7206    3.5890 O   0  0  0  0  0  0  0  0  0  0  0  0
    6.0469   -5.8439    2.1796 C   0  0  1  0  0  0  0  0  0  0  0  0
    6.2165   -7.1456    1.6853 O   0  0  0  0  0  0  0  0  0  0  0  0
    1.6354   -2.5796    4.5618 C   0  0  0  0  0  0  0  0  0  0  0  0
    2.1241   -1.1523    4.6150 C   0  0  0  0  0  0  0  0  0  0  0  0
    0.2338   -2.6945    5.1232 C   0  0  0  0  0  0  0  0  0  0  0  0
    1.1042   -7.1782    1.6669 H   0  0  0  0  0  0  0  0  0  0  0  0
    0.5931   -5.7279    2.3604 H   0  0  0  0  0  0  0  0  0  0  0  0
    0.6184   -7.1498    3.3570 H   0  0  0  0  0  0  0  0  0  0  0  0
    2.5288   -6.0879    4.0971 H   0  0  0  0  0  0  0  0  0  0  0  0
    2.7518   -5.4854    1.4677 H   0  0  0  0  0  0  0  0  0  0  0  0
    5.3817   -5.1651   -0.5711 H   0  0  0  0  0  0  0  0  0  0  0  0
    4.1510   -6.2647   -0.1021 H   0  0  0  0  0  0  0  0  0  0  0  0
    3.4794   -3.7995   -1.2865 H   0  0  0  0  0  0  0  0  0  0  0  0
    2.3955   -4.7381   -0.4044 H   0  0  0  0  0  0  0  0  0  0  0  0
    2.4025   -2.4094    0.6395 H   0  0  0  0  0  0  0  0  0  0  0  0
    6.2268   -1.6592   -0.5069 H   0  0  0  0  0  0  0  0  0  0  0  0
    4.7449   -1.9083   -1.4062 H   0  0  0  0  0  0  0  0  0  0  0  0
    5.8102   -3.2429   -1.0078 H   0  0  0  0  0  0  0  0  0  0  0  0
    5.4365   -0.5475    1.4857 H   0  0  0  0  0  0  0  0  0  0  0  0
    3.7110   -0.7328    1.8231 H   0  0  0  0  0  0  0  0  0  0  0  0
    4.2235   -0.3324    0.2326 H   0  0  0  0  0  0  0  0  0  0  0  0
    6.3763   -3.2797    1.8174 H   0  0  0  0  0  0  0  0  0  0  0  0
    4.9273   -3.8572    3.7706 H   0  0  0  0  0  0  0  0  0  0  0  0
    4.2500   -1.9359    4.3824 H   0  0  0  0  0  0  0  0  0  0  0  0
    1.1497   -3.9767    3.0135 H   0  0  0  0  0  0  0  0  0  0  0  0
    3.3129   -3.8768    6.6948 H   0  0  0  0  0  0  0  0  0  0  0  0
    5.3282   -4.9874    6.2350 H   0  0  0  0  0  0  0  0  0  0  0  0
    4.1151   -6.1770    6.4301 H   0  0  0  0  0  0  0  0  0  0  0  0
    5.9315   -6.6697    5.1216 H   0  0  0  0  0  0  0  0  0  0  0  0
    5.3421   -8.3693    3.8628 H   0  0  0  0  0  0  0  0  0  0  0  0
    4.1696   -8.1216    5.1031 H   0  0  0  0  0  0  0  0  0  0  0  0
    3.4278  -10.5014    3.0391 H   0  0  0  0  0  0  0  0  0  0  0  0
    1.7263  -10.3043    2.5712 H   0  0  0  0  0  0  0  0  0  0  0  0
    3.7029   -9.8089    0.7075 H   0  0  0  0  0  0  0  0  0  0  0  0
    2.2709   -8.7887    0.8609 H   0  0  0  0  0  0  0  0  0  0  0  0
    6.9759   -5.3645    1.8728 H   0  0  0  0  0  0  0  0  0  0  0  0
    5.3901   -7.6079    1.8161 H   0  0  0  0  0  0  0  0  0  0  0  0
    1.3526   -0.4839    5.0047 H   0  0  0  0  0  0  0  0  0  0  0  0
    2.3638   -0.8195    3.6066 H   0  0  0  0  0  0  0  0  0  0  0  0
    2.9983   -1.0709    5.2577 H   0  0  0  0  0  0  0  0  0  0  0  0
   -0.4660   -2.1254    4.5068 H   0  0  0  0  0  0  0  0  0  0  0  0
    0.1972   -2.3180    6.1476 H   0  0  0  0  0  0  0  0  0  0  0  0
   -0.0834   -3.7380    5.1239 H   0  0  0  0  0  0  0  0  0  0  0  0
  1  2  1  0
  1 32  1  0
  1 33  1  0
  1 34  1  0
  2 21  1  0
  2  3  1  0
  2 35  1  1
  3 14  1  0
  3  4  1  0
  3 36  1  6
  4 11  1  0
  4 27  1  0
  4  5  1  6
  5  6  1  0
  5 37  1  0
  5 38  1  0
  6  7  1  0
  6 39  1  0
  6 40  1  0
 14  7  1  6
  7  8  1  0
  7 41  1  6
  8  9  1  0
  8 10  1  0
  8 11  1  0
  9 42  1  0
  9 43  1  0
  9 44  1  0
 10 45  1  0
 10 46  1  0
 10 47  1  0
 11 12  1  0
 11 48  1  1
 12 13  1  0
 12 14  1  0
 12 49  1  1
 13 50  1  0
 14 15  1  0
 15 29  1  0
 15 16  1  0
 15 51  1  6
 16 17  2  3
 16 29  1  0
 17 18  1  0
 17 52  1  0
 18 19  1  0
 18 53  1  0
 18 54  1  0
 19 20  1  0
 19 26  1  0
 19 55  1  1
 20 21  1  0
 20 56  1  0
 20 57  1  0
 21 25  1  0
 21 22  1  0
 22 23  1  0
 23 24  1  0
 23 58  1  0
 23 59  1  0
 24 25  1  0
 24 60  1  0
 24 61  1  0
 26 27  1  0
 27 28  1  0
 27 62  1  6
 28 63  1  0
 29 30  1  0
 29 31  1  0
 30 64  1  0
 30 65  1  0
 30 66  1  0
 31 67  1  0
 31 68  1  0
 31 69  1  0
M  END
>  <i_m_ct_stereo_status>  (246) 
1

>  <s_m_source_file>  (246) 
/var/tmp/pbs.5076255.sched01/tmp378oxcv0/78pm6kuo1p.sdf

>  <i_m_source_file_index>  (246) 
35

>  <i_lp_mmshare_version>  (246) 
48012

>  <i_f3d_flags>  (246) 
0

>  <s_epik_input>  (246) 
TzFbQ0gyXVtDSDJdT0MxKFtDQEBIXTJbQ0gzXSlbQ0gyXVtDQEBIXShPW0NASF0zW09IXSlbQ0gyXS9bQ0hdPUMoQzQoW0NIM10pW0NIM10pXFtDSF00W0NAQF01KFtDQEhdMltDQEBdMzY3KVtDQEhdKFtDSDJdW0NIMl02KUMoW0NIM10pKFtDSDNdKVtDQEhdN1tDQEhdNVtPSF0=

>  <s_epik_cmdline>  (246) 
J2VwaWtfcHl0aG9uJywgJy1waHQnLCAnMi4wJywgJy1waCcsICc3LjAnLCAnLXRuJywgJzgnLCAnLW1hJywgJzIwMCcsICctaW1hZScsICc8aW5maWxlLm1hZT4nLCAnLW9tYWUnLCAnPG91dGZpbGUubWFlPic=

>  <r_lp_tautomer_probability>  (246) 
1

>  <r_epik_Ionization_Penalty>  (246) 
5.46082e-07

>  <r_epik_Ionization_Penalty_Charging>  (246) 
0

>  <r_epik_Ionization_Penalty_Neutral>  (246) 
5.46082e-07

>  <r_epik_State_Penalty>  (246) 
-0

>  <r_epik_Charging_Adjusted_Penalty>  (246) 
0

>  <i_epik_Tot_Q>  (246) 
0

>  <i_epik_Tot_abs_Q>  (246) 
0

>  <s_epik_Chemistry_Notes>  (246) 
This compound contains an acetal/aminal-like group ( X-CH(R)-Y where X, Y are N, S, or O) that may be acid/base labile, releasing an aldehyde.

>  <s_lp_Force_Field>  (246) 
OPLS3e

>  <r_lp_Energy>  (246) 
200.934

>  <b_lp_Chiralities_Consistent>  (246) 
1

>  <s_lp_Variant>  (246) 
81:0-3

>  <s_i_glide_gridfile>  (246) 
pfpi4k_grid

>  <i_i_glide_lignum>  (246) 
35

>  <i_i_glide_rotatable_bonds>  (246) 
2

>  <r_i_docking_score>  (246) 
-2.62163

>  <r_i_glide_ligand_efficiency>  (246) 
-0.0845686

>  <r_i_glide_ligand_efficiency_sa>  (246) 
-0.265662

>  <r_i_glide_ligand_efficiency_ln>  (246) 
-0.591257

>  <r_i_glide_gscore>  (246) 
-2.62163

>  <r_i_glide_lipo>  (246) 
-0.178605

>  <r_i_glide_hbond>  (246) 
0

>  <r_i_glide_metal>  (246) 
-0

>  <r_i_glide_rewards>  (246) 
-1.02299

>  <r_i_glide_evdw>  (246) 
-26.2383

>  <r_i_glide_ecoul>  (246) 
-0.715696

>  <r_i_glide_erotb>  (246) 
0

>  <r_i_glide_esite>  (246) 
-0.000759856

>  <r_i_glide_emodel>  (246) 
-36.4261

>  <r_i_glide_energy>  (246) 
-26.954

>  <r_i_glide_einternal>  (246) 
0.319493

>  <r_i_glide_intrahb_reward>  (246) 
-0.5

>  <i_i_glide_confnum>  (246) 
5

>  <i_i_glide_posenum>  (246) 
5

>  <r_i_glide_eff_state_penalty>  (246) 
0

>  <ligand_id>  (246) 
81

>  <original_smiles>  (246) 
CC1C2C34CCC5C(C)(C)C3C(O)C52C2C(=CCC(CC13OCCO3)OC4O)C2(C)C

>  <smiles>  (246) 
[H]OC1([H])OC2([H])C([H])([H])C([H])=C3C([H])(C3(C([H])([H])[H])C([H])([H])[H])C34C([H])(O[H])C5([H])C(C([H])([H])[H])(C([H])([H])[H])C3([H])C([H])([H])C([H])([H])C15C4([H])C([H])(C([H])([H])[H])C1(OC([H])([H])C([H])([H])O1)C2([H])[H]

$$$$
81:3:0
     RDKit          3D

 69 75  0  0  1  0  0  0  0  0999 V2000
    2.5697   -3.2825   -0.9897 C   0  0  0  0  0  0  0  0  0  0  0  0
    3.8822   -3.5725   -0.1917 C   0  0  2  0  0  0  0  0  0  0  0  0
    3.9427   -3.0699    1.3565 C   0  0  2  0  0  0  0  0  0  0  0  0
    4.2409   -1.6421    1.9087 C   0  0  1  0  0  0  0  0  0  0  0  0
    2.9990   -0.8103    1.4875 C   0  0  0  0  0  0  0  0  0  0  0  0
    1.7335   -1.5457    2.0904 C   0  0  0  0  0  0  0  0  0  0  0  0
    2.1868   -2.6394    3.1679 C   0  0  2  0  0  0  0  0  0  0  0  0
    2.8531   -1.7327    4.2304 C   0  0  0  0  0  0  0  0  0  0  0  0
    2.3934   -0.2587    4.4806 C   0  0  0  0  0  0  0  0  0  0  0  0
    2.5973   -2.3481    5.6393 C   0  0  0  0  0  0  0  0  0  0  0  0
    4.2695   -1.7937    3.5323 C   0  0  1  0  0  0  0  0  0  0  0  0
    4.5938   -3.2556    3.6175 C   0  0  1  0  0  0  0  0  0  0  0  0
    4.7903   -3.7493    4.9183 O   0  0  0  0  0  0  0  0  0  0  0  0
    3.4250   -3.6745    2.6941 C   0  0  2  0  0  0  0  0  0  0  0  0
    3.1848   -5.1944    2.4679 C   0  0  1  0  0  0  0  0  0  0  0  0
    4.2585   -6.0792    1.7468 C   0  0  0  0  0  0  0  0  0  0  0  0
    5.4917   -5.7839    1.2327 C   0  0  0  0  0  0  0  0  0  0  0  0
    6.6353   -4.8473    1.6233 C   0  0  0  0  0  0  0  0  0  0  0  0
    6.7746   -3.4232    0.9129 C   0  0  1  0  0  0  0  0  0  0  0  0
    6.5538   -3.3588   -0.6034 C   0  0  0  0  0  0  0  0  0  0  0  0
    5.0999   -3.2395   -1.1373 C   0  0  0  0  0  0  0  0  0  0  0  0
    4.9075   -1.9494   -1.6711 O   0  0  0  0  0  0  0  0  0  0  0  0
    4.3676   -2.0798   -2.9837 C   0  0  0  0  0  0  0  0  0  0  0  0
    4.9718   -3.4240   -3.3893 C   0  0  0  0  0  0  0  0  0  0  0  0
    4.9623   -4.1424   -2.1774 O   0  0  0  0  0  0  0  0  0  0  0  0
    6.6164   -2.1876    1.6790 O   0  0  0  0  0  0  0  0  0  0  0  0
    5.6441   -1.1772    1.4820 C   0  0  1  0  0  0  0  0  0  0  0  0
    5.6873   -0.5276    0.2518 O   0  0  0  0  0  0  0  0  0  0  0  0
    3.7309   -6.4220    3.1287 C   0  0  0  0  0  0  0  0  0  0  0  0
    4.7220   -6.5196    4.2719 C   0  0  0  0  0  0  0  0  0  0  0  0
    2.7998   -7.6240    3.1772 C   0  0  0  0  0  0  0  0  0  0  0  0
    2.5254   -2.2220   -1.1989 H   0  0  0  0  0  0  0  0  0  0  0  0
    1.6676   -3.6063   -0.4933 H   0  0  0  0  0  0  0  0  0  0  0  0
    2.5899   -3.7241   -1.9861 H   0  0  0  0  0  0  0  0  0  0  0  0
    3.8177   -4.6614   -0.1845 H   0  0  0  0  0  0  0  0  0  0  0  0
    2.9167   -3.1839    1.1493 H   0  0  0  0  0  0  0  0  0  0  0  0
    3.0824    0.2302    1.7827 H   0  0  0  0  0  0  0  0  0  0  0  0
    2.9119   -0.7566    0.4035 H   0  0  0  0  0  0  0  0  0  0  0  0
    0.9966   -0.8391    2.4695 H   0  0  0  0  0  0  0  0  0  0  0  0
    1.1919   -2.0271    1.2860 H   0  0  0  0  0  0  0  0  0  0  0  0
    1.3225   -3.1805    3.5542 H   0  0  0  0  0  0  0  0  0  0  0  0
    2.8195    0.1138    5.4109 H   0  0  0  0  0  0  0  0  0  0  0  0
    1.3103   -0.1744    4.5846 H   0  0  0  0  0  0  0  0  0  0  0  0
    2.7151    0.4717    3.7490 H   0  0  0  0  0  0  0  0  0  0  0  0
    3.3808   -2.0601    6.3413 H   0  0  0  0  0  0  0  0  0  0  0  0
    2.5219   -3.4346    5.6277 H   0  0  0  0  0  0  0  0  0  0  0  0
    1.6495   -2.0126    6.0600 H   0  0  0  0  0  0  0  0  0  0  0  0
    4.9973   -1.1640    4.0351 H   0  0  0  0  0  0  0  0  0  0  0  0
    5.5495   -3.4220    3.2023 H   0  0  0  0  0  0  0  0  0  0  0  0
    4.9837   -4.6725    4.8533 H   0  0  0  0  0  0  0  0  0  0  0  0
    2.1615   -5.2947    2.0992 H   0  0  0  0  0  0  0  0  0  0  0  0
    5.6697   -6.2270    0.2629 H   0  0  0  0  0  0  0  0  0  0  0  0
    6.8505   -4.8381    2.6943 H   0  0  0  0  0  0  0  0  0  0  0  0
    7.4995   -5.4188    1.2755 H   0  0  0  0  0  0  0  0  0  0  0  0
    7.8653   -3.3596    0.9337 H   0  0  0  0  0  0  0  0  0  0  0  0
    7.1319   -2.5399   -1.0201 H   0  0  0  0  0  0  0  0  0  0  0  0
    7.0217   -4.2289   -1.0295 H   0  0  0  0  0  0  0  0  0  0  0  0
    3.2885   -2.1675   -2.8968 H   0  0  0  0  0  0  0  0  0  0  0  0
    4.7094   -1.2431   -3.6294 H   0  0  0  0  0  0  0  0  0  0  0  0
    4.3783   -3.9460   -4.1367 H   0  0  0  0  0  0  0  0  0  0  0  0
    6.0026   -3.3287   -3.7498 H   0  0  0  0  0  0  0  0  0  0  0  0
    5.9670   -0.4090    2.1819 H   0  0  0  0  0  0  0  0  0  0  0  0
    5.2463   -1.0654   -0.4019 H   0  0  0  0  0  0  0  0  0  0  0  0
    4.2440   -6.2378    5.2086 H   0  0  0  0  0  0  0  0  0  0  0  0
    5.6194   -5.9267    4.1110 H   0  0  0  0  0  0  0  0  0  0  0  0
    5.0641   -7.5481    4.3962 H   0  0  0  0  0  0  0  0  0  0  0  0
    2.1762   -7.5889    4.0728 H   0  0  0  0  0  0  0  0  0  0  0  0
    3.3721   -8.5522    3.1690 H   0  0  0  0  0  0  0  0  0  0  0  0
    2.1503   -7.6311    2.3052 H   0  0  0  0  0  0  0  0  0  0  0  0
  1  2  1  0
  1 32  1  0
  1 33  1  0
  1 34  1  0
  2 21  1  0
  2  3  1  0
  2 35  1  1
  3 14  1  0
  3  4  1  0
  3 36  1  1
  4 11  1  0
  4 27  1  0
  4  5  1  1
  5  6  1  0
  5 37  1  0
  5 38  1  0
  6  7  1  0
  6 39  1  0
  6 40  1  0
 14  7  1  1
  7  8  1  0
  7 41  1  1
  8  9  1  0
  8 10  1  0
  8 11  1  0
  9 42  1  0
  9 43  1  0
  9 44  1  0
 10 45  1  0
 10 46  1  0
 10 47  1  0
 11 12  1  0
 11 48  1  1
 12 13  1  0
 12 14  1  0
 12 49  1  6
 13 50  1  0
 14 15  1  0
 15 29  1  0
 15 16  1  0
 15 51  1  6
 16 17  2  3
 16 29  1  0
 17 18  1  0
 17 52  1  0
 18 19  1  0
 18 53  1  0
 18 54  1  0
 19 20  1  0
 19 26  1  0
 19 55  1  6
 20 21  1  0
 20 56  1  0
 20 57  1  0
 21 25  1  0
 21 22  1  0
 22 23  1  0
 23 24  1  0
 23 58  1  0
 23 59  1  0
 24 25  1  0
 24 60  1  0
 24 61  1  0
 26 27  1  0
 27 28  1  0
 27 62  1  1
 28 63  1  0
 29 30  1  0
 29 31  1  0
 30 64  1  0
 30 65  1  0
 30 66  1  0
 31 67  1  0
 31 68  1  0
 31 69  1  0
M  END
>  <i_m_ct_stereo_status>  (247) 
1

>  <s_m_source_file>  (247) 
/var/tmp/pbs.5076255.sched01/tmp378oxcv0/78pm6kuo1p.sdf

>  <i_m_source_file_index>  (247) 
36

>  <i_lp_mmshare_version>  (247) 
48012

>  <i_f3d_flags>  (247) 
0

>  <s_epik_input>  (247) 
TzFbQ0gyXVtDSDJdT0MxKFtDQEBIXTJbQ0gzXSlbQ0gyXVtDQEBIXShPW0NASF0zW09IXSlbQ0gyXS9bQ0hdPUMoQzQoW0NIM10pW0NIM10pXFtDSF00W0NAQF01KFtDQEhdMltDQEBdMzY3KVtDQEhdKFtDSDJdW0NIMl02KUMoW0NIM10pKFtDSDNdKVtDQEhdN1tDQEhdNVtPSF0=

>  <s_epik_cmdline>  (247) 
J2VwaWtfcHl0aG9uJywgJy1waHQnLCAnMi4wJywgJy1waCcsICc3LjAnLCAnLXRuJywgJzgnLCAnLW1hJywgJzIwMCcsICctaW1hZScsICc8aW5maWxlLm1hZT4nLCAnLW9tYWUnLCAnPG91dGZpbGUubWFlPic=

>  <r_lp_tautomer_probability>  (247) 
1

>  <r_epik_Ionization_Penalty>  (247) 
5.46082e-07

>  <r_epik_Ionization_Penalty_Charging>  (247) 
0

>  <r_epik_Ionization_Penalty_Neutral>  (247) 
5.46082e-07

>  <r_epik_State_Penalty>  (247) 
-0

>  <r_epik_Charging_Adjusted_Penalty>  (247) 
0

>  <i_epik_Tot_Q>  (247) 
0

>  <i_epik_Tot_abs_Q>  (247) 
0

>  <s_epik_Chemistry_Notes>  (247) 
This compound contains an acetal/aminal-like group ( X-CH(R)-Y where X, Y are N, S, or O) that may be acid/base labile, releasing an aldehyde.

>  <s_lp_Force_Field>  (247) 
OPLS3e

>  <r_lp_Energy>  (247) 
235.76

>  <b_lp_Chiralities_Consistent>  (247) 
1

>  <s_lp_Variant>  (247) 
81:0-4

>  <s_i_glide_gridfile>  (247) 
pfpi4k_grid

>  <i_i_glide_lignum>  (247) 
36

>  <i_i_glide_rotatable_bonds>  (247) 
2

>  <r_i_docking_score>  (247) 
-3.12285

>  <r_i_glide_ligand_efficiency>  (247) 
-0.100737

>  <r_i_glide_ligand_efficiency_sa>  (247) 
-0.316453

>  <r_i_glide_ligand_efficiency_ln>  (247) 
-0.704297

>  <r_i_glide_gscore>  (247) 
-3.12285

>  <r_i_glide_lipo>  (247) 
-0.783729

>  <r_i_glide_hbond>  (247) 
0

>  <r_i_glide_metal>  (247) 
-0

>  <r_i_glide_rewards>  (247) 
-1.24211

>  <r_i_glide_evdw>  (247) 
-26.2448

>  <r_i_glide_ecoul>  (247) 
1.43486

>  <r_i_glide_erotb>  (247) 
0

>  <r_i_glide_esite>  (247) 
0

>  <r_i_glide_emodel>  (247) 
-32.282

>  <r_i_glide_energy>  (247) 
-24.8099

>  <r_i_glide_einternal>  (247) 
0.6239

>  <r_i_glide_intrahb_reward>  (247) 
-0.5

>  <i_i_glide_confnum>  (247) 
2

>  <i_i_glide_posenum>  (247) 
33

>  <r_i_glide_eff_state_penalty>  (247) 
0

>  <ligand_id>  (247) 
81

>  <original_smiles>  (247) 
CC1C2C34CCC5C(C)(C)C3C(O)C52C2C(=CCC(CC13OCCO3)OC4O)C2(C)C

>  <smiles>  (247) 
[H]OC1([H])OC2([H])C([H])([H])C([H])=C3C([H])(C3(C([H])([H])[H])C([H])([H])[H])C34C([H])(O[H])C5([H])C(C([H])([H])[H])(C([H])([H])[H])C3([H])C([H])([H])C([H])([H])C15C4([H])C([H])(C([H])([H])[H])C1(OC([H])([H])C([H])([H])O1)C2([H])[H]

$$$$
81:3:1
     RDKit          3D

 69 75  0  0  1  0  0  0  0  0999 V2000
    1.6093   -6.2259    1.1931 C   0  0  0  0  0  0  0  0  0  0  0  0
    2.4724   -5.6537    2.3716 C   0  0  2  0  0  0  0  0  0  0  0  0
    3.5901   -4.5269    2.0455 C   0  0  2  0  0  0  0  0  0  0  0  0
    4.9876   -4.7103    1.3946 C   0  0  1  0  0  0  0  0  0  0  0  0
    4.6580   -5.1133   -0.0692 C   0  0  0  0  0  0  0  0  0  0  0  0
    3.7600   -3.9547   -0.6691 C   0  0  0  0  0  0  0  0  0  0  0  0
    3.8083   -2.6814    0.2878 C   0  0  2  0  0  0  0  0  0  0  0  0
    5.3139   -2.3145    0.2082 C   0  0  0  0  0  0  0  0  0  0  0  0
    6.1868   -2.5990   -1.0628 C   0  0  0  0  0  0  0  0  0  0  0  0
    5.4603   -0.7623    0.2919 C   0  0  0  0  0  0  0  0  0  0  0  0
    5.7082   -3.2505    1.4121 C   0  0  1  0  0  0  0  0  0  0  0  0
    4.9351   -2.6442    2.5413 C   0  0  1  0  0  0  0  0  0  0  0  0
    5.3478   -1.3513    2.9169 O   0  0  0  0  0  0  0  0  0  0  0  0
    3.5605   -2.9810    1.9165 C   0  0  2  0  0  0  0  0  0  0  0  0
    2.3025   -2.4540    2.6418 C   0  0  1  0  0  0  0  0  0  0  0  0
    1.8974   -2.9877    4.0600 C   0  0  0  0  0  0  0  0  0  0  0  0
    2.5542   -3.8497    4.9019 C   0  0  0  0  0  0  0  0  0  0  0  0
    4.0186   -4.1867    5.2372 C   0  0  0  0  0  0  0  0  0  0  0  0
    4.7021   -5.4467    4.5454 C   0  0  1  0  0  0  0  0  0  0  0  0
    3.8566   -6.7172    4.4660 C   0  0  0  0  0  0  0  0  0  0  0  0
    2.8951   -6.8895    3.2525 C   0  0  0  0  0  0  0  0  0  0  0  0
    3.4023   -7.8801    2.4160 O   0  0  0  0  0  0  0  0  0  0  0  0
    3.0239   -9.1301    2.9592 C   0  0  0  0  0  0  0  0  0  0  0  0
    1.6978   -8.7985    3.6273 C   0  0  0  0  0  0  0  0  0  0  0  0
    1.7160   -7.3938    3.8010 O   0  0  0  0  0  0  0  0  0  0  0  0
    5.8320   -5.3163    3.6370 O   0  0  0  0  0  0  0  0  0  0  0  0
    5.8754   -5.6547    2.2557 C   0  0  1  0  0  0  0  0  0  0  0  0
    5.7361   -7.0201    1.9675 O   0  0  0  0  0  0  0  0  0  0  0  0
    2.0932   -1.5002    3.7816 C   0  0  0  0  0  0  0  0  0  0  0  0
    3.1246   -0.7189    4.5718 C   0  0  0  0  0  0  0  0  0  0  0  0
    0.8047   -0.6982    3.7648 C   0  0  0  0  0  0  0  0  0  0  0  0
    2.2002   -6.8030    0.4915 H   0  0  0  0  0  0  0  0  0  0  0  0
    1.1093   -5.4571    0.6102 H   0  0  0  0  0  0  0  0  0  0  0  0
    0.8167   -6.8791    1.5588 H   0  0  0  0  0  0  0  0  0  0  0  0
    1.6955   -5.1778    2.9556 H   0  0  0  0  0  0  0  0  0  0  0  0
    2.8338   -4.4195    1.3110 H   0  0  0  0  0  0  0  0  0  0  0  0
    5.5566   -5.3141   -0.6437 H   0  0  0  0  0  0  0  0  0  0  0  0
    4.1214   -6.0581   -0.1093 H   0  0  0  0  0  0  0  0  0  0  0  0
    4.0331   -3.7352   -1.6984 H   0  0  0  0  0  0  0  0  0  0  0  0
    2.7311   -4.2921   -0.7738 H   0  0  0  0  0  0  0  0  0  0  0  0
    3.1657   -1.8837   -0.0944 H   0  0  0  0  0  0  0  0  0  0  0  0
    7.1366   -2.0704   -0.9920 H   0  0  0  0  0  0  0  0  0  0  0  0
    5.7080   -2.2562   -1.9829 H   0  0  0  0  0  0  0  0  0  0  0  0
    6.4914   -3.6266   -1.2105 H   0  0  0  0  0  0  0  0  0  0  0  0
    6.4333   -0.4718    0.6924 H   0  0  0  0  0  0  0  0  0  0  0  0
    4.6696   -0.2751    0.8640 H   0  0  0  0  0  0  0  0  0  0  0  0
    5.3768   -0.3037   -0.6948 H   0  0  0  0  0  0  0  0  0  0  0  0
    6.7846   -3.2711    1.5819 H   0  0  0  0  0  0  0  0  0  0  0  0
    5.1632   -3.1807    3.4219 H   0  0  0  0  0  0  0  0  0  0  0  0
    5.2514   -0.7887    2.1677 H   0  0  0  0  0  0  0  0  0  0  0  0
    1.4940   -2.4293    1.9118 H   0  0  0  0  0  0  0  0  0  0  0  0
    1.8867   -4.5636    5.3681 H   0  0  0  0  0  0  0  0  0  0  0  0
    4.6739   -3.3193    5.3503 H   0  0  0  0  0  0  0  0  0  0  0  0
    3.9148   -4.4819    6.2842 H   0  0  0  0  0  0  0  0  0  0  0  0
    5.3354   -5.7302    5.3879 H   0  0  0  0  0  0  0  0  0  0  0  0
    4.5711   -7.5404    4.4766 H   0  0  0  0  0  0  0  0  0  0  0  0
    3.2820   -6.8333    5.3875 H   0  0  0  0  0  0  0  0  0  0  0  0
    2.9470   -9.9076    2.1982 H   0  0  0  0  0  0  0  0  0  0  0  0
    3.7556   -9.4567    3.6979 H   0  0  0  0  0  0  0  0  0  0  0  0
    0.8546   -9.0581    2.9918 H   0  0  0  0  0  0  0  0  0  0  0  0
    1.5763   -9.3006    4.5860 H   0  0  0  0  0  0  0  0  0  0  0  0
    6.9148   -5.4626    1.9971 H   0  0  0  0  0  0  0  0  0  0  0  0
    4.8356   -7.2825    2.1529 H   0  0  0  0  0  0  0  0  0  0  0  0
    3.5162    0.0942    3.9555 H   0  0  0  0  0  0  0  0  0  0  0  0
    3.9387   -1.3465    4.9192 H   0  0  0  0  0  0  0  0  0  0  0  0
    2.6737   -0.2660    5.4593 H   0  0  0  0  0  0  0  0  0  0  0  0
    0.9324    0.2245    3.1927 H   0  0  0  0  0  0  0  0  0  0  0  0
    0.4852   -0.4512    4.7806 H   0  0  0  0  0  0  0  0  0  0  0  0
    0.0073   -1.2809    3.3011 H   0  0  0  0  0  0  0  0  0  0  0  0
  1  2  1  0
  1 32  1  0
  1 33  1  0
  1 34  1  0
  2 21  1  0
  2  3  1  0
  2 35  1  1
  3 14  1  0
  3  4  1  0
  3 36  1  1
  4 11  1  0
  4 27  1  0
  4  5  1  6
  5  6  1  0
  5 37  1  0
  5 38  1  0
  6  7  1  0
  6 39  1  0
  6 40  1  0
 14  7  1  6
  7  8  1  0
  7 41  1  6
  8  9  1  0
  8 10  1  0
  8 11  1  0
  9 42  1  0
  9 43  1  0
  9 44  1  0
 10 45  1  0
 10 46  1  0
 10 47  1  0
 11 12  1  0
 11 48  1  1
 12 13  1  0
 12 14  1  0
 12 49  1  1
 13 50  1  0
 14 15  1  0
 15 29  1  0
 15 16  1  0
 15 51  1  6
 16 17  2  3
 16 29  1  0
 17 18  1  0
 17 52  1  0
 18 19  1  0
 18 53  1  0
 18 54  1  0
 19 20  1  0
 19 26  1  0
 19 55  1  1
 20 21  1  0
 20 56  1  0
 20 57  1  0
 21 25  1  0
 21 22  1  0
 22 23  1  0
 23 24  1  0
 23 58  1  0
 23 59  1  0
 24 25  1  0
 24 60  1  0
 24 61  1  0
 26 27  1  0
 27 28  1  0
 27 62  1  6
 28 63  1  0
 29 30  1  0
 29 31  1  0
 30 64  1  0
 30 65  1  0
 30 66  1  0
 31 67  1  0
 31 68  1  0
 31 69  1  0
M  END
>  <i_m_ct_stereo_status>  (248) 
1

>  <s_m_source_file>  (248) 
/var/tmp/pbs.5076255.sched01/tmp378oxcv0/78pm6kuo1p.sdf

>  <i_m_source_file_index>  (248) 
36

>  <i_lp_mmshare_version>  (248) 
48012

>  <i_f3d_flags>  (248) 
0

>  <s_epik_input>  (248) 
TzFbQ0gyXVtDSDJdT0MxKFtDQEBIXTJbQ0gzXSlbQ0gyXVtDQEBIXShPW0NASF0zW09IXSlbQ0gyXS9bQ0hdPUMoQzQoW0NIM10pW0NIM10pXFtDSF00W0NAQF01KFtDQEhdMltDQEBdMzY3KVtDQEhdKFtDSDJdW0NIMl02KUMoW0NIM10pKFtDSDNdKVtDQEhdN1tDQEhdNVtPSF0=

>  <s_epik_cmdline>  (248) 
J2VwaWtfcHl0aG9uJywgJy1waHQnLCAnMi4wJywgJy1waCcsICc3LjAnLCAnLXRuJywgJzgnLCAnLW1hJywgJzIwMCcsICctaW1hZScsICc8aW5maWxlLm1hZT4nLCAnLW9tYWUnLCAnPG91dGZpbGUubWFlPic=

>  <r_lp_tautomer_probability>  (248) 
1

>  <r_epik_Ionization_Penalty>  (248) 
5.46082e-07

>  <r_epik_Ionization_Penalty_Charging>  (248) 
0

>  <r_epik_Ionization_Penalty_Neutral>  (248) 
5.46082e-07

>  <r_epik_State_Penalty>  (248) 
-0

>  <r_epik_Charging_Adjusted_Penalty>  (248) 
0

>  <i_epik_Tot_Q>  (248) 
0

>  <i_epik_Tot_abs_Q>  (248) 
0

>  <s_epik_Chemistry_Notes>  (248) 
This compound contains an acetal/aminal-like group ( X-CH(R)-Y where X, Y are N, S, or O) that may be acid/base labile, releasing an aldehyde.

>  <s_lp_Force_Field>  (248) 
OPLS3e

>  <r_lp_Energy>  (248) 
235.76

>  <b_lp_Chiralities_Consistent>  (248) 
1

>  <s_lp_Variant>  (248) 
81:0-4

>  <s_i_glide_gridfile>  (248) 
pfpi4k_grid

>  <i_i_glide_lignum>  (248) 
36

>  <i_i_glide_rotatable_bonds>  (248) 
2

>  <r_i_docking_score>  (248) 
-2.75687

>  <r_i_glide_ligand_efficiency>  (248) 
-0.0889314

>  <r_i_glide_ligand_efficiency_sa>  (248) 
-0.279368

>  <r_i_glide_ligand_efficiency_ln>  (248) 
-0.62176

>  <r_i_glide_gscore>  (248) 
-2.75687

>  <r_i_glide_lipo>  (248) 
-0.290316

>  <r_i_glide_hbond>  (248) 
0

>  <r_i_glide_metal>  (248) 
-0

>  <r_i_glide_rewards>  (248) 
-1.01267

>  <r_i_glide_evdw>  (248) 
-26.0795

>  <r_i_glide_ecoul>  (248) 
-0.994093

>  <r_i_glide_erotb>  (248) 
0

>  <r_i_glide_esite>  (248) 
-0.000800268

>  <r_i_glide_emodel>  (248) 
-36.2614

>  <r_i_glide_energy>  (248) 
-27.0736

>  <r_i_glide_einternal>  (248) 
0.0198088

>  <r_i_glide_intrahb_reward>  (248) 
-0.5

>  <i_i_glide_confnum>  (248) 
4

>  <i_i_glide_posenum>  (248) 
8

>  <r_i_glide_eff_state_penalty>  (248) 
0

>  <ligand_id>  (248) 
81

>  <original_smiles>  (248) 
CC1C2C34CCC5C(C)(C)C3C(O)C52C2C(=CCC(CC13OCCO3)OC4O)C2(C)C

>  <smiles>  (248) 
[H]OC1([H])OC2([H])C([H])([H])C([H])=C3C([H])(C3(C([H])([H])[H])C([H])([H])[H])C34C([H])(O[H])C5([H])C(C([H])([H])[H])(C([H])([H])[H])C3([H])C([H])([H])C([H])([H])C15C4([H])C([H])(C([H])([H])[H])C1(OC([H])([H])C([H])([H])O1)C2([H])[H]

$$$$
81:3:2
     RDKit          3D

 69 75  0  0  1  0  0  0  0  0999 V2000
    2.2918   -4.0476   -0.3065 C   0  0  0  0  0  0  0  0  0  0  0  0
    3.7520   -4.0551    0.2408 C   0  0  2  0  0  0  0  0  0  0  0  0
    3.9730   -3.9314    1.8440 C   0  0  2  0  0  0  0  0  0  0  0  0
    3.8874   -2.6711    2.7485 C   0  0  1  0  0  0  0  0  0  0  0  0
    2.3722   -2.3212    2.7467 C   0  0  0  0  0  0  0  0  0  0  0  0
    1.6112   -3.6065    3.2793 C   0  0  0  0  0  0  0  0  0  0  0  0
    2.6524   -4.6279    3.9245 C   0  0  2  0  0  0  0  0  0  0  0  0
    3.1926   -3.7813    5.1052 C   0  0  0  0  0  0  0  0  0  0  0  0
    2.3227   -2.6989    5.8316 C   0  0  0  0  0  0  0  0  0  0  0  0
    3.4931   -4.7332    6.3076 C   0  0  0  0  0  0  0  0  0  0  0  0
    4.3408   -3.1337    4.2417 C   0  0  1  0  0  0  0  0  0  0  0  0
    5.1469   -4.3358    3.8570 C   0  0  1  0  0  0  0  0  0  0  0  0
    5.8002   -4.9804    4.9265 O   0  0  0  0  0  0  0  0  0  0  0  0
    4.0151   -4.9540    3.0108 C   0  0  2  0  0  0  0  0  0  0  0  0
    4.2637   -6.3623    2.4199 C   0  0  1  0  0  0  0  0  0  0  0  0
    5.3592   -6.5955    1.3192 C   0  0  0  0  0  0  0  0  0  0  0  0
    6.2811   -5.7312    0.7932 C   0  0  0  0  0  0  0  0  0  0  0  0
    7.1139   -4.5317    1.2827 C   0  0  0  0  0  0  0  0  0  0  0  0
    6.5945   -3.0605    0.9872 C   0  0  1  0  0  0  0  0  0  0  0  0
    6.0719   -2.7951   -0.4185 C   0  0  0  0  0  0  0  0  0  0  0  0
    4.5783   -3.1107   -0.7098 C   0  0  0  0  0  0  0  0  0  0  0  0
    3.8910   -1.9093   -0.8584 O   0  0  0  0  0  0  0  0  0  0  0  0
    4.0977   -1.4604   -2.1807 C   0  0  0  0  0  0  0  0  0  0  0  0
    4.2452   -2.7704   -2.9407 C   0  0  0  0  0  0  0  0  0  0  0  0
    4.5935   -3.7253   -1.9593 O   0  0  0  0  0  0  0  0  0  0  0  0
    6.1988   -2.1408    2.0425 O   0  0  0  0  0  0  0  0  0  0  0  0
    4.9082   -1.5904    2.2865 C   0  0  1  0  0  0  0  0  0  0  0  0
    4.4317   -0.7135    1.3005 O   0  0  0  0  0  0  0  0  0  0  0  0
    5.3403   -7.3930    2.6201 C   0  0  0  0  0  0  0  0  0  0  0  0
    6.5465   -7.3466    3.5398 C   0  0  0  0  0  0  0  0  0  0  0  0
    4.9260   -8.8452    2.4507 C   0  0  0  0  0  0  0  0  0  0  0  0
    1.8200   -3.0804   -0.1571 H   0  0  0  0  0  0  0  0  0  0  0  0
    1.6726   -4.8170    0.1558 H   0  0  0  0  0  0  0  0  0  0  0  0
    2.2460   -4.2525   -1.3754 H   0  0  0  0  0  0  0  0  0  0  0  0
    4.0393   -5.0535   -0.0612 H   0  0  0  0  0  0  0  0  0  0  0  0
    3.0182   -4.3778    1.7257 H   0  0  0  0  0  0  0  0  0  0  0  0
    2.1702   -1.4171    3.3150 H   0  0  0  0  0  0  0  0  0  0  0  0
    2.0271   -2.0723    1.7455 H   0  0  0  0  0  0  0  0  0  0  0  0
    0.7968   -3.3330    3.9496 H   0  0  0  0  0  0  0  0  0  0  0  0
    1.0893   -4.1152    2.4775 H   0  0  0  0  0  0  0  0  0  0  0  0
    2.1460   -5.5350    4.2597 H   0  0  0  0  0  0  0  0  0  0  0  0
    2.7994   -2.3973    6.7648 H   0  0  0  0  0  0  0  0  0  0  0  0
    1.3338   -3.0744    6.1025 H   0  0  0  0  0  0  0  0  0  0  0  0
    2.1926   -1.7633    5.3031 H   0  0  0  0  0  0  0  0  0  0  0  0
    4.2621   -4.3183    6.9611 H   0  0  0  0  0  0  0  0  0  0  0  0
    3.7743   -5.7444    6.0078 H   0  0  0  0  0  0  0  0  0  0  0  0
    2.6058   -4.8847    6.9258 H   0  0  0  0  0  0  0  0  0  0  0  0
    4.9065   -2.3906    4.8055 H   0  0  0  0  0  0  0  0  0  0  0  0
    5.9735   -4.0095    3.2880 H   0  0  0  0  0  0  0  0  0  0  0  0
    5.1438   -5.2599    5.5441 H   0  0  0  0  0  0  0  0  0  0  0  0
    3.2891   -6.7937    2.1863 H   0  0  0  0  0  0  0  0  0  0  0  0
    6.3505   -5.8198   -0.2849 H   0  0  0  0  0  0  0  0  0  0  0  0
    7.5577   -4.6748    2.2678 H   0  0  0  0  0  0  0  0  0  0  0  0
    7.9995   -4.6392    0.6589 H   0  0  0  0  0  0  0  0  0  0  0  0
    7.5765   -2.5988    0.8759 H   0  0  0  0  0  0  0  0  0  0  0  0
    6.2502   -1.7357   -0.6038 H   0  0  0  0  0  0  0  0  0  0  0  0
    6.6874   -3.3252   -1.1467 H   0  0  0  0  0  0  0  0  0  0  0  0
    3.2802   -0.8348   -2.5411 H   0  0  0  0  0  0  0  0  0  0  0  0
    5.0179   -0.8768   -2.2340 H   0  0  0  0  0  0  0  0  0  0  0  0
    3.3111   -3.0737   -3.4070 H   0  0  0  0  0  0  0  0  0  0  0  0
    5.0183   -2.7256   -3.7064 H   0  0  0  0  0  0  0  0  0  0  0  0
    5.0947   -0.9255    3.1273 H   0  0  0  0  0  0  0  0  0  0  0  0
    4.1489   -1.2299    0.5445 H   0  0  0  0  0  0  0  0  0  0  0  0
    6.2212   -7.4769    4.5741 H   0  0  0  0  0  0  0  0  0  0  0  0
    7.1052   -6.4221    3.4420 H   0  0  0  0  0  0  0  0  0  0  0  0
    7.2401   -8.1585    3.3124 H   0  0  0  0  0  0  0  0  0  0  0  0
    4.5524   -9.2496    3.3935 H   0  0  0  0  0  0  0  0  0  0  0  0
    5.7648   -9.4535    2.1059 H   0  0  0  0  0  0  0  0  0  0  0  0
    4.1328   -8.9281    1.7031 H   0  0  0  0  0  0  0  0  0  0  0  0
  1  2  1  0
  1 32  1  0
  1 33  1  0
  1 34  1  0
  2 21  1  0
  2  3  1  0
  2 35  1  6
  3 14  1  0
  3  4  1  0
  3 36  1  6
  4 11  1  0
  4 27  1  0
  4  5  1  1
  5  6  1  0
  5 37  1  0
  5 38  1  0
  6  7  1  0
  6 39  1  0
  6 40  1  0
 14  7  1  1
  7  8  1  0
  7 41  1  1
  8  9  1  0
  8 10  1  0
  8 11  1  0
  9 42  1  0
  9 43  1  0
  9 44  1  0
 10 45  1  0
 10 46  1  0
 10 47  1  0
 11 12  1  0
 11 48  1  1
 12 13  1  0
 12 14  1  0
 12 49  1  6
 13 50  1  0
 14 15  1  0
 15 29  1  0
 15 16  1  0
 15 51  1  6
 16 17  2  3
 16 29  1  0
 17 18  1  0
 17 52  1  0
 18 19  1  0
 18 53  1  0
 18 54  1  0
 19 20  1  0
 19 26  1  0
 19 55  1  6
 20 21  1  0
 20 56  1  0
 20 57  1  0
 21 25  1  0
 21 22  1  0
 22 23  1  0
 23 24  1  0
 23 58  1  0
 23 59  1  0
 24 25  1  0
 24 60  1  0
 24 61  1  0
 26 27  1  0
 27 28  1  0
 27 62  1  1
 28 63  1  0
 29 30  1  0
 29 31  1  0
 30 64  1  0
 30 65  1  0
 30 66  1  0
 31 67  1  0
 31 68  1  0
 31 69  1  0
M  END
>  <i_m_ct_stereo_status>  (249) 
1

>  <s_m_source_file>  (249) 
/var/tmp/pbs.5076255.sched01/tmp378oxcv0/78pm6kuo1p.sdf

>  <i_m_source_file_index>  (249) 
36

>  <i_lp_mmshare_version>  (249) 
48012

>  <i_f3d_flags>  (249) 
0

>  <s_epik_input>  (249) 
TzFbQ0gyXVtDSDJdT0MxKFtDQEBIXTJbQ0gzXSlbQ0gyXVtDQEBIXShPW0NASF0zW09IXSlbQ0gyXS9bQ0hdPUMoQzQoW0NIM10pW0NIM10pXFtDSF00W0NAQF01KFtDQEhdMltDQEBdMzY3KVtDQEhdKFtDSDJdW0NIMl02KUMoW0NIM10pKFtDSDNdKVtDQEhdN1tDQEhdNVtPSF0=

>  <s_epik_cmdline>  (249) 
J2VwaWtfcHl0aG9uJywgJy1waHQnLCAnMi4wJywgJy1waCcsICc3LjAnLCAnLXRuJywgJzgnLCAnLW1hJywgJzIwMCcsICctaW1hZScsICc8aW5maWxlLm1hZT4nLCAnLW9tYWUnLCAnPG91dGZpbGUubWFlPic=

>  <r_lp_tautomer_probability>  (249) 
1

>  <r_epik_Ionization_Penalty>  (249) 
5.46082e-07

>  <r_epik_Ionization_Penalty_Charging>  (249) 
0

>  <r_epik_Ionization_Penalty_Neutral>  (249) 
5.46082e-07

>  <r_epik_State_Penalty>  (249) 
-0

>  <r_epik_Charging_Adjusted_Penalty>  (249) 
0

>  <i_epik_Tot_Q>  (249) 
0

>  <i_epik_Tot_abs_Q>  (249) 
0

>  <s_epik_Chemistry_Notes>  (249) 
This compound contains an acetal/aminal-like group ( X-CH(R)-Y where X, Y are N, S, or O) that may be acid/base labile, releasing an aldehyde.

>  <s_lp_Force_Field>  (249) 
OPLS3e

>  <r_lp_Energy>  (249) 
235.76

>  <b_lp_Chiralities_Consistent>  (249) 
1

>  <s_lp_Variant>  (249) 
81:0-4

>  <s_i_glide_gridfile>  (249) 
pfpi4k_grid

>  <i_i_glide_lignum>  (249) 
36

>  <i_i_glide_rotatable_bonds>  (249) 
2

>  <r_i_docking_score>  (249) 
-2.71499

>  <r_i_glide_ligand_efficiency>  (249) 
-0.0875803

>  <r_i_glide_ligand_efficiency_sa>  (249) 
-0.275123

>  <r_i_glide_ligand_efficiency_ln>  (249) 
-0.612314

>  <r_i_glide_gscore>  (249) 
-2.71499

>  <r_i_glide_lipo>  (249) 
-0.507714

>  <r_i_glide_hbond>  (249) 
0

>  <r_i_glide_metal>  (249) 
-0

>  <r_i_glide_rewards>  (249) 
-1.10144

>  <r_i_glide_evdw>  (249) 
-26.2271

>  <r_i_glide_ecoul>  (249) 
1.37013

>  <r_i_glide_erotb>  (249) 
0

>  <r_i_glide_esite>  (249) 
0

>  <r_i_glide_emodel>  (249) 
-33.8735

>  <r_i_glide_energy>  (249) 
-24.857

>  <r_i_glide_einternal>  (249) 
0.107859

>  <r_i_glide_intrahb_reward>  (249) 
-0.5

>  <i_i_glide_confnum>  (249) 
4

>  <i_i_glide_posenum>  (249) 
31

>  <r_i_glide_eff_state_penalty>  (249) 
0

>  <ligand_id>  (249) 
81

>  <original_smiles>  (249) 
CC1C2C34CCC5C(C)(C)C3C(O)C52C2C(=CCC(CC13OCCO3)OC4O)C2(C)C

>  <smiles>  (249) 
[H]OC1([H])OC2([H])C([H])([H])C([H])=C3C([H])(C3(C([H])([H])[H])C([H])([H])[H])C34C([H])(O[H])C5([H])C(C([H])([H])[H])(C([H])([H])[H])C3([H])C([H])([H])C([H])([H])C15C4([H])C([H])(C([H])([H])[H])C1(OC([H])([H])C([H])([H])O1)C2([H])[H]

$$$$
81:4:0
     RDKit          3D

 69 75  0  0  1  0  0  0  0  0999 V2000
    2.5302   -3.3913   -0.6844 C   0  0  0  0  0  0  0  0  0  0  0  0
    3.9625   -3.5238   -0.1703 C   0  0  2  0  0  0  0  0  0  0  0  0
    4.3018   -3.0606    1.3082 C   0  0  1  0  0  0  0  0  0  0  0  0
    4.5284   -1.6234    1.8338 C   0  0  1  0  0  0  0  0  0  0  0  0
    3.2197   -0.9108    1.4431 C   0  0  0  0  0  0  0  0  0  0  0  0
    2.0449   -1.7924    2.0463 C   0  0  0  0  0  0  0  0  0  0  0  0
    2.5747   -2.8240    3.1203 C   0  0  2  0  0  0  0  0  0  0  0  0
    3.1875   -1.8605    4.1776 C   0  0  0  0  0  0  0  0  0  0  0  0
    2.5583   -0.4626    4.4711 C   0  0  0  0  0  0  0  0  0  0  0  0
    3.0689   -2.5285    5.5758 C   0  0  0  0  0  0  0  0  0  0  0  0
    4.5945   -1.7413    3.4621 C   0  0  1  0  0  0  0  0  0  0  0  0
    5.0460   -3.1561    3.5155 C   0  0  1  0  0  0  0  0  0  0  0  0
    5.4083   -3.7158    4.7672 O   0  0  0  0  0  0  0  0  0  0  0  0
    3.8627   -3.6999    2.6300 C   0  0  2  0  0  0  0  0  0  0  0  0
    4.0788   -5.2375    2.7669 C   0  0  2  0  0  0  0  0  0  0  0  0
    5.0155   -5.7987    1.7171 C   0  0  0  0  0  0  0  0  0  0  0  0
    6.1476   -5.6487    0.9593 C   0  0  0  0  0  0  0  0  0  0  0  0
    7.2872   -4.5887    1.0660 C   0  0  0  0  0  0  0  0  0  0  0  0
    7.1794   -3.1377    0.3744 C   0  0  1  0  0  0  0  0  0  0  0  0
    6.5070   -3.0768   -1.0528 C   0  0  0  0  0  0  0  0  0  0  0  0
    4.9471   -2.9550   -1.2567 C   0  0  0  0  0  0  0  0  0  0  0  0
    4.6159   -1.6192   -1.5258 O   0  0  0  0  0  0  0  0  0  0  0  0
    3.8671   -1.5422   -2.7285 C   0  0  0  0  0  0  0  0  0  0  0  0
    4.4079   -2.7659   -3.4387 C   0  0  0  0  0  0  0  0  0  0  0  0
    4.6907   -3.6788   -2.4209 O   0  0  0  0  0  0  0  0  0  0  0  0
    6.9797   -2.0314    1.2729 O   0  0  0  0  0  0  0  0  0  0  0  0
    5.9188   -1.0661    1.3249 C   0  0  1  0  0  0  0  0  0  0  0  0
    5.8171   -0.3083    0.1637 O   0  0  0  0  0  0  0  0  0  0  0  0
    3.6950   -6.4812    1.8844 C   0  0  0  0  0  0  0  0  0  0  0  0
    3.7361   -7.8623    2.5117 C   0  0  0  0  0  0  0  0  0  0  0  0
    2.5285   -6.3378    0.9316 C   0  0  0  0  0  0  0  0  0  0  0  0
    2.2547   -2.3554   -0.7719 H   0  0  0  0  0  0  0  0  0  0  0  0
    1.8251   -3.9252   -0.0835 H   0  0  0  0  0  0  0  0  0  0  0  0
    2.4035   -3.7925   -1.6834 H   0  0  0  0  0  0  0  0  0  0  0  0
    4.1404   -4.5895   -0.2315 H   0  0  0  0  0  0  0  0  0  0  0  0
    5.2242   -3.4672    1.2813 H   0  0  0  0  0  0  0  0  0  0  0  0
    3.2070    0.1226    1.7749 H   0  0  0  0  0  0  0  0  0  0  0  0
    3.1192   -0.8030    0.3700 H   0  0  0  0  0  0  0  0  0  0  0  0
    1.2679   -1.1448    2.4479 H   0  0  0  0  0  0  0  0  0  0  0  0
    1.4944   -2.3078    1.2777 H   0  0  0  0  0  0  0  0  0  0  0  0
    1.7645   -3.4474    3.5168 H   0  0  0  0  0  0  0  0  0  0  0  0
    2.9978   -0.0428    5.3752 H   0  0  0  0  0  0  0  0  0  0  0  0
    1.4819   -0.5302    4.6432 H   0  0  0  0  0  0  0  0  0  0  0  0
    2.7239    0.3006    3.7221 H   0  0  0  0  0  0  0  0  0  0  0  0
    3.8426   -2.1637    6.2552 H   0  0  0  0  0  0  0  0  0  0  0  0
    3.1199   -3.6186    5.5383 H   0  0  0  0  0  0  0  0  0  0  0  0
    2.1025   -2.3195    6.0410 H   0  0  0  0  0  0  0  0  0  0  0  0
    5.2621   -1.0332    3.9475 H   0  0  0  0  0  0  0  0  0  0  0  0
    6.0240   -3.2305    3.0645 H   0  0  0  0  0  0  0  0  0  0  0  0
    6.1152   -3.2012    5.1249 H   0  0  0  0  0  0  0  0  0  0  0  0
    4.1509   -5.5488    3.8103 H   0  0  0  0  0  0  0  0  0  0  0  0
    6.2821   -6.3315    0.1350 H   0  0  0  0  0  0  0  0  0  0  0  0
    7.5225   -4.4586    2.1141 H   0  0  0  0  0  0  0  0  0  0  0  0
    8.1778   -5.0834    0.6806 H   0  0  0  0  0  0  0  0  0  0  0  0
    8.2324   -2.9621    0.1348 H   0  0  0  0  0  0  0  0  0  0  0  0
    6.9912   -2.2890   -1.6316 H   0  0  0  0  0  0  0  0  0  0  0  0
    6.8172   -3.9809   -1.5472 H   0  0  0  0  0  0  0  0  0  0  0  0
    2.8166   -1.6474   -2.5200 H   0  0  0  0  0  0  0  0  0  0  0  0
    4.0997   -0.5994   -3.2671 H   0  0  0  0  0  0  0  0  0  0  0  0
    3.7232   -3.1897   -4.1618 H   0  0  0  0  0  0  0  0  0  0  0  0
    5.3808   -2.5347   -3.9079 H   0  0  0  0  0  0  0  0  0  0  0  0
    6.2582   -0.3655    2.0746 H   0  0  0  0  0  0  0  0  0  0  0  0
    5.2290   -0.7569   -0.4185 H   0  0  0  0  0  0  0  0  0  0  0  0
    2.8324   -8.0438    3.0941 H   0  0  0  0  0  0  0  0  0  0  0  0
    4.5908   -7.9397    3.1804 H   0  0  0  0  0  0  0  0  0  0  0  0
    3.8257   -8.6330    1.7463 H   0  0  0  0  0  0  0  0  0  0  0  0
    1.8374   -7.1774    1.0174 H   0  0  0  0  0  0  0  0  0  0  0  0
    2.8648   -6.2591   -0.0997 H   0  0  0  0  0  0  0  0  0  0  0  0
    1.9670   -5.4574    1.2142 H   0  0  0  0  0  0  0  0  0  0  0  0
  1  2  1  0
  1 32  1  0
  1 33  1  0
  1 34  1  0
  2 21  1  0
  2  3  1  0
  2 35  1  1
  3 14  1  0
  3  4  1  0
  3 36  1  6
  4 11  1  0
  4 27  1  0
  4  5  1  1
  5  6  1  0
  5 37  1  0
  5 38  1  0
  6  7  1  0
  6 39  1  0
  6 40  1  0
 14  7  1  1
  7  8  1  0
  7 41  1  1
  8  9  1  0
  8 10  1  0
  8 11  1  0
  9 42  1  0
  9 43  1  0
  9 44  1  0
 10 45  1  0
 10 46  1  0
 10 47  1  0
 11 12  1  0
 11 48  1  1
 12 13  1  0
 12 14  1  0
 12 49  1  6
 13 50  1  0
 14 15  1  0
 15 29  1  0
 15 16  1  0
 15 51  1  1
 16 17  2  3
 16 29  1  0
 17 18  1  0
 17 52  1  0
 18 19  1  0
 18 53  1  0
 18 54  1  0
 19 20  1  0
 19 26  1  0
 19 55  1  6
 20 21  1  0
 20 56  1  0
 20 57  1  0
 21 25  1  0
 21 22  1  0
 22 23  1  0
 23 24  1  0
 23 58  1  0
 23 59  1  0
 24 25  1  0
 24 60  1  0
 24 61  1  0
 26 27  1  0
 27 28  1  0
 27 62  1  1
 28 63  1  0
 29 30  1  0
 29 31  1  0
 30 64  1  0
 30 65  1  0
 30 66  1  0
 31 67  1  0
 31 68  1  0
 31 69  1  0
M  END
>  <i_m_ct_stereo_status>  (250) 
1

>  <s_m_source_file>  (250) 
/var/tmp/pbs.5076255.sched01/tmp378oxcv0/78pm6kuo1p.sdf

>  <i_m_source_file_index>  (250) 
37

>  <i_lp_mmshare_version>  (250) 
48012

>  <i_f3d_flags>  (250) 
0

>  <s_epik_input>  (250) 
TzFbQ0gyXVtDSDJdT0MxKFtDQEBIXTJbQ0gzXSlbQ0gyXVtDQEBIXShPW0NASF0zW09IXSlbQ0gyXS9bQ0hdPUMoQzQoW0NIM10pW0NIM10pXFtDSF00W0NAQF01KFtDQEhdMltDQEBdMzY3KVtDQEhdKFtDSDJdW0NIMl02KUMoW0NIM10pKFtDSDNdKVtDQEhdN1tDQEhdNVtPSF0=

>  <s_epik_cmdline>  (250) 
J2VwaWtfcHl0aG9uJywgJy1waHQnLCAnMi4wJywgJy1waCcsICc3LjAnLCAnLXRuJywgJzgnLCAnLW1hJywgJzIwMCcsICctaW1hZScsICc8aW5maWxlLm1hZT4nLCAnLW9tYWUnLCAnPG91dGZpbGUubWFlPic=

>  <r_lp_tautomer_probability>  (250) 
1

>  <r_epik_Ionization_Penalty>  (250) 
5.46082e-07

>  <r_epik_Ionization_Penalty_Charging>  (250) 
0

>  <r_epik_Ionization_Penalty_Neutral>  (250) 
5.46082e-07

>  <r_epik_State_Penalty>  (250) 
-0

>  <r_epik_Charging_Adjusted_Penalty>  (250) 
0

>  <i_epik_Tot_Q>  (250) 
0

>  <i_epik_Tot_abs_Q>  (250) 
0

>  <s_epik_Chemistry_Notes>  (250) 
This compound contains an acetal/aminal-like group ( X-CH(R)-Y where X, Y are N, S, or O) that may be acid/base labile, releasing an aldehyde.

>  <s_lp_Force_Field>  (250) 
OPLS3e

>  <r_lp_Energy>  (250) 
184.725

>  <b_lp_Chiralities_Consistent>  (250) 
1

>  <s_lp_Variant>  (250) 
81:0-5

>  <s_i_glide_gridfile>  (250) 
pfpi4k_grid

>  <i_i_glide_lignum>  (250) 
37

>  <i_i_glide_rotatable_bonds>  (250) 
2

>  <r_i_docking_score>  (250) 
-3.01585

>  <r_i_glide_ligand_efficiency>  (250) 
-0.0972854

>  <r_i_glide_ligand_efficiency_sa>  (250) 
-0.305611

>  <r_i_glide_ligand_efficiency_ln>  (250) 
-0.680166

>  <r_i_glide_gscore>  (250) 
-3.01585

>  <r_i_glide_lipo>  (250) 
-0.78848

>  <r_i_glide_hbond>  (250) 
0

>  <r_i_glide_metal>  (250) 
-0

>  <r_i_glide_rewards>  (250) 
-1.17908

>  <r_i_glide_evdw>  (250) 
-26.1945

>  <r_i_glide_ecoul>  (250) 
1.74289

>  <r_i_glide_erotb>  (250) 
0

>  <r_i_glide_esite>  (250) 
0

>  <r_i_glide_emodel>  (250) 
-32.6505

>  <r_i_glide_energy>  (250) 
-24.4516

>  <r_i_glide_einternal>  (250) 
1.01491

>  <r_i_glide_intrahb_reward>  (250) 
-0.5

>  <i_i_glide_confnum>  (250) 
2

>  <i_i_glide_posenum>  (250) 
8

>  <r_i_glide_eff_state_penalty>  (250) 
0

>  <ligand_id>  (250) 
81

>  <original_smiles>  (250) 
CC1C2C34CCC5C(C)(C)C3C(O)C52C2C(=CCC(CC13OCCO3)OC4O)C2(C)C

>  <smiles>  (250) 
[H]OC1([H])OC2([H])C([H])([H])C([H])=C3C([H])(C3(C([H])([H])[H])C([H])([H])[H])C34C([H])(O[H])C5([H])C(C([H])([H])[H])(C([H])([H])[H])C3([H])C([H])([H])C([H])([H])C15C4([H])C([H])(C([H])([H])[H])C1(OC([H])([H])C([H])([H])O1)C2([H])[H]

$$$$
81:4:1
     RDKit          3D

 69 75  0  0  1  0  0  0  0  0999 V2000
    1.8381   -6.2502    1.5686 C   0  0  0  0  0  0  0  0  0  0  0  0
    3.1068   -5.9512    2.4063 C   0  0  2  0  0  0  0  0  0  0  0  0
    3.9371   -4.6015    2.2336 C   0  0  1  0  0  0  0  0  0  0  0  0
    4.9073   -4.2386    1.0955 C   0  0  1  0  0  0  0  0  0  0  0  0
    4.0280   -4.4349   -0.1494 C   0  0  0  0  0  0  0  0  0  0  0  0
    2.7407   -3.5466    0.0826 C   0  0  0  0  0  0  0  0  0  0  0  0
    2.9484   -2.5112    1.2611 C   0  0  2  0  0  0  0  0  0  0  0  0
    4.1465   -1.6865    0.7187 C   0  0  0  0  0  0  0  0  0  0  0  0
    4.3172   -1.3893   -0.8054 C   0  0  0  0  0  0  0  0  0  0  0  0
    4.0342   -0.2395    1.2745 C   0  0  0  0  0  0  0  0  0  0  0  0
    5.2600   -2.6627    1.2618 C   0  0  1  0  0  0  0  0  0  0  0  0
    5.0056   -2.5882    2.7229 C   0  0  1  0  0  0  0  0  0  0  0  0
    5.3111   -1.3730    3.3903 O   0  0  0  0  0  0  0  0  0  0  0  0
    3.5473   -3.1701    2.6271 C   0  0  2  0  0  0  0  0  0  0  0  0
    3.0383   -2.9492    4.0791 C   0  0  2  0  0  0  0  0  0  0  0  0
    3.3453   -4.0988    5.0012 C   0  0  0  0  0  0  0  0  0  0  0  0
    4.2381   -5.0636    5.3996 C   0  0  0  0  0  0  0  0  0  0  0  0
    5.7384   -5.2324    5.0079 C   0  0  0  0  0  0  0  0  0  0  0  0
    6.1629   -6.0332    3.6898 C   0  0  1  0  0  0  0  0  0  0  0  0
    5.3090   -7.2938    3.3868 C   0  0  0  0  0  0  0  0  0  0  0  0
    4.0189   -7.2505    2.4602 C   0  0  0  0  0  0  0  0  0  0  0  0
    4.3450   -7.6178    1.1527 O   0  0  0  0  0  0  0  0  0  0  0  0
    4.3869   -9.0342    1.0903 C   0  0  0  0  0  0  0  0  0  0  0  0
    3.3560   -9.4207    2.1385 C   0  0  0  0  0  0  0  0  0  0  0  0
    3.2146   -8.2734    2.9591 O   0  0  0  0  0  0  0  0  0  0  0  0
    6.7114   -5.2245    2.5921 O   0  0  0  0  0  0  0  0  0  0  0  0
    6.2504   -5.0457    1.2523 C   0  0  1  0  0  0  0  0  0  0  0  0
    6.2929   -6.2195    0.4924 O   0  0  0  0  0  0  0  0  0  0  0  0
    1.9364   -3.6147    4.9863 C   0  0  0  0  0  0  0  0  0  0  0  0
    1.4675   -2.8925    6.2309 C   0  0  0  0  0  0  0  0  0  0  0  0
    0.7922   -4.3436    4.3191 C   0  0  0  0  0  0  0  0  0  0  0  0
    2.0460   -6.4265    0.5177 H   0  0  0  0  0  0  0  0  0  0  0  0
    1.0873   -5.4760    1.6563 H   0  0  0  0  0  0  0  0  0  0  0  0
    1.3360   -7.1488    1.9214 H   0  0  0  0  0  0  0  0  0  0  0  0
    2.7047   -5.9305    3.4108 H   0  0  0  0  0  0  0  0  0  0  0  0
    4.5165   -4.7717    3.0393 H   0  0  0  0  0  0  0  0  0  0  0  0
    4.5649   -4.2010   -1.0616 H   0  0  0  0  0  0  0  0  0  0  0  0
    3.7574   -5.4758   -0.2920 H   0  0  0  0  0  0  0  0  0  0  0  0
    2.4551   -3.0509   -0.8433 H   0  0  0  0  0  0  0  0  0  0  0  0
    1.8691   -4.1471    0.2688 H   0  0  0  0  0  0  0  0  0  0  0  0
    2.0529   -1.9050    1.4300 H   0  0  0  0  0  0  0  0  0  0  0  0
    5.0789   -0.6244   -0.9495 H   0  0  0  0  0  0  0  0  0  0  0  0
    3.3953   -1.0043   -1.2473 H   0  0  0  0  0  0  0  0  0  0  0  0
    4.6540   -2.2159   -1.4165 H   0  0  0  0  0  0  0  0  0  0  0  0
    5.0159    0.2315    1.3220 H   0  0  0  0  0  0  0  0  0  0  0  0
    3.5651   -0.1859    2.2575 H   0  0  0  0  0  0  0  0  0  0  0  0
    3.4003    0.3856    0.6448 H   0  0  0  0  0  0  0  0  0  0  0  0
    6.2676   -2.3770    0.9614 H   0  0  0  0  0  0  0  0  0  0  0  0
    5.7281   -3.2006    3.2456 H   0  0  0  0  0  0  0  0  0  0  0  0
    6.2154   -1.1808    3.2410 H   0  0  0  0  0  0  0  0  0  0  0  0
    3.1796   -1.9169    4.3982 H   0  0  0  0  0  0  0  0  0  0  0  0
    3.8624   -5.8361    6.0554 H   0  0  0  0  0  0  0  0  0  0  0  0
    6.2279   -4.2611    5.0245 H   0  0  0  0  0  0  0  0  0  0  0  0
    6.1860   -5.7673    5.8497 H   0  0  0  0  0  0  0  0  0  0  0  0
    7.0994   -6.4839    4.0203 H   0  0  0  0  0  0  0  0  0  0  0  0
    6.0323   -7.9890    2.9620 H   0  0  0  0  0  0  0  0  0  0  0  0
    5.0209   -7.7564    4.3383 H   0  0  0  0  0  0  0  0  0  0  0  0
    4.1530   -9.4100    0.0920 H   0  0  0  0  0  0  0  0  0  0  0  0
    5.3750   -9.4045    1.3566 H   0  0  0  0  0  0  0  0  0  0  0  0
    2.3947   -9.6385    1.6766 H   0  0  0  0  0  0  0  0  0  0  0  0
    3.6605  -10.2815    2.7313 H   0  0  0  0  0  0  0  0  0  0  0  0
    7.0399   -4.4418    0.8116 H   0  0  0  0  0  0  0  0  0  0  0  0
    5.5760   -6.7702    0.7623 H   0  0  0  0  0  0  0  0  0  0  0  0
    0.7343   -2.1287    5.9701 H   0  0  0  0  0  0  0  0  0  0  0  0
    2.3121   -2.4014    6.7117 H   0  0  0  0  0  0  0  0  0  0  0  0
    1.0244   -3.5925    6.9392 H   0  0  0  0  0  0  0  0  0  0  0  0
   -0.1678   -4.0073    4.7194 H   0  0  0  0  0  0  0  0  0  0  0  0
    0.8643   -5.4193    4.4567 H   0  0  0  0  0  0  0  0  0  0  0  0
    0.8015   -4.0887    3.2650 H   0  0  0  0  0  0  0  0  0  0  0  0
  1  2  1  0
  1 32  1  0
  1 33  1  0
  1 34  1  0
  2 21  1  0
  2  3  1  0
  2 35  1  1
  3 14  1  0
  3  4  1  0
  3 36  1  1
  4 11  1  0
  4 27  1  0
  4  5  1  6
  5  6  1  0
  5 37  1  0
  5 38  1  0
  6  7  1  0
  6 39  1  0
  6 40  1  0
 14  7  1  6
  7  8  1  0
  7 41  1  1
  8  9  1  0
  8 10  1  0
  8 11  1  0
  9 42  1  0
  9 43  1  0
  9 44  1  0
 10 45  1  0
 10 46  1  0
 10 47  1  0
 11 12  1  0
 11 48  1  1
 12 13  1  0
 12 14  1  0
 12 49  1  1
 13 50  1  0
 14 15  1  0
 15 29  1  0
 15 16  1  0
 15 51  1  1
 16 17  2  3
 16 29  1  0
 17 18  1  0
 17 52  1  0
 18 19  1  0
 18 53  1  0
 18 54  1  0
 19 20  1  0
 19 26  1  0
 19 55  1  1
 20 21  1  0
 20 56  1  0
 20 57  1  0
 21 25  1  0
 21 22  1  0
 22 23  1  0
 23 24  1  0
 23 58  1  0
 23 59  1  0
 24 25  1  0
 24 60  1  0
 24 61  1  0
 26 27  1  0
 27 28  1  0
 27 62  1  6
 28 63  1  0
 29 30  1  0
 29 31  1  0
 30 64  1  0
 30 65  1  0
 30 66  1  0
 31 67  1  0
 31 68  1  0
 31 69  1  0
M  END
>  <i_m_ct_stereo_status>  (251) 
1

>  <s_m_source_file>  (251) 
/var/tmp/pbs.5076255.sched01/tmp378oxcv0/78pm6kuo1p.sdf

>  <i_m_source_file_index>  (251) 
37

>  <i_lp_mmshare_version>  (251) 
48012

>  <i_f3d_flags>  (251) 
0

>  <s_epik_input>  (251) 
TzFbQ0gyXVtDSDJdT0MxKFtDQEBIXTJbQ0gzXSlbQ0gyXVtDQEBIXShPW0NASF0zW09IXSlbQ0gyXS9bQ0hdPUMoQzQoW0NIM10pW0NIM10pXFtDSF00W0NAQF01KFtDQEhdMltDQEBdMzY3KVtDQEhdKFtDSDJdW0NIMl02KUMoW0NIM10pKFtDSDNdKVtDQEhdN1tDQEhdNVtPSF0=

>  <s_epik_cmdline>  (251) 
J2VwaWtfcHl0aG9uJywgJy1waHQnLCAnMi4wJywgJy1waCcsICc3LjAnLCAnLXRuJywgJzgnLCAnLW1hJywgJzIwMCcsICctaW1hZScsICc8aW5maWxlLm1hZT4nLCAnLW9tYWUnLCAnPG91dGZpbGUubWFlPic=

>  <r_lp_tautomer_probability>  (251) 
1

>  <r_epik_Ionization_Penalty>  (251) 
5.46082e-07

>  <r_epik_Ionization_Penalty_Charging>  (251) 
0

>  <r_epik_Ionization_Penalty_Neutral>  (251) 
5.46082e-07

>  <r_epik_State_Penalty>  (251) 
-0

>  <r_epik_Charging_Adjusted_Penalty>  (251) 
0

>  <i_epik_Tot_Q>  (251) 
0

>  <i_epik_Tot_abs_Q>  (251) 
0

>  <s_epik_Chemistry_Notes>  (251) 
This compound contains an acetal/aminal-like group ( X-CH(R)-Y where X, Y are N, S, or O) that may be acid/base labile, releasing an aldehyde.

>  <s_lp_Force_Field>  (251) 
OPLS3e

>  <r_lp_Energy>  (251) 
184.725

>  <b_lp_Chiralities_Consistent>  (251) 
1

>  <s_lp_Variant>  (251) 
81:0-5

>  <s_i_glide_gridfile>  (251) 
pfpi4k_grid

>  <i_i_glide_lignum>  (251) 
37

>  <i_i_glide_rotatable_bonds>  (251) 
2

>  <r_i_docking_score>  (251) 
-2.60609

>  <r_i_glide_ligand_efficiency>  (251) 
-0.0840674

>  <r_i_glide_ligand_efficiency_sa>  (251) 
-0.264088

>  <r_i_glide_ligand_efficiency_ln>  (251) 
-0.587753

>  <r_i_glide_gscore>  (251) 
-2.60609

>  <r_i_glide_lipo>  (251) 
-0.222134

>  <r_i_glide_hbond>  (251) 
0

>  <r_i_glide_metal>  (251) 
-0

>  <r_i_glide_rewards>  (251) 
-1.09398

>  <r_i_glide_evdw>  (251) 
-25.1698

>  <r_i_glide_ecoul>  (251) 
-0.209894

>  <r_i_glide_erotb>  (251) 
0

>  <r_i_glide_esite>  (251) 
0

>  <r_i_glide_emodel>  (251) 
-34.2335

>  <r_i_glide_energy>  (251) 
-25.3797

>  <r_i_glide_einternal>  (251) 
0.351017

>  <r_i_glide_intrahb_reward>  (251) 
-0.5

>  <i_i_glide_confnum>  (251) 
4

>  <i_i_glide_posenum>  (251) 
13

>  <r_i_glide_eff_state_penalty>  (251) 
0

>  <ligand_id>  (251) 
81

>  <original_smiles>  (251) 
CC1C2C34CCC5C(C)(C)C3C(O)C52C2C(=CCC(CC13OCCO3)OC4O)C2(C)C

>  <smiles>  (251) 
[H]OC1([H])OC2([H])C([H])([H])C([H])=C3C([H])(C3(C([H])([H])[H])C([H])([H])[H])C34C([H])(O[H])C5([H])C(C([H])([H])[H])(C([H])([H])[H])C3([H])C([H])([H])C([H])([H])C15C4([H])C([H])(C([H])([H])[H])C1(OC([H])([H])C([H])([H])O1)C2([H])[H]

$$$$
81:4:2
     RDKit          3D

 69 75  0  0  1  0  0  0  0  0999 V2000
    2.1480   -6.6910    1.6537 C   0  0  0  0  0  0  0  0  0  0  0  0
    3.3542   -6.3171    2.5613 C   0  0  2  0  0  0  0  0  0  0  0  0
    4.1520   -4.9529    2.3601 C   0  0  1  0  0  0  0  0  0  0  0  0
    5.1882   -4.6169    1.2739 C   0  0  1  0  0  0  0  0  0  0  0  0
    4.4016   -4.9056   -0.0154 C   0  0  0  0  0  0  0  0  0  0  0  0
    3.0689   -4.0479    0.0818 C   0  0  0  0  0  0  0  0  0  0  0  0
    3.1578   -2.9433    1.2093 C   0  0  2  0  0  0  0  0  0  0  0  0
    4.3665   -2.1042    0.7070 C   0  0  0  0  0  0  0  0  0  0  0  0
    4.6308   -1.8751   -0.8140 C   0  0  0  0  0  0  0  0  0  0  0  0
    4.1669   -0.6266    1.1713 C   0  0  0  0  0  0  0  0  0  0  0  0
    5.4692   -3.0188    1.3767 C   0  0  1  0  0  0  0  0  0  0  0  0
    5.1051   -2.8681    2.8091 C   0  0  1  0  0  0  0  0  0  0  0  0
    5.3091   -1.6078    3.4383 O   0  0  0  0  0  0  0  0  0  0  0  0
    3.6798   -3.5113    2.6451 C   0  0  2  0  0  0  0  0  0  0  0  0
    3.0634   -3.2331    4.0441 C   0  0  2  0  0  0  0  0  0  0  0  0
    3.3493   -4.3187    5.0509 C   0  0  0  0  0  0  0  0  0  0  0  0
    4.2468   -5.2239    5.5627 C   0  0  0  0  0  0  0  0  0  0  0  0
    5.7772   -5.3614    5.2800 C   0  0  0  0  0  0  0  0  0  0  0  0
    6.3126   -6.2229    4.0362 C   0  0  1  0  0  0  0  0  0  0  0  0
    5.5383   -7.5347    3.7399 C   0  0  0  0  0  0  0  0  0  0  0  0
    4.2775   -7.5706    2.7231 C   0  0  0  0  0  0  0  0  0  0  0  0
    4.6833   -8.0036    1.4758 O   0  0  0  0  0  0  0  0  0  0  0  0
    4.8169   -9.4026    1.4974 C   0  0  0  0  0  0  0  0  0  0  0  0
    3.7300   -9.7777    2.4991 C   0  0  0  0  0  0  0  0  0  0  0  0
    3.4896   -8.5997    3.2466 O   0  0  0  0  0  0  0  0  0  0  0  0
    6.9298   -5.4504    2.9484 O   0  0  0  0  0  0  0  0  0  0  0  0
    6.5642   -5.3649    1.5720 C   0  0  1  0  0  0  0  0  0  0  0  0
    6.7486   -6.5837    0.8808 O   0  0  0  0  0  0  0  0  0  0  0  0
    1.9236   -3.8987    4.9172 C   0  0  0  0  0  0  0  0  0  0  0  0
    1.3478   -3.1255    6.0818 C   0  0  0  0  0  0  0  0  0  0  0  0
    0.8598   -4.6964    4.2072 C   0  0  0  0  0  0  0  0  0  0  0  0
    2.4432   -6.9044    0.6341 H   0  0  0  0  0  0  0  0  0  0  0  0
    1.3622   -5.9379    1.6337 H   0  0  0  0  0  0  0  0  0  0  0  0
    1.6558   -7.5911    2.0119 H   0  0  0  0  0  0  0  0  0  0  0  0
    2.8818   -6.2510    3.5285 H   0  0  0  0  0  0  0  0  0  0  0  0
    4.6763   -5.0553    3.2066 H   0  0  0  0  0  0  0  0  0  0  0  0
    4.9867   -4.6907   -0.9030 H   0  0  0  0  0  0  0  0  0  0  0  0
    4.1757   -5.9607   -0.1250 H   0  0  0  0  0  0  0  0  0  0  0  0
    2.8320   -3.6117   -0.8871 H   0  0  0  0  0  0  0  0  0  0  0  0
    2.1969   -4.6624    0.2427 H   0  0  0  0  0  0  0  0  0  0  0  0
    2.2341   -2.3616    1.2857 H   0  0  0  0  0  0  0  0  0  0  0  0
    5.3777   -1.0928   -0.9473 H   0  0  0  0  0  0  0  0  0  0  0  0
    3.7322   -1.5427   -1.3380 H   0  0  0  0  0  0  0  0  0  0  0  0
    5.0343   -2.7215   -1.3548 H   0  0  0  0  0  0  0  0  0  0  0  0
    5.1238   -0.1100    1.2691 H   0  0  0  0  0  0  0  0  0  0  0  0
    3.6222   -0.5398    2.1125 H   0  0  0  0  0  0  0  0  0  0  0  0
    3.5587   -0.0562    0.4678 H   0  0  0  0  0  0  0  0  0  0  0  0
    6.4814   -2.6994    1.1444 H   0  0  0  0  0  0  0  0  0  0  0  0
    5.8080   -3.4232    3.4130 H   0  0  0  0  0  0  0  0  0  0  0  0
    5.0445   -1.6870    4.3339 H   0  0  0  0  0  0  0  0  0  0  0  0
    3.1263   -2.1767    4.3208 H   0  0  0  0  0  0  0  0  0  0  0  0
    3.8500   -5.9773    6.2311 H   0  0  0  0  0  0  0  0  0  0  0  0
    6.2387   -4.3741    5.2760 H   0  0  0  0  0  0  0  0  0  0  0  0
    6.1757   -5.8325    6.1799 H   0  0  0  0  0  0  0  0  0  0  0  0
    7.2397   -6.6161    4.4615 H   0  0  0  0  0  0  0  0  0  0  0  0
    6.2924   -8.2213    3.3827 H   0  0  0  0  0  0  0  0  0  0  0  0
    5.1960   -7.9395    4.6858 H   0  0  0  0  0  0  0  0  0  0  0  0
    4.6795   -9.8549    0.5121 H   0  0  0  0  0  0  0  0  0  0  0  0
    5.8054   -9.6889    1.8655 H   0  0  0  0  0  0  0  0  0  0  0  0
    2.8137  -10.0553    1.9821 H   0  0  0  0  0  0  0  0  0  0  0  0
    4.0238  -10.6005    3.1536 H   0  0  0  0  0  0  0  0  0  0  0  0
    7.3494   -4.7470    1.1502 H   0  0  0  0  0  0  0  0  0  0  0  0
    7.6296   -6.8535    1.0205 H   0  0  0  0  0  0  0  0  0  0  0  0
    0.6091   -2.4026    5.7316 H   0  0  0  0  0  0  0  0  0  0  0  0
    2.1398   -2.5770    6.5953 H   0  0  0  0  0  0  0  0  0  0  0  0
    0.8779   -3.8005    6.7951 H   0  0  0  0  0  0  0  0  0  0  0  0
   -0.1366   -4.3807    4.5200 H   0  0  0  0  0  0  0  0  0  0  0  0
    0.9584   -5.7620    4.4037 H   0  0  0  0  0  0  0  0  0  0  0  0
    0.9297   -4.4922    3.1399 H   0  0  0  0  0  0  0  0  0  0  0  0
  1  2  1  0
  1 32  1  0
  1 33  1  0
  1 34  1  0
  2 21  1  0
  2  3  1  0
  2 35  1  1
  3 14  1  0
  3  4  1  0
  3 36  1  1
  4 11  1  0
  4 27  1  0
  4  5  1  6
  5  6  1  0
  5 37  1  0
  5 38  1  0
  6  7  1  0
  6 39  1  0
  6 40  1  0
 14  7  1  6
  7  8  1  0
  7 41  1  1
  8  9  1  0
  8 10  1  0
  8 11  1  0
  9 42  1  0
  9 43  1  0
  9 44  1  0
 10 45  1  0
 10 46  1  0
 10 47  1  0
 11 12  1  0
 11 48  1  1
 12 13  1  0
 12 14  1  0
 12 49  1  1
 13 50  1  0
 14 15  1  0
 15 29  1  0
 15 16  1  0
 15 51  1  1
 16 17  2  3
 16 29  1  0
 17 18  1  0
 17 52  1  0
 18 19  1  0
 18 53  1  0
 18 54  1  0
 19 20  1  0
 19 26  1  0
 19 55  1  1
 20 21  1  0
 20 56  1  0
 20 57  1  0
 21 25  1  0
 21 22  1  0
 22 23  1  0
 23 24  1  0
 23 58  1  0
 23 59  1  0
 24 25  1  0
 24 60  1  0
 24 61  1  0
 26 27  1  0
 27 28  1  0
 27 62  1  6
 28 63  1  0
 29 30  1  0
 29 31  1  0
 30 64  1  0
 30 65  1  0
 30 66  1  0
 31 67  1  0
 31 68  1  0
 31 69  1  0
M  END
>  <i_m_ct_stereo_status>  (252) 
1

>  <s_m_source_file>  (252) 
/var/tmp/pbs.5076255.sched01/tmp378oxcv0/78pm6kuo1p.sdf

>  <i_m_source_file_index>  (252) 
37

>  <i_lp_mmshare_version>  (252) 
48012

>  <i_f3d_flags>  (252) 
0

>  <s_epik_input>  (252) 
TzFbQ0gyXVtDSDJdT0MxKFtDQEBIXTJbQ0gzXSlbQ0gyXVtDQEBIXShPW0NASF0zW09IXSlbQ0gyXS9bQ0hdPUMoQzQoW0NIM10pW0NIM10pXFtDSF00W0NAQF01KFtDQEhdMltDQEBdMzY3KVtDQEhdKFtDSDJdW0NIMl02KUMoW0NIM10pKFtDSDNdKVtDQEhdN1tDQEhdNVtPSF0=

>  <s_epik_cmdline>  (252) 
J2VwaWtfcHl0aG9uJywgJy1waHQnLCAnMi4wJywgJy1waCcsICc3LjAnLCAnLXRuJywgJzgnLCAnLW1hJywgJzIwMCcsICctaW1hZScsICc8aW5maWxlLm1hZT4nLCAnLW9tYWUnLCAnPG91dGZpbGUubWFlPic=

>  <r_lp_tautomer_probability>  (252) 
1

>  <r_epik_Ionization_Penalty>  (252) 
5.46082e-07

>  <r_epik_Ionization_Penalty_Charging>  (252) 
0

>  <r_epik_Ionization_Penalty_Neutral>  (252) 
5.46082e-07

>  <r_epik_State_Penalty>  (252) 
-0

>  <r_epik_Charging_Adjusted_Penalty>  (252) 
0

>  <i_epik_Tot_Q>  (252) 
0

>  <i_epik_Tot_abs_Q>  (252) 
0

>  <s_epik_Chemistry_Notes>  (252) 
This compound contains an acetal/aminal-like group ( X-CH(R)-Y where X, Y are N, S, or O) that may be acid/base labile, releasing an aldehyde.

>  <s_lp_Force_Field>  (252) 
OPLS3e

>  <r_lp_Energy>  (252) 
184.725

>  <b_lp_Chiralities_Consistent>  (252) 
1

>  <s_lp_Variant>  (252) 
81:0-5

>  <s_i_glide_gridfile>  (252) 
pfpi4k_grid

>  <i_i_glide_lignum>  (252) 
37

>  <i_i_glide_rotatable_bonds>  (252) 
2

>  <r_i_docking_score>  (252) 
-2.16351

>  <r_i_glide_ligand_efficiency>  (252) 
-0.0697906

>  <r_i_glide_ligand_efficiency_sa>  (252) 
-0.219239

>  <r_i_glide_ligand_efficiency_ln>  (252) 
-0.487938

>  <r_i_glide_gscore>  (252) 
-2.16351

>  <r_i_glide_lipo>  (252) 
-0.243732

>  <r_i_glide_hbond>  (252) 
0

>  <r_i_glide_metal>  (252) 
-0

>  <r_i_glide_rewards>  (252) 
-0.580746

>  <r_i_glide_evdw>  (252) 
-24.6305

>  <r_i_glide_ecoul>  (252) 
-0.712792

>  <r_i_glide_erotb>  (252) 
0

>  <r_i_glide_esite>  (252) 
-0.000589122

>  <r_i_glide_emodel>  (252) 
-28.2527

>  <r_i_glide_energy>  (252) 
-25.3433

>  <r_i_glide_einternal>  (252) 
0.855677

>  <r_i_glide_intrahb_reward>  (252) 
-0

>  <i_i_glide_confnum>  (252) 
1

>  <i_i_glide_posenum>  (252) 
1

>  <r_i_glide_eff_state_penalty>  (252) 
0

>  <ligand_id>  (252) 
81

>  <original_smiles>  (252) 
CC1C2C34CCC5C(C)(C)C3C(O)C52C2C(=CCC(CC13OCCO3)OC4O)C2(C)C

>  <smiles>  (252) 
[H]OC1([H])OC2([H])C([H])([H])C([H])=C3C([H])(C3(C([H])([H])[H])C([H])([H])[H])C34C([H])(O[H])C5([H])C(C([H])([H])[H])(C([H])([H])[H])C3([H])C([H])([H])C([H])([H])C15C4([H])C([H])(C([H])([H])[H])C1(OC([H])([H])C([H])([H])O1)C2([H])[H]

$$$$
81:5:0
     RDKit          3D

 69 75  0  0  1  0  0  0  0  0999 V2000
    2.0025   -6.1643    1.2836 C   0  0  0  0  0  0  0  0  0  0  0  0
    3.1948   -5.9895    2.2442 C   0  0  2  0  0  0  0  0  0  0  0  0
    4.1079   -4.6900    2.1587 C   0  0  1  0  0  0  0  0  0  0  0  0
    5.3216   -4.5029    1.2366 C   0  0  1  0  0  0  0  0  0  0  0  0
    4.7149   -4.8128   -0.1553 C   0  0  0  0  0  0  0  0  0  0  0  0
    3.4692   -3.8480   -0.3152 C   0  0  0  0  0  0  0  0  0  0  0  0
    3.4693   -2.6939    0.7684 C   0  0  2  0  0  0  0  0  0  0  0  0
    4.7982   -1.9727    0.4090 C   0  0  0  0  0  0  0  0  0  0  0  0
    5.3013   -1.8617   -1.0682 C   0  0  0  0  0  0  0  0  0  0  0  0
    4.6550   -0.4611    0.7672 C   0  0  0  0  0  0  0  0  0  0  0  0
    5.7165   -2.9247    1.2739 C   0  0  1  0  0  0  0  0  0  0  0  0
    5.1722   -2.6622    2.6229 C   0  0  1  0  0  0  0  0  0  0  0  0
    5.3774   -1.3919    3.2251 O   0  0  0  0  0  0  0  0  0  0  0  0
    3.7241   -3.2097    2.3033 C   0  0  2  0  0  0  0  0  0  0  0  0
    2.9478   -2.7404    3.5876 C   0  0  2  0  0  0  0  0  0  0  0  0
    3.3930   -3.3912    4.9293 C   0  0  0  0  0  0  0  0  0  0  0  0
    4.4754   -4.1600    5.2799 C   0  0  0  0  0  0  0  0  0  0  0  0
    4.7060   -5.6850    5.2549 C   0  0  0  0  0  0  0  0  0  0  0  0
    5.7002   -6.2997    4.1521 C   0  0  1  0  0  0  0  0  0  0  0  0
    5.0834   -7.5444    3.4944 C   0  0  0  0  0  0  0  0  0  0  0  0
    3.9668   -7.3627    2.3888 C   0  0  0  0  0  0  0  0  0  0  0  0
    3.0035   -8.3179    2.6999 O   0  0  0  0  0  0  0  0  0  0  0  0
    3.2161   -9.4533    1.8889 C   0  0  0  0  0  0  0  0  0  0  0  0
    4.4587   -9.1169    1.0872 C   0  0  0  0  0  0  0  0  0  0  0  0
    4.4976   -7.7115    1.1566 O   0  0  0  0  0  0  0  0  0  0  0  0
    6.5427   -5.4541    3.2890 O   0  0  0  0  0  0  0  0  0  0  0  0
    6.5269   -5.3617    1.8377 C   0  0  1  0  0  0  0  0  0  0  0  0
    6.7850   -6.5665    1.1678 O   0  0  0  0  0  0  0  0  0  0  0  0
    1.9210   -3.3665    4.5734 C   0  0  0  0  0  0  0  0  0  0  0  0
    1.1521   -2.4348    5.4872 C   0  0  0  0  0  0  0  0  0  0  0  0
    1.0347   -4.5551    4.2711 C   0  0  0  0  0  0  0  0  0  0  0  0
    2.3233   -6.4738    0.2943 H   0  0  0  0  0  0  0  0  0  0  0  0
    1.4149   -5.2553    1.1950 H   0  0  0  0  0  0  0  0  0  0  0  0
    1.3085   -6.9264    1.6353 H   0  0  0  0  0  0  0  0  0  0  0  0
    2.7453   -5.9235    3.2190 H   0  0  0  0  0  0  0  0  0  0  0  0
    4.4639   -4.7876    3.0916 H   0  0  0  0  0  0  0  0  0  0  0  0
    5.4604   -4.7002   -0.9340 H   0  0  0  0  0  0  0  0  0  0  0  0
    4.3856   -5.8391   -0.2670 H   0  0  0  0  0  0  0  0  0  0  0  0
    3.4382   -3.4550   -1.3277 H   0  0  0  0  0  0  0  0  0  0  0  0
    2.5308   -4.3740   -0.3009 H   0  0  0  0  0  0  0  0  0  0  0  0
    2.5919   -2.0485    0.6734 H   0  0  0  0  0  0  0  0  0  0  0  0
    6.1352   -1.1657   -1.1181 H   0  0  0  0  0  0  0  0  0  0  0  0
    4.5292   -1.4799   -1.7394 H   0  0  0  0  0  0  0  0  0  0  0  0
    5.6915   -2.7719   -1.5053 H   0  0  0  0  0  0  0  0  0  0  0  0
    5.6262   -0.0089    0.9705 H   0  0  0  0  0  0  0  0  0  0  0  0
    3.9753   -0.2703    1.5986 H   0  0  0  0  0  0  0  0  0  0  0  0
    4.2129    0.0987   -0.0576 H   0  0  0  0  0  0  0  0  0  0  0  0
    6.7789   -2.6998    1.1653 H   0  0  0  0  0  0  0  0  0  0  0  0
    5.7839   -3.2456    3.2980 H   0  0  0  0  0  0  0  0  0  0  0  0
    4.9623   -0.7406    2.6839 H   0  0  0  0  0  0  0  0  0  0  0  0
    2.8480   -1.6534    3.5567 H   0  0  0  0  0  0  0  0  0  0  0  0
    5.4231   -3.6362    5.3156 H   0  0  0  0  0  0  0  0  0  0  0  0
    5.1297   -5.9273    6.2285 H   0  0  0  0  0  0  0  0  0  0  0  0
    3.7452   -6.2035    5.2409 H   0  0  0  0  0  0  0  0  0  0  0  0
    6.4828   -6.7382    4.7698 H   0  0  0  0  0  0  0  0  0  0  0  0
    5.9190   -8.1174    3.0937 H   0  0  0  0  0  0  0  0  0  0  0  0
    4.6600   -8.1717    4.2819 H   0  0  0  0  0  0  0  0  0  0  0  0
    3.3473  -10.3568    2.4818 H   0  0  0  0  0  0  0  0  0  0  0  0
    2.3537   -9.5924    1.2396 H   0  0  0  0  0  0  0  0  0  0  0  0
    5.3543   -9.5558    1.5250 H   0  0  0  0  0  0  0  0  0  0  0  0
    4.3798   -9.4741    0.0744 H   0  0  0  0  0  0  0  0  0  0  0  0
    7.4317   -4.7889    1.6576 H   0  0  0  0  0  0  0  0  0  0  0  0
    5.9905   -7.0963    1.2244 H   0  0  0  0  0  0  0  0  0  0  0  0
    0.2827   -2.0212    4.9744 H   0  0  0  0  0  0  0  0  0  0  0  0
    1.7876   -1.6043    5.8003 H   0  0  0  0  0  0  0  0  0  0  0  0
    0.8236   -2.9620    6.3849 H   0  0  0  0  0  0  0  0  0  0  0  0
    0.9406   -4.6612    3.1984 H   0  0  0  0  0  0  0  0  0  0  0  0
    0.0174   -4.3794    4.6254 H   0  0  0  0  0  0  0  0  0  0  0  0
    1.3860   -5.4670    4.7549 H   0  0  0  0  0  0  0  0  0  0  0  0
  1  2  1  0
  1 32  1  0
  1 33  1  0
  1 34  1  0
  2 21  1  0
  2  3  1  0
  2 35  1  1
  3 14  1  0
  3  4  1  0
  3 36  1  1
  4 11  1  0
  4 27  1  0
  4  5  1  6
  5  6  1  0
  5 37  1  0
  5 38  1  0
  6  7  1  0
  6 39  1  0
  6 40  1  0
 14  7  1  6
  7  8  1  0
  7 41  1  1
  8  9  1  0
  8 10  1  0
  8 11  1  0
  9 42  1  0
  9 43  1  0
  9 44  1  0
 10 45  1  0
 10 46  1  0
 10 47  1  0
 11 12  1  0
 11 48  1  1
 12 13  1  0
 12 14  1  0
 12 49  1  1
 13 50  1  0
 14 15  1  0
 15 29  1  0
 15 16  1  0
 15 51  1  1
 16 17  2  3
 16 29  1  0
 17 18  1  0
 17 52  1  0
 18 19  1  0
 18 53  1  0
 18 54  1  0
 19 20  1  0
 19 26  1  0
 19 55  1  1
 20 21  1  0
 20 56  1  0
 20 57  1  0
 21 25  1  0
 21 22  1  0
 22 23  1  0
 23 24  1  0
 23 58  1  0
 23 59  1  0
 24 25  1  0
 24 60  1  0
 24 61  1  0
 26 27  1  0
 27 28  1  0
 27 62  1  1
 28 63  1  0
 29 30  1  0
 29 31  1  0
 30 64  1  0
 30 65  1  0
 30 66  1  0
 31 67  1  0
 31 68  1  0
 31 69  1  0
M  END
>  <i_m_ct_stereo_status>  (253) 
1

>  <s_m_source_file>  (253) 
/var/tmp/pbs.5076255.sched01/tmp378oxcv0/78pm6kuo1p.sdf

>  <i_m_source_file_index>  (253) 
38

>  <i_lp_mmshare_version>  (253) 
48012

>  <i_f3d_flags>  (253) 
0

>  <s_epik_input>  (253) 
TzFbQ0gyXVtDSDJdT0MxKFtDQEBIXTJbQ0gzXSlbQ0gyXVtDQEBIXShPW0NASF0zW09IXSlbQ0gyXS9bQ0hdPUMoQzQoW0NIM10pW0NIM10pXFtDSF00W0NAQF01KFtDQEhdMltDQEBdMzY3KVtDQEhdKFtDSDJdW0NIMl02KUMoW0NIM10pKFtDSDNdKVtDQEhdN1tDQEhdNVtPSF0=

>  <s_epik_cmdline>  (253) 
J2VwaWtfcHl0aG9uJywgJy1waHQnLCAnMi4wJywgJy1waCcsICc3LjAnLCAnLXRuJywgJzgnLCAnLW1hJywgJzIwMCcsICctaW1hZScsICc8aW5maWxlLm1hZT4nLCAnLW9tYWUnLCAnPG91dGZpbGUubWFlPic=

>  <r_lp_tautomer_probability>  (253) 
1

>  <r_epik_Ionization_Penalty>  (253) 
5.46082e-07

>  <r_epik_Ionization_Penalty_Charging>  (253) 
0

>  <r_epik_Ionization_Penalty_Neutral>  (253) 
5.46082e-07

>  <r_epik_State_Penalty>  (253) 
-0

>  <r_epik_Charging_Adjusted_Penalty>  (253) 
0

>  <i_epik_Tot_Q>  (253) 
0

>  <i_epik_Tot_abs_Q>  (253) 
0

>  <s_epik_Chemistry_Notes>  (253) 
This compound contains an acetal/aminal-like group ( X-CH(R)-Y where X, Y are N, S, or O) that may be acid/base labile, releasing an aldehyde.

>  <s_lp_Force_Field>  (253) 
OPLS3e

>  <r_lp_Energy>  (253) 
217.246

>  <b_lp_Chiralities_Consistent>  (253) 
1

>  <s_lp_Variant>  (253) 
81:0-6

>  <s_i_glide_gridfile>  (253) 
pfpi4k_grid

>  <i_i_glide_lignum>  (253) 
38

>  <i_i_glide_rotatable_bonds>  (253) 
2

>  <r_i_docking_score>  (253) 
-2.86881

>  <r_i_glide_ligand_efficiency>  (253) 
-0.0925423

>  <r_i_glide_ligand_efficiency_sa>  (253) 
-0.290711

>  <r_i_glide_ligand_efficiency_ln>  (253) 
-0.647005

>  <r_i_glide_gscore>  (253) 
-2.86881

>  <r_i_glide_lipo>  (253) 
-0.353874

>  <r_i_glide_hbond>  (253) 
0

>  <r_i_glide_metal>  (253) 
-0

>  <r_i_glide_rewards>  (253) 
-1.05993

>  <r_i_glide_evdw>  (253) 
-27.9445

>  <r_i_glide_ecoul>  (253) 
-0.384995

>  <r_i_glide_erotb>  (253) 
0

>  <r_i_glide_esite>  (253) 
-3.67694e-05

>  <r_i_glide_emodel>  (253) 
-37.6898

>  <r_i_glide_energy>  (253) 
-28.3295

>  <r_i_glide_einternal>  (253) 
0.0217347

>  <r_i_glide_intrahb_reward>  (253) 
-0.5

>  <i_i_glide_confnum>  (253) 
4

>  <i_i_glide_posenum>  (253) 
12

>  <r_i_glide_eff_state_penalty>  (253) 
0

>  <ligand_id>  (253) 
81

>  <original_smiles>  (253) 
CC1C2C34CCC5C(C)(C)C3C(O)C52C2C(=CCC(CC13OCCO3)OC4O)C2(C)C

>  <smiles>  (253) 
[H]OC1([H])OC2([H])C([H])([H])C([H])=C3C([H])(C3(C([H])([H])[H])C([H])([H])[H])C34C([H])(O[H])C5([H])C(C([H])([H])[H])(C([H])([H])[H])C3([H])C([H])([H])C([H])([H])C15C4([H])C([H])(C([H])([H])[H])C1(OC([H])([H])C([H])([H])O1)C2([H])[H]

$$$$
81:5:1
     RDKit          3D

 69 75  0  0  1  0  0  0  0  0999 V2000
    2.0020   -6.1658    1.2605 C   0  0  0  0  0  0  0  0  0  0  0  0
    3.1858   -5.9739    2.2138 C   0  0  2  0  0  0  0  0  0  0  0  0
    4.1095   -4.6865    2.1267 C   0  0  1  0  0  0  0  0  0  0  0  0
    5.3098   -4.4987    1.2016 C   0  0  1  0  0  0  0  0  0  0  0  0
    4.7175   -4.8336   -0.1875 C   0  0  0  0  0  0  0  0  0  0  0  0
    3.4789   -3.8626   -0.3547 C   0  0  0  0  0  0  0  0  0  0  0  0
    3.4753   -2.7052    0.7243 C   0  0  2  0  0  0  0  0  0  0  0  0
    4.8051   -1.9951    0.3494 C   0  0  0  0  0  0  0  0  0  0  0  0
    5.3109   -1.8930   -1.1256 C   0  0  0  0  0  0  0  0  0  0  0  0
    4.6667   -0.4802    0.6891 C   0  0  0  0  0  0  0  0  0  0  0  0
    5.7206   -2.9343    1.2212 C   0  0  1  0  0  0  0  0  0  0  0  0
    5.1745   -2.6663    2.5689 C   0  0  1  0  0  0  0  0  0  0  0  0
    5.3833   -1.3918    3.1547 O   0  0  0  0  0  0  0  0  0  0  0  0
    3.7367   -3.2101    2.2568 C   0  0  2  0  0  0  0  0  0  0  0  0
    2.9712   -2.7333    3.5313 C   0  0  2  0  0  0  0  0  0  0  0  0
    3.3927   -3.3471    4.8991 C   0  0  0  0  0  0  0  0  0  0  0  0
    4.4680   -4.1363    5.2122 C   0  0  0  0  0  0  0  0  0  0  0  0
    4.6950   -5.6633    5.2236 C   0  0  0  0  0  0  0  0  0  0  0  0
    5.6905   -6.2844    4.1293 C   0  0  1  0  0  0  0  0  0  0  0  0
    5.0757   -7.5295    3.4897 C   0  0  0  0  0  0  0  0  0  0  0  0
    3.9447   -7.3451    2.3535 C   0  0  0  0  0  0  0  0  0  0  0  0
    3.0040   -8.3216    2.6943 O   0  0  0  0  0  0  0  0  0  0  0  0
    3.2015   -9.4545    1.8812 C   0  0  0  0  0  0  0  0  0  0  0  0
    4.4373   -9.1370    1.0714 C   0  0  0  0  0  0  0  0  0  0  0  0
    4.4982   -7.7379    1.1463 O   0  0  0  0  0  0  0  0  0  0  0  0
    6.5406   -5.4515    3.2594 O   0  0  0  0  0  0  0  0  0  0  0  0
    6.5202   -5.3655    1.8064 C   0  0  1  0  0  0  0  0  0  0  0  0
    6.7811   -6.5905    1.1460 O   0  0  0  0  0  0  0  0  0  0  0  0
    1.9195   -3.3424    4.5197 C   0  0  0  0  0  0  0  0  0  0  0  0
    1.1526   -2.4109    5.4298 C   0  0  0  0  0  0  0  0  0  0  0  0
    1.0369   -4.5342    4.2390 C   0  0  0  0  0  0  0  0  0  0  0  0
    2.3179   -6.4775    0.2706 H   0  0  0  0  0  0  0  0  0  0  0  0
    1.4163   -5.2582    1.1608 H   0  0  0  0  0  0  0  0  0  0  0  0
    1.3021   -6.9231    1.6116 H   0  0  0  0  0  0  0  0  0  0  0  0
    2.7443   -5.9118    3.1895 H   0  0  0  0  0  0  0  0  0  0  0  0
    4.4631   -4.7801    3.0566 H   0  0  0  0  0  0  0  0  0  0  0  0
    5.4610   -4.7302   -0.9702 H   0  0  0  0  0  0  0  0  0  0  0  0
    4.3799   -5.8570   -0.2956 H   0  0  0  0  0  0  0  0  0  0  0  0
    3.4434   -3.4757   -1.3710 H   0  0  0  0  0  0  0  0  0  0  0  0
    2.5354   -4.3841   -0.3382 H   0  0  0  0  0  0  0  0  0  0  0  0
    2.6041   -2.0527    0.6187 H   0  0  0  0  0  0  0  0  0  0  0  0
    6.1465   -1.2002   -1.1776 H   0  0  0  0  0  0  0  0  0  0  0  0
    4.5408   -1.5120   -1.7977 H   0  0  0  0  0  0  0  0  0  0  0  0
    5.6977   -2.8074   -1.5567 H   0  0  0  0  0  0  0  0  0  0  0  0
    5.6383   -0.0284    0.8948 H   0  0  0  0  0  0  0  0  0  0  0  0
    4.0010   -0.2830    1.5296 H   0  0  0  0  0  0  0  0  0  0  0  0
    4.2182    0.0802   -0.1327 H   0  0  0  0  0  0  0  0  0  0  0  0
    6.7842   -2.7158    1.1176 H   0  0  0  0  0  0  0  0  0  0  0  0
    5.7851   -3.2382    3.2519 H   0  0  0  0  0  0  0  0  0  0  0  0
    4.9908   -1.3867    4.0064 H   0  0  0  0  0  0  0  0  0  0  0  0
    2.8400   -1.6487    3.4844 H   0  0  0  0  0  0  0  0  0  0  0  0
    5.4270   -3.6262    5.2831 H   0  0  0  0  0  0  0  0  0  0  0  0
    5.1219   -5.8971    6.2002 H   0  0  0  0  0  0  0  0  0  0  0  0
    3.7314   -6.1769    5.2174 H   0  0  0  0  0  0  0  0  0  0  0  0
    6.4699   -6.7188    4.7519 H   0  0  0  0  0  0  0  0  0  0  0  0
    5.9212   -8.1047    3.1031 H   0  0  0  0  0  0  0  0  0  0  0  0
    4.6443   -8.1566    4.2775 H   0  0  0  0  0  0  0  0  0  0  0  0
    3.3284  -10.3544    2.4845 H   0  0  0  0  0  0  0  0  0  0  0  0
    2.3340   -9.5919    1.2394 H   0  0  0  0  0  0  0  0  0  0  0  0
    5.3293   -9.5928    1.4984 H   0  0  0  0  0  0  0  0  0  0  0  0
    4.3512   -9.4849    0.0479 H   0  0  0  0  0  0  0  0  0  0  0  0
    7.4331   -4.8022    1.6214 H   0  0  0  0  0  0  0  0  0  0  0  0
    5.9753   -7.1039    1.1969 H   0  0  0  0  0  0  0  0  0  0  0  0
    0.2888   -1.9999    4.9116 H   0  0  0  0  0  0  0  0  0  0  0  0
    1.7909   -1.5752    5.7370 H   0  0  0  0  0  0  0  0  0  0  0  0
    0.8255   -2.9279    6.3303 H   0  0  0  0  0  0  0  0  0  0  0  0
    0.9462   -4.6439    3.1639 H   0  0  0  0  0  0  0  0  0  0  0  0
    0.0214   -4.3490    4.5875 H   0  0  0  0  0  0  0  0  0  0  0  0
    1.3882   -5.4394    4.7271 H   0  0  0  0  0  0  0  0  0  0  0  0
  1  2  1  0
  1 32  1  0
  1 33  1  0
  1 34  1  0
  2 21  1  0
  2  3  1  0
  2 35  1  1
  3 14  1  0
  3  4  1  0
  3 36  1  1
  4 11  1  0
  4 27  1  0
  4  5  1  6
  5  6  1  0
  5 37  1  0
  5 38  1  0
  6  7  1  0
  6 39  1  0
  6 40  1  0
 14  7  1  6
  7  8  1  0
  7 41  1  1
  8  9  1  0
  8 10  1  0
  8 11  1  0
  9 42  1  0
  9 43  1  0
  9 44  1  0
 10 45  1  0
 10 46  1  0
 10 47  1  0
 11 12  1  0
 11 48  1  1
 12 13  1  0
 12 14  1  0
 12 49  1  1
 13 50  1  0
 14 15  1  0
 15 29  1  0
 15 16  1  0
 15 51  1  1
 16 17  2  3
 16 29  1  0
 17 18  1  0
 17 52  1  0
 18 19  1  0
 18 53  1  0
 18 54  1  0
 19 20  1  0
 19 26  1  0
 19 55  1  1
 20 21  1  0
 20 56  1  0
 20 57  1  0
 21 25  1  0
 21 22  1  0
 22 23  1  0
 23 24  1  0
 23 58  1  0
 23 59  1  0
 24 25  1  0
 24 60  1  0
 24 61  1  0
 26 27  1  0
 27 28  1  0
 27 62  1  6
 28 63  1  0
 29 30  1  0
 29 31  1  0
 30 64  1  0
 30 65  1  0
 30 66  1  0
 31 67  1  0
 31 68  1  0
 31 69  1  0
M  END
>  <i_m_ct_stereo_status>  (254) 
1

>  <s_m_source_file>  (254) 
/var/tmp/pbs.5076255.sched01/tmp378oxcv0/78pm6kuo1p.sdf

>  <i_m_source_file_index>  (254) 
38

>  <i_lp_mmshare_version>  (254) 
48012

>  <i_f3d_flags>  (254) 
0

>  <s_epik_input>  (254) 
TzFbQ0gyXVtDSDJdT0MxKFtDQEBIXTJbQ0gzXSlbQ0gyXVtDQEBIXShPW0NASF0zW09IXSlbQ0gyXS9bQ0hdPUMoQzQoW0NIM10pW0NIM10pXFtDSF00W0NAQF01KFtDQEhdMltDQEBdMzY3KVtDQEhdKFtDSDJdW0NIMl02KUMoW0NIM10pKFtDSDNdKVtDQEhdN1tDQEhdNVtPSF0=

>  <s_epik_cmdline>  (254) 
J2VwaWtfcHl0aG9uJywgJy1waHQnLCAnMi4wJywgJy1waCcsICc3LjAnLCAnLXRuJywgJzgnLCAnLW1hJywgJzIwMCcsICctaW1hZScsICc8aW5maWxlLm1hZT4nLCAnLW9tYWUnLCAnPG91dGZpbGUubWFlPic=

>  <r_lp_tautomer_probability>  (254) 
1

>  <r_epik_Ionization_Penalty>  (254) 
5.46082e-07

>  <r_epik_Ionization_Penalty_Charging>  (254) 
0

>  <r_epik_Ionization_Penalty_Neutral>  (254) 
5.46082e-07

>  <r_epik_State_Penalty>  (254) 
-0

>  <r_epik_Charging_Adjusted_Penalty>  (254) 
0

>  <i_epik_Tot_Q>  (254) 
0

>  <i_epik_Tot_abs_Q>  (254) 
0

>  <s_epik_Chemistry_Notes>  (254) 
This compound contains an acetal/aminal-like group ( X-CH(R)-Y where X, Y are N, S, or O) that may be acid/base labile, releasing an aldehyde.

>  <s_lp_Force_Field>  (254) 
OPLS3e

>  <r_lp_Energy>  (254) 
217.246

>  <b_lp_Chiralities_Consistent>  (254) 
1

>  <s_lp_Variant>  (254) 
81:0-6

>  <s_i_glide_gridfile>  (254) 
pfpi4k_grid

>  <i_i_glide_lignum>  (254) 
38

>  <i_i_glide_rotatable_bonds>  (254) 
2

>  <r_i_docking_score>  (254) 
-2.81541

>  <r_i_glide_ligand_efficiency>  (254) 
-0.0908197

>  <r_i_glide_ligand_efficiency_sa>  (254) 
-0.285299

>  <r_i_glide_ligand_efficiency_ln>  (254) 
-0.634961

>  <r_i_glide_gscore>  (254) 
-2.81541

>  <r_i_glide_lipo>  (254) 
-0.350246

>  <r_i_glide_hbond>  (254) 
0

>  <r_i_glide_metal>  (254) 
-0

>  <r_i_glide_rewards>  (254) 
-1.06514

>  <r_i_glide_evdw>  (254) 
-27.759

>  <r_i_glide_ecoul>  (254) 
-0.0804975

>  <r_i_glide_erotb>  (254) 
0

>  <r_i_glide_esite>  (254) 
0

>  <r_i_glide_emodel>  (254) 
-36.8133

>  <r_i_glide_energy>  (254) 
-27.8395

>  <r_i_glide_einternal>  (254) 
0.337074

>  <r_i_glide_intrahb_reward>  (254) 
-0.5

>  <i_i_glide_confnum>  (254) 
1

>  <i_i_glide_posenum>  (254) 
32

>  <r_i_glide_eff_state_penalty>  (254) 
0

>  <ligand_id>  (254) 
81

>  <original_smiles>  (254) 
CC1C2C34CCC5C(C)(C)C3C(O)C52C2C(=CCC(CC13OCCO3)OC4O)C2(C)C

>  <smiles>  (254) 
[H]OC1([H])OC2([H])C([H])([H])C([H])=C3C([H])(C3(C([H])([H])[H])C([H])([H])[H])C34C([H])(O[H])C5([H])C(C([H])([H])[H])(C([H])([H])[H])C3([H])C([H])([H])C([H])([H])C15C4([H])C([H])(C([H])([H])[H])C1(OC([H])([H])C([H])([H])O1)C2([H])[H]

$$$$
81:5:2
     RDKit          3D

 69 75  0  0  1  0  0  0  0  0999 V2000
    2.0136   -6.1588    1.2661 C   0  0  0  0  0  0  0  0  0  0  0  0
    3.2006   -5.9845    2.2322 C   0  0  2  0  0  0  0  0  0  0  0  0
    4.1214   -4.6892    2.1528 C   0  0  1  0  0  0  0  0  0  0  0  0
    5.3436   -4.5026    1.2397 C   0  0  1  0  0  0  0  0  0  0  0  0
    4.7479   -4.8129   -0.1537 C   0  0  0  0  0  0  0  0  0  0  0  0
    3.5029   -3.8472   -0.3219 C   0  0  0  0  0  0  0  0  0  0  0  0
    3.4945   -2.6924    0.7608 C   0  0  2  0  0  0  0  0  0  0  0  0
    4.8261   -1.9728    0.4093 C   0  0  0  0  0  0  0  0  0  0  0  0
    5.3427   -1.8618   -1.0628 C   0  0  0  0  0  0  0  0  0  0  0  0
    4.6814   -0.4612    0.7664 C   0  0  0  0  0  0  0  0  0  0  0  0
    5.7368   -2.9238    1.2790 C   0  0  1  0  0  0  0  0  0  0  0  0
    5.1844   -2.6611    2.6253 C   0  0  1  0  0  0  0  0  0  0  0  0
    5.3874   -1.3908    3.2289 O   0  0  0  0  0  0  0  0  0  0  0  0
    3.7398   -3.2079    2.2957 C   0  0  2  0  0  0  0  0  0  0  0  0
    2.9538   -2.7393    3.5746 C   0  0  2  0  0  0  0  0  0  0  0  0
    3.3889   -3.3894    4.9193 C   0  0  0  0  0  0  0  0  0  0  0  0
    4.4677   -4.1594    5.2766 C   0  0  0  0  0  0  0  0  0  0  0  0
    4.6980   -5.6846    5.2502 C   0  0  0  0  0  0  0  0  0  0  0  0
    5.6988   -6.3004    4.1516 C   0  0  1  0  0  0  0  0  0  0  0  0
    5.0889   -7.5401    3.4799 C   0  0  0  0  0  0  0  0  0  0  0  0
    3.9658   -7.3579    2.3734 C   0  0  0  0  0  0  0  0  0  0  0  0
    3.0029   -8.3158    2.6934 O   0  0  0  0  0  0  0  0  0  0  0  0
    3.2257   -9.4554    1.8870 C   0  0  0  0  0  0  0  0  0  0  0  0
    4.4692   -9.1170    1.0883 C   0  0  0  0  0  0  0  0  0  0  0  0
    4.4726   -7.7133    1.1369 O   0  0  0  0  0  0  0  0  0  0  0  0
    6.5551   -5.4567    3.3007 O   0  0  0  0  0  0  0  0  0  0  0  0
    6.5560   -5.3494    1.8517 C   0  0  1  0  0  0  0  0  0  0  0  0
    6.8511   -6.5433    1.1757 O   0  0  0  0  0  0  0  0  0  0  0  0
    1.9193   -3.3654    4.5535 C   0  0  0  0  0  0  0  0  0  0  0  0
    1.1419   -2.4334    5.4614 C   0  0  0  0  0  0  0  0  0  0  0  0
    1.0352   -4.5527    4.2458 C   0  0  0  0  0  0  0  0  0  0  0  0
    2.3414   -6.4605    0.2756 H   0  0  0  0  0  0  0  0  0  0  0  0
    1.4193   -5.2534    1.1674 H   0  0  0  0  0  0  0  0  0  0  0  0
    1.3236   -6.9297    1.6085 H   0  0  0  0  0  0  0  0  0  0  0  0
    2.7498   -5.9181    3.2066 H   0  0  0  0  0  0  0  0  0  0  0  0
    4.4728   -4.7888    3.0864 H   0  0  0  0  0  0  0  0  0  0  0  0
    5.4969   -4.7026   -0.9295 H   0  0  0  0  0  0  0  0  0  0  0  0
    4.4207   -5.8395   -0.2675 H   0  0  0  0  0  0  0  0  0  0  0  0
    3.4785   -3.4540   -1.3345 H   0  0  0  0  0  0  0  0  0  0  0  0
    2.5636   -4.3719   -0.3141 H   0  0  0  0  0  0  0  0  0  0  0  0
    2.6170   -2.0471    0.6566 H   0  0  0  0  0  0  0  0  0  0  0  0
    6.1776   -1.1665   -1.1057 H   0  0  0  0  0  0  0  0  0  0  0  0
    4.5763   -1.4790   -1.7404 H   0  0  0  0  0  0  0  0  0  0  0  0
    5.7349   -2.7729   -1.4971 H   0  0  0  0  0  0  0  0  0  0  0  0
    5.6508   -0.0072    0.9763 H   0  0  0  0  0  0  0  0  0  0  0  0
    3.9958   -0.2700    1.5921 H   0  0  0  0  0  0  0  0  0  0  0  0
    4.2443    0.1004   -0.0605 H   0  0  0  0  0  0  0  0  0  0  0  0
    6.7984   -2.6975    1.1808 H   0  0  0  0  0  0  0  0  0  0  0  0
    5.7893   -3.2465    3.3051 H   0  0  0  0  0  0  0  0  0  0  0  0
    4.9658   -0.7402    2.6925 H   0  0  0  0  0  0  0  0  0  0  0  0
    2.8521   -1.6517    3.5429 H   0  0  0  0  0  0  0  0  0  0  0  0
    5.4132   -3.6342    5.3198 H   0  0  0  0  0  0  0  0  0  0  0  0
    5.1148   -5.9260    6.2264 H   0  0  0  0  0  0  0  0  0  0  0  0
    3.7371   -6.2001    5.2329 H   0  0  0  0  0  0  0  0  0  0  0  0
    6.4743   -6.7399    4.7775 H   0  0  0  0  0  0  0  0  0  0  0  0
    5.9249   -8.1101    3.0798 H   0  0  0  0  0  0  0  0  0  0  0  0
    4.6650   -8.1700    4.2652 H   0  0  0  0  0  0  0  0  0  0  0  0
    3.3555  -10.3600    2.4788 H   0  0  0  0  0  0  0  0  0  0  0  0
    2.3693   -9.5917    1.2269 H   0  0  0  0  0  0  0  0  0  0  0  0
    5.3694   -9.5326    1.5350 H   0  0  0  0  0  0  0  0  0  0  0  0
    4.4062   -9.4883    0.0800 H   0  0  0  0  0  0  0  0  0  0  0  0
    7.4514   -4.7551    1.6855 H   0  0  0  0  0  0  0  0  0  0  0  0
    7.6946   -6.8473    1.4854 H   0  0  0  0  0  0  0  0  0  0  0  0
    0.2775   -2.0200    4.9416 H   0  0  0  0  0  0  0  0  0  0  0  0
    1.7776   -1.6036    5.7780 H   0  0  0  0  0  0  0  0  0  0  0  0
    0.8083   -2.9601    6.3568 H   0  0  0  0  0  0  0  0  0  0  0  0
    0.9487   -4.6585    3.1719 H   0  0  0  0  0  0  0  0  0  0  0  0
    0.0147   -4.3779    4.5903 H   0  0  0  0  0  0  0  0  0  0  0  0
    1.3816   -5.4638    4.7295 H   0  0  0  0  0  0  0  0  0  0  0  0
  1  2  1  0
  1 32  1  0
  1 33  1  0
  1 34  1  0
  2 21  1  0
  2  3  1  0
  2 35  1  1
  3 14  1  0
  3  4  1  0
  3 36  1  1
  4 11  1  0
  4 27  1  0
  4  5  1  6
  5  6  1  0
  5 37  1  0
  5 38  1  0
  6  7  1  0
  6 39  1  0
  6 40  1  0
 14  7  1  6
  7  8  1  0
  7 41  1  1
  8  9  1  0
  8 10  1  0
  8 11  1  0
  9 42  1  0
  9 43  1  0
  9 44  1  0
 10 45  1  0
 10 46  1  0
 10 47  1  0
 11 12  1  0
 11 48  1  1
 12 13  1  0
 12 14  1  0
 12 49  1  1
 13 50  1  0
 14 15  1  0
 15 29  1  0
 15 16  1  0
 15 51  1  1
 16 17  2  3
 16 29  1  0
 17 18  1  0
 17 52  1  0
 18 19  1  0
 18 53  1  0
 18 54  1  0
 19 20  1  0
 19 26  1  0
 19 55  1  1
 20 21  1  0
 20 56  1  0
 20 57  1  0
 21 25  1  0
 21 22  1  0
 22 23  1  0
 23 24  1  0
 23 58  1  0
 23 59  1  0
 24 25  1  0
 24 60  1  0
 24 61  1  0
 26 27  1  0
 27 28  1  0
 27 62  1  1
 28 63  1  0
 29 30  1  0
 29 31  1  0
 30 64  1  0
 30 65  1  0
 30 66  1  0
 31 67  1  0
 31 68  1  0
 31 69  1  0
M  END
>  <i_m_ct_stereo_status>  (255) 
1

>  <s_m_source_file>  (255) 
/var/tmp/pbs.5076255.sched01/tmp378oxcv0/78pm6kuo1p.sdf

>  <i_m_source_file_index>  (255) 
38

>  <i_lp_mmshare_version>  (255) 
48012

>  <i_f3d_flags>  (255) 
0

>  <s_epik_input>  (255) 
TzFbQ0gyXVtDSDJdT0MxKFtDQEBIXTJbQ0gzXSlbQ0gyXVtDQEBIXShPW0NASF0zW09IXSlbQ0gyXS9bQ0hdPUMoQzQoW0NIM10pW0NIM10pXFtDSF00W0NAQF01KFtDQEhdMltDQEBdMzY3KVtDQEhdKFtDSDJdW0NIMl02KUMoW0NIM10pKFtDSDNdKVtDQEhdN1tDQEhdNVtPSF0=

>  <s_epik_cmdline>  (255) 
J2VwaWtfcHl0aG9uJywgJy1waHQnLCAnMi4wJywgJy1waCcsICc3LjAnLCAnLXRuJywgJzgnLCAnLW1hJywgJzIwMCcsICctaW1hZScsICc8aW5maWxlLm1hZT4nLCAnLW9tYWUnLCAnPG91dGZpbGUubWFlPic=

>  <r_lp_tautomer_probability>  (255) 
1

>  <r_epik_Ionization_Penalty>  (255) 
5.46082e-07

>  <r_epik_Ionization_Penalty_Charging>  (255) 
0

>  <r_epik_Ionization_Penalty_Neutral>  (255) 
5.46082e-07

>  <r_epik_State_Penalty>  (255) 
-0

>  <r_epik_Charging_Adjusted_Penalty>  (255) 
0

>  <i_epik_Tot_Q>  (255) 
0

>  <i_epik_Tot_abs_Q>  (255) 
0

>  <s_epik_Chemistry_Notes>  (255) 
This compound contains an acetal/aminal-like group ( X-CH(R)-Y where X, Y are N, S, or O) that may be acid/base labile, releasing an aldehyde.

>  <s_lp_Force_Field>  (255) 
OPLS3e

>  <r_lp_Energy>  (255) 
217.246

>  <b_lp_Chiralities_Consistent>  (255) 
1

>  <s_lp_Variant>  (255) 
81:0-6

>  <s_i_glide_gridfile>  (255) 
pfpi4k_grid

>  <i_i_glide_lignum>  (255) 
38

>  <i_i_glide_rotatable_bonds>  (255) 
2

>  <r_i_docking_score>  (255) 
-2.44994

>  <r_i_glide_ligand_efficiency>  (255) 
-0.0790304

>  <r_i_glide_ligand_efficiency_sa>  (255) 
-0.248265

>  <r_i_glide_ligand_efficiency_ln>  (255) 
-0.552537

>  <r_i_glide_gscore>  (255) 
-2.44994

>  <r_i_glide_lipo>  (255) 
-0.360565

>  <r_i_glide_hbond>  (255) 
0

>  <r_i_glide_metal>  (255) 
-0

>  <r_i_glide_rewards>  (255) 
-0.560002

>  <r_i_glide_evdw>  (255) 
-27.9943

>  <r_i_glide_ecoul>  (255) 
-0.864398

>  <r_i_glide_erotb>  (255) 
0

>  <r_i_glide_esite>  (255) 
0

>  <r_i_glide_emodel>  (255) 
-32.1715

>  <r_i_glide_energy>  (255) 
-28.8587

>  <r_i_glide_einternal>  (255) 
0.520306

>  <r_i_glide_intrahb_reward>  (255) 
-0

>  <i_i_glide_confnum>  (255) 
1

>  <i_i_glide_posenum>  (255) 
39

>  <r_i_glide_eff_state_penalty>  (255) 
0

>  <ligand_id>  (255) 
81

>  <original_smiles>  (255) 
CC1C2C34CCC5C(C)(C)C3C(O)C52C2C(=CCC(CC13OCCO3)OC4O)C2(C)C

>  <smiles>  (255) 
[H]OC1([H])OC2([H])C([H])([H])C([H])=C3C([H])(C3(C([H])([H])[H])C([H])([H])[H])C34C([H])(O[H])C5([H])C(C([H])([H])[H])(C([H])([H])[H])C3([H])C([H])([H])C([H])([H])C15C4([H])C([H])(C([H])([H])[H])C1(OC([H])([H])C([H])([H])O1)C2([H])[H]

$$$$
81:6:0
     RDKit          3D

 69 75  0  0  1  0  0  0  0  0999 V2000
    2.6010   -3.1928   -1.0559 C   0  0  0  0  0  0  0  0  0  0  0  0
    3.8979   -3.5382   -0.2595 C   0  0  2  0  0  0  0  0  0  0  0  0
    3.9316   -3.0458    1.2871 C   0  0  2  0  0  0  0  0  0  0  0  0
    4.2204   -1.6098    1.8272 C   0  0  1  0  0  0  0  0  0  0  0  0
    2.9549   -0.7997    1.4274 C   0  0  0  0  0  0  0  0  0  0  0  0
    1.7003   -1.5427    2.0659 C   0  0  0  0  0  0  0  0  0  0  0  0
    2.1747   -2.6085    3.1453 C   0  0  2  0  0  0  0  0  0  0  0  0
    2.8605   -1.6899    4.1833 C   0  0  0  0  0  0  0  0  0  0  0  0
    2.3572   -0.2355    4.4454 C   0  0  0  0  0  0  0  0  0  0  0  0
    2.6953   -2.3242    5.5956 C   0  0  0  0  0  0  0  0  0  0  0  0
    4.2646   -1.7135    3.4552 C   0  0  1  0  0  0  0  0  0  0  0  0
    4.5915   -3.1608    3.5271 C   0  0  1  0  0  0  0  0  0  0  0  0
    4.8936   -3.7480    4.7864 O   0  0  0  0  0  0  0  0  0  0  0  0
    3.4034   -3.6118    2.6527 C   0  0  2  0  0  0  0  0  0  0  0  0
    3.3959   -5.1420    2.8197 C   0  0  2  0  0  0  0  0  0  0  0  0
    4.3458   -5.7825    1.8689 C   0  0  0  0  0  0  0  0  0  0  0  0
    5.5671   -5.7355    1.2552 C   0  0  0  0  0  0  0  0  0  0  0  0
    6.7413   -4.7812    1.5517 C   0  0  0  0  0  0  0  0  0  0  0  0
    6.8120   -3.3523    0.8441 C   0  0  1  0  0  0  0  0  0  0  0  0
    6.5865   -3.3508   -0.6677 C   0  0  0  0  0  0  0  0  0  0  0  0
    5.1212   -3.2455   -1.2044 C   0  0  0  0  0  0  0  0  0  0  0  0
    4.9515   -1.9855   -1.7914 O   0  0  0  0  0  0  0  0  0  0  0  0
    4.4160   -2.1598   -3.1068 C   0  0  0  0  0  0  0  0  0  0  0  0
    5.0147   -3.5164   -3.4553 C   0  0  0  0  0  0  0  0  0  0  0  0
    5.0198   -4.1957   -2.2214 O   0  0  0  0  0  0  0  0  0  0  0  0
    6.6658   -2.1028    1.5548 O   0  0  0  0  0  0  0  0  0  0  0  0
    5.6151   -1.1236    1.3662 C   0  0  1  0  0  0  0  0  0  0  0  0
    5.6283   -0.5117    0.1136 O   0  0  0  0  0  0  0  0  0  0  0  0
    2.9564   -6.3258    1.8797 C   0  0  0  0  0  0  0  0  0  0  0  0
    2.7880   -7.7129    2.4770 C   0  0  0  0  0  0  0  0  0  0  0  0
    1.9295   -6.0441    0.7920 C   0  0  0  0  0  0  0  0  0  0  0  0
    2.6091   -2.1159   -1.3041 H   0  0  0  0  0  0  0  0  0  0  0  0
    1.6742   -3.4129   -0.6065 H   0  0  0  0  0  0  0  0  0  0  0  0
    2.5950   -3.6934   -2.0484 H   0  0  0  0  0  0  0  0  0  0  0  0
    3.8453   -4.6210   -0.2455 H   0  0  0  0  0  0  0  0  0  0  0  0
    2.8960   -3.1935    1.0992 H   0  0  0  0  0  0  0  0  0  0  0  0
    3.0154    0.2481    1.7200 H   0  0  0  0  0  0  0  0  0  0  0  0
    2.8289   -0.7356    0.3460 H   0  0  0  0  0  0  0  0  0  0  0  0
    0.9526   -0.8422    2.4352 H   0  0  0  0  0  0  0  0  0  0  0  0
    1.1511   -2.0521    1.2830 H   0  0  0  0  0  0  0  0  0  0  0  0
    1.3159   -3.1626    3.5491 H   0  0  0  0  0  0  0  0  0  0  0  0
    2.8246    0.1651    5.3440 H   0  0  0  0  0  0  0  0  0  0  0  0
    1.2784   -0.2009    4.6095 H   0  0  0  0  0  0  0  0  0  0  0  0
    2.5962    0.4939    3.6820 H   0  0  0  0  0  0  0  0  0  0  0  0
    3.5102   -2.0290    6.2581 H   0  0  0  0  0  0  0  0  0  0  0  0
    2.6387   -3.4143    5.5764 H   0  0  0  0  0  0  0  0  0  0  0  0
    1.7632   -2.0135    6.0714 H   0  0  0  0  0  0  0  0  0  0  0  0
    4.9928   -1.0687    3.9310 H   0  0  0  0  0  0  0  0  0  0  0  0
    5.5282   -3.3272    3.0609 H   0  0  0  0  0  0  0  0  0  0  0  0
    5.6968   -3.3678    5.0967 H   0  0  0  0  0  0  0  0  0  0  0  0
    3.3601   -5.4515    3.8698 H   0  0  0  0  0  0  0  0  0  0  0  0
    5.7355   -6.4205    0.4389 H   0  0  0  0  0  0  0  0  0  0  0  0
    6.9181   -4.7332    2.6211 H   0  0  0  0  0  0  0  0  0  0  0  0
    7.6130   -5.3510    1.2159 H   0  0  0  0  0  0  0  0  0  0  0  0
    7.9062   -3.2681    0.8647 H   0  0  0  0  0  0  0  0  0  0  0  0
    7.1686   -2.5437   -1.1120 H   0  0  0  0  0  0  0  0  0  0  0  0
    7.0485   -4.2518   -1.0513 H   0  0  0  0  0  0  0  0  0  0  0  0
    3.3524   -2.2190   -3.0773 H   0  0  0  0  0  0  0  0  0  0  0  0
    4.7587   -1.3580   -3.7725 H   0  0  0  0  0  0  0  0  0  0  0  0
    4.4194   -4.0664   -4.1799 H   0  0  0  0  0  0  0  0  0  0  0  0
    6.0385   -3.4424   -3.8218 H   0  0  0  0  0  0  0  0  0  0  0  0
    5.9175   -0.3219    2.0370 H   0  0  0  0  0  0  0  0  0  0  0  0
    5.2052   -1.0879   -0.5110 H   0  0  0  0  0  0  0  0  0  0  0  0
    1.8117   -7.8110    2.9541 H   0  0  0  0  0  0  0  0  0  0  0  0
    3.5484   -7.8957    3.2365 H   0  0  0  0  0  0  0  0  0  0  0  0
    2.8830   -8.4816    1.7094 H   0  0  0  0  0  0  0  0  0  0  0  0
    1.0312   -6.6491    0.9322 H   0  0  0  0  0  0  0  0  0  0  0  0
    2.3339   -6.2360   -0.2000 H   0  0  0  0  0  0  0  0  0  0  0  0
    1.6233   -5.0087    0.8374 H   0  0  0  0  0  0  0  0  0  0  0  0
  1  2  1  0
  1 32  1  0
  1 33  1  0
  1 34  1  0
  2 21  1  0
  2  3  1  0
  2 35  1  1
  3 14  1  0
  3  4  1  0
  3 36  1  1
  4 11  1  0
  4 27  1  0
  4  5  1  1
  5  6  1  0
  5 37  1  0
  5 38  1  0
  6  7  1  0
  6 39  1  0
  6 40  1  0
 14  7  1  1
  7  8  1  0
  7 41  1  1
  8  9  1  0
  8 10  1  0
  8 11  1  0
  9 42  1  0
  9 43  1  0
  9 44  1  0
 10 45  1  0
 10 46  1  0
 10 47  1  0
 11 12  1  0
 11 48  1  1
 12 13  1  0
 12 14  1  0
 12 49  1  6
 13 50  1  0
 14 15  1  0
 15 29  1  0
 15 16  1  0
 15 51  1  1
 16 17  2  3
 16 29  1  0
 17 18  1  0
 17 52  1  0
 18 19  1  0
 18 53  1  0
 18 54  1  0
 19 20  1  0
 19 26  1  0
 19 55  1  6
 20 21  1  0
 20 56  1  0
 20 57  1  0
 21 25  1  0
 21 22  1  0
 22 23  1  0
 23 24  1  0
 23 58  1  0
 23 59  1  0
 24 25  1  0
 24 60  1  0
 24 61  1  0
 26 27  1  0
 27 28  1  0
 27 62  1  1
 28 63  1  0
 29 30  1  0
 29 31  1  0
 30 64  1  0
 30 65  1  0
 30 66  1  0
 31 67  1  0
 31 68  1  0
 31 69  1  0
M  END
>  <i_m_ct_stereo_status>  (256) 
1

>  <s_m_source_file>  (256) 
/var/tmp/pbs.5076255.sched01/tmp378oxcv0/78pm6kuo1p.sdf

>  <i_m_source_file_index>  (256) 
39

>  <i_lp_mmshare_version>  (256) 
48012

>  <i_f3d_flags>  (256) 
0

>  <s_epik_input>  (256) 
TzFbQ0gyXVtDSDJdT0MxKFtDQEBIXTJbQ0gzXSlbQ0gyXVtDQEBIXShPW0NASF0zW09IXSlbQ0gyXS9bQ0hdPUMoQzQoW0NIM10pW0NIM10pXFtDSF00W0NAQF01KFtDQEhdMltDQEBdMzY3KVtDQEhdKFtDSDJdW0NIMl02KUMoW0NIM10pKFtDSDNdKVtDQEhdN1tDQEhdNVtPSF0=

>  <s_epik_cmdline>  (256) 
J2VwaWtfcHl0aG9uJywgJy1waHQnLCAnMi4wJywgJy1waCcsICc3LjAnLCAnLXRuJywgJzgnLCAnLW1hJywgJzIwMCcsICctaW1hZScsICc8aW5maWxlLm1hZT4nLCAnLW9tYWUnLCAnPG91dGZpbGUubWFlPic=

>  <r_lp_tautomer_probability>  (256) 
1

>  <r_epik_Ionization_Penalty>  (256) 
5.46082e-07

>  <r_epik_Ionization_Penalty_Charging>  (256) 
0

>  <r_epik_Ionization_Penalty_Neutral>  (256) 
5.46082e-07

>  <r_epik_State_Penalty>  (256) 
-0

>  <r_epik_Charging_Adjusted_Penalty>  (256) 
0

>  <i_epik_Tot_Q>  (256) 
0

>  <i_epik_Tot_abs_Q>  (256) 
0

>  <s_epik_Chemistry_Notes>  (256) 
This compound contains an acetal/aminal-like group ( X-CH(R)-Y where X, Y are N, S, or O) that may be acid/base labile, releasing an aldehyde.

>  <s_lp_Force_Field>  (256) 
OPLS3e

>  <r_lp_Energy>  (256) 
204.062

>  <b_lp_Chiralities_Consistent>  (256) 
1

>  <s_lp_Variant>  (256) 
81:0-7

>  <s_i_glide_gridfile>  (256) 
pfpi4k_grid

>  <i_i_glide_lignum>  (256) 
39

>  <i_i_glide_rotatable_bonds>  (256) 
2

>  <r_i_docking_score>  (256) 
-3.08166

>  <r_i_glide_ligand_efficiency>  (256) 
-0.0994084

>  <r_i_glide_ligand_efficiency_sa>  (256) 
-0.31228

>  <r_i_glide_ligand_efficiency_ln>  (256) 
-0.695009

>  <r_i_glide_gscore>  (256) 
-3.08166

>  <r_i_glide_lipo>  (256) 
-0.785939

>  <r_i_glide_hbond>  (256) 
0

>  <r_i_glide_metal>  (256) 
-0

>  <r_i_glide_rewards>  (256) 
-1.24326

>  <r_i_glide_evdw>  (256) 
-27.1115

>  <r_i_glide_ecoul>  (256) 
2.02076

>  <r_i_glide_erotb>  (256) 
0

>  <r_i_glide_esite>  (256) 
0

>  <r_i_glide_emodel>  (256) 
-33.9553

>  <r_i_glide_energy>  (256) 
-25.0907

>  <r_i_glide_einternal>  (256) 
0.557938

>  <r_i_glide_intrahb_reward>  (256) 
-0.5

>  <i_i_glide_confnum>  (256) 
2

>  <i_i_glide_posenum>  (256) 
8

>  <r_i_glide_eff_state_penalty>  (256) 
0

>  <ligand_id>  (256) 
81

>  <original_smiles>  (256) 
CC1C2C34CCC5C(C)(C)C3C(O)C52C2C(=CCC(CC13OCCO3)OC4O)C2(C)C

>  <smiles>  (256) 
[H]OC1([H])OC2([H])C([H])([H])C([H])=C3C([H])(C3(C([H])([H])[H])C([H])([H])[H])C34C([H])(O[H])C5([H])C(C([H])([H])[H])(C([H])([H])[H])C3([H])C([H])([H])C([H])([H])C15C4([H])C([H])(C([H])([H])[H])C1(OC([H])([H])C([H])([H])O1)C2([H])[H]

$$$$
81:6:1
     RDKit          3D

 69 75  0  0  1  0  0  0  0  0999 V2000
    1.5285    0.4002    8.0069 C   0  0  0  0  0  0  0  0  0  0  0  0
    1.6969    1.9078    7.5998 C   0  0  2  0  0  0  0  0  0  0  0  0
    1.0164    2.3624    6.1997 C   0  0  2  0  0  0  0  0  0  0  0  0
    1.5450    2.0931    4.7607 C   0  0  1  0  0  0  0  0  0  0  0  0
    1.3516    0.5647    4.5634 C   0  0  0  0  0  0  0  0  0  0  0  0
   -0.1826    0.2437    4.8198 C   0  0  0  0  0  0  0  0  0  0  0  0
   -1.0341    1.5926    4.8003 C   0  0  2  0  0  0  0  0  0  0  0  0
   -0.7812    2.1169    3.3606 C   0  0  0  0  0  0  0  0  0  0  0  0
   -0.5702    1.1385    2.1690 C   0  0  0  0  0  0  0  0  0  0  0  0
   -2.0461    2.9010    2.8858 C   0  0  0  0  0  0  0  0  0  0  0  0
    0.5410    2.8809    3.7351 C   0  0  1  0  0  0  0  0  0  0  0  0
    0.0175    3.8771    4.7087 C   0  0  1  0  0  0  0  0  0  0  0  0
   -0.8189    4.9349    4.2471 O   0  0  0  0  0  0  0  0  0  0  0  0
   -0.4152    2.8142    5.7476 C   0  0  2  0  0  0  0  0  0  0  0  0
   -1.2597    3.6264    6.7487 C   0  0  2  0  0  0  0  0  0  0  0  0
   -0.3652    4.2747    7.7669 C   0  0  0  0  0  0  0  0  0  0  0  0
    0.7960    4.9171    8.0247 C   0  0  0  0  0  0  0  0  0  0  0  0
    1.8289    5.4739    7.0163 C   0  0  0  0  0  0  0  0  0  0  0  0
    2.9809    4.5307    6.4522 C   0  0  1  0  0  0  0  0  0  0  0  0
    3.7492    3.7093    7.5020 C   0  0  0  0  0  0  0  0  0  0  0  0
    3.1836    2.3208    7.9221 C   0  0  0  0  0  0  0  0  0  0  0  0
    4.0124    1.3308    7.3961 O   0  0  0  0  0  0  0  0  0  0  0  0
    4.3594    0.4575    8.4516 C   0  0  0  0  0  0  0  0  0  0  0  0
    4.3492    1.4034    9.6310 C   0  0  0  0  0  0  0  0  0  0  0  0
    3.2848    2.2655    9.3178 O   0  0  0  0  0  0  0  0  0  0  0  0
    3.0141    4.0765    5.0650 O   0  0  0  0  0  0  0  0  0  0  0  0
    2.9528    2.7341    4.5773 C   0  0  1  0  0  0  0  0  0  0  0  0
    4.0171    1.9064    4.9600 O   0  0  0  0  0  0  0  0  0  0  0  0
   -1.5232    3.4835    8.2965 C   0  0  0  0  0  0  0  0  0  0  0  0
   -2.6517    4.2906    8.9187 C   0  0  0  0  0  0  0  0  0  0  0  0
   -1.3905    2.1068    8.9331 C   0  0  0  0  0  0  0  0  0  0  0  0
    2.1482   -0.2618    7.3882 H   0  0  0  0  0  0  0  0  0  0  0  0
    0.5359    0.0182    7.9631 H   0  0  0  0  0  0  0  0  0  0  0  0
    1.8694    0.2320    9.0467 H   0  0  0  0  0  0  0  0  0  0  0  0
    1.1445    2.4030    8.3832 H   0  0  0  0  0  0  0  0  0  0  0  0
    0.3907    1.5763    6.5453 H   0  0  0  0  0  0  0  0  0  0  0  0
    1.7075    0.2405    3.5892 H   0  0  0  0  0  0  0  0  0  0  0  0
    1.9736   -0.0046    5.2498 H   0  0  0  0  0  0  0  0  0  0  0  0
   -0.5523   -0.4981    4.1108 H   0  0  0  0  0  0  0  0  0  0  0  0
   -0.3058   -0.2614    5.7792 H   0  0  0  0  0  0  0  0  0  0  0  0
   -2.0928    1.3913    5.0057 H   0  0  0  0  0  0  0  0  0  0  0  0
   -0.6093    1.6875    1.2267 H   0  0  0  0  0  0  0  0  0  0  0  0
   -1.3582    0.3852    2.1269 H   0  0  0  0  0  0  0  0  0  0  0  0
    0.3830    0.6319    2.1222 H   0  0  0  0  0  0  0  0  0  0  0  0
   -1.7882    3.6610    2.1473 H   0  0  0  0  0  0  0  0  0  0  0  0
   -2.5956    3.3807    3.6996 H   0  0  0  0  0  0  0  0  0  0  0  0
   -2.7823    2.2460    2.4151 H   0  0  0  0  0  0  0  0  0  0  0  0
    1.0207    3.3312    2.8696 H   0  0  0  0  0  0  0  0  0  0  0  0
    0.8196    4.4810    5.0437 H   0  0  0  0  0  0  0  0  0  0  0  0
   -0.4244    5.2750    3.4533 H   0  0  0  0  0  0  0  0  0  0  0  0
   -2.0715    4.1754    6.2707 H   0  0  0  0  0  0  0  0  0  0  0  0
    1.0821    5.0388    9.0661 H   0  0  0  0  0  0  0  0  0  0  0  0
    1.3258    6.0394    6.2334 H   0  0  0  0  0  0  0  0  0  0  0  0
    2.3177    6.2674    7.5767 H   0  0  0  0  0  0  0  0  0  0  0  0
    3.7116    5.3246    6.2634 H   0  0  0  0  0  0  0  0  0  0  0  0
    4.7694    3.5713    7.1423 H   0  0  0  0  0  0  0  0  0  0  0  0
    3.8617    4.3392    8.3844 H   0  0  0  0  0  0  0  0  0  0  0  0
    3.6383   -0.3104    8.5703 H   0  0  0  0  0  0  0  0  0  0  0  0
    5.3413    0.0255    8.2955 H   0  0  0  0  0  0  0  0  0  0  0  0
    4.1550    0.9194   10.5773 H   0  0  0  0  0  0  0  0  0  0  0  0
    5.2756    1.9721    9.7180 H   0  0  0  0  0  0  0  0  0  0  0  0
    3.1167    2.8563    3.5072 H   0  0  0  0  0  0  0  0  0  0  0  0
    3.9339    1.7291    5.8861 H   0  0  0  0  0  0  0  0  0  0  0  0
   -3.6126    3.7960    8.7692 H   0  0  0  0  0  0  0  0  0  0  0  0
   -2.7119    5.2809    8.4789 H   0  0  0  0  0  0  0  0  0  0  0  0
   -2.4901    4.4082    9.9903 H   0  0  0  0  0  0  0  0  0  0  0  0
   -2.3464    1.7750    9.3425 H   0  0  0  0  0  0  0  0  0  0  0  0
   -0.6633    2.1150    9.7430 H   0  0  0  0  0  0  0  0  0  0  0  0
   -1.1128    1.3687    8.1906 H   0  0  0  0  0  0  0  0  0  0  0  0
  1  2  1  0
  1 32  1  0
  1 33  1  0
  1 34  1  0
  2 21  1  0
  2  3  1  0
  2 35  1  1
  3 14  1  0
  3  4  1  0
  3 36  1  1
  4 11  1  0
  4 27  1  0
  4  5  1  6
  5  6  1  0
  5 37  1  0
  5 38  1  0
  6  7  1  0
  6 39  1  0
  6 40  1  0
 14  7  1  6
  7  8  1  0
  7 41  1  1
  8  9  1  0
  8 10  1  0
  8 11  1  0
  9 42  1  0
  9 43  1  0
  9 44  1  0
 10 45  1  0
 10 46  1  0
 10 47  1  0
 11 12  1  0
 11 48  1  6
 12 13  1  0
 12 14  1  0
 12 49  1  1
 13 50  1  0
 14 15  1  0
 15 29  1  0
 15 16  1  0
 15 51  1  6
 16 17  2  3
 16 29  1  0
 17 18  1  0
 17 52  1  0
 18 19  1  0
 18 53  1  0
 18 54  1  0
 19 20  1  0
 19 26  1  0
 19 55  1  6
 20 21  1  0
 20 56  1  0
 20 57  1  0
 21 25  1  0
 21 22  1  0
 22 23  1  0
 23 24  1  0
 23 58  1  0
 23 59  1  0
 24 25  1  0
 24 60  1  0
 24 61  1  0
 26 27  1  0
 27 28  1  0
 27 62  1  6
 28 63  1  0
 29 30  1  0
 29 31  1  0
 30 64  1  0
 30 65  1  0
 30 66  1  0
 31 67  1  0
 31 68  1  0
 31 69  1  0
M  END
>  <i_m_ct_stereo_status>  (257) 
1

>  <s_m_source_file>  (257) 
/var/tmp/pbs.5076255.sched01/tmp378oxcv0/78pm6kuo1p.sdf

>  <i_m_source_file_index>  (257) 
39

>  <i_lp_mmshare_version>  (257) 
48012

>  <i_f3d_flags>  (257) 
0

>  <s_epik_input>  (257) 
TzFbQ0gyXVtDSDJdT0MxKFtDQEBIXTJbQ0gzXSlbQ0gyXVtDQEBIXShPW0NASF0zW09IXSlbQ0gyXS9bQ0hdPUMoQzQoW0NIM10pW0NIM10pXFtDSF00W0NAQF01KFtDQEhdMltDQEBdMzY3KVtDQEhdKFtDSDJdW0NIMl02KUMoW0NIM10pKFtDSDNdKVtDQEhdN1tDQEhdNVtPSF0=

>  <s_epik_cmdline>  (257) 
J2VwaWtfcHl0aG9uJywgJy1waHQnLCAnMi4wJywgJy1waCcsICc3LjAnLCAnLXRuJywgJzgnLCAnLW1hJywgJzIwMCcsICctaW1hZScsICc8aW5maWxlLm1hZT4nLCAnLW9tYWUnLCAnPG91dGZpbGUubWFlPic=

>  <r_lp_tautomer_probability>  (257) 
1

>  <r_epik_Ionization_Penalty>  (257) 
5.46082e-07

>  <r_epik_Ionization_Penalty_Charging>  (257) 
0

>  <r_epik_Ionization_Penalty_Neutral>  (257) 
5.46082e-07

>  <r_epik_State_Penalty>  (257) 
-0

>  <r_epik_Charging_Adjusted_Penalty>  (257) 
0

>  <i_epik_Tot_Q>  (257) 
0

>  <i_epik_Tot_abs_Q>  (257) 
0

>  <s_epik_Chemistry_Notes>  (257) 
This compound contains an acetal/aminal-like group ( X-CH(R)-Y where X, Y are N, S, or O) that may be acid/base labile, releasing an aldehyde.

>  <s_lp_Force_Field>  (257) 
OPLS3e

>  <r_lp_Energy>  (257) 
204.062

>  <b_lp_Chiralities_Consistent>  (257) 
1

>  <s_lp_Variant>  (257) 
81:0-7

>  <s_i_glide_gridfile>  (257) 
pfpi4k_grid

>  <i_i_glide_lignum>  (257) 
39

>  <i_i_glide_rotatable_bonds>  (257) 
2

>  <r_i_docking_score>  (257) 
-2.61151

>  <r_i_glide_ligand_efficiency>  (257) 
-0.0842422

>  <r_i_glide_ligand_efficiency_sa>  (257) 
-0.264637

>  <r_i_glide_ligand_efficiency_ln>  (257) 
-0.588975

>  <r_i_glide_gscore>  (257) 
-2.61151

>  <r_i_glide_lipo>  (257) 
-0.0702413

>  <r_i_glide_hbond>  (257) 
-0.0657022

>  <r_i_glide_metal>  (257) 
-0

>  <r_i_glide_rewards>  (257) 
-0.973339

>  <r_i_glide_evdw>  (257) 
-22.2383

>  <r_i_glide_ecoul>  (257) 
-2.55059

>  <r_i_glide_erotb>  (257) 
0

>  <r_i_glide_esite>  (257) 
-0.00772034

>  <r_i_glide_emodel>  (257) 
-32.3623

>  <r_i_glide_energy>  (257) 
-24.7889

>  <r_i_glide_einternal>  (257) 
0.548473

>  <r_i_glide_intrahb_reward>  (257) 
-0.5

>  <i_i_glide_confnum>  (257) 
4

>  <i_i_glide_posenum>  (257) 
22

>  <r_i_glide_eff_state_penalty>  (257) 
0

>  <ligand_id>  (257) 
81

>  <original_smiles>  (257) 
CC1C2C34CCC5C(C)(C)C3C(O)C52C2C(=CCC(CC13OCCO3)OC4O)C2(C)C

>  <smiles>  (257) 
[H]OC1([H])OC2([H])C([H])([H])C([H])=C3C([H])(C3(C([H])([H])[H])C([H])([H])[H])C34C([H])(O[H])C5([H])C(C([H])([H])[H])(C([H])([H])[H])C3([H])C([H])([H])C([H])([H])C15C4([H])C([H])(C([H])([H])[H])C1(OC([H])([H])C([H])([H])O1)C2([H])[H]

$$$$
81:6:2
     RDKit          3D

 69 75  0  0  1  0  0  0  0  0999 V2000
    2.0321    0.9479    8.2735 C   0  0  0  0  0  0  0  0  0  0  0  0
    2.2822    2.3365    7.5782 C   0  0  2  0  0  0  0  0  0  0  0  0
    1.4591    2.6157    6.2133 C   0  0  2  0  0  0  0  0  0  0  0  0
    1.7519    2.0488    4.7913 C   0  0  1  0  0  0  0  0  0  0  0  0
    1.3999    0.5380    4.9066 C   0  0  0  0  0  0  0  0  0  0  0  0
   -0.1074    0.4457    5.3988 C   0  0  0  0  0  0  0  0  0  0  0  0
   -0.8255    1.8627    5.2345 C   0  0  2  0  0  0  0  0  0  0  0  0
   -0.7323    2.0995    3.7031 C   0  0  0  0  0  0  0  0  0  0  0  0
   -0.7797    0.9174    2.6885 C   0  0  0  0  0  0  0  0  0  0  0  0
   -1.9718    2.9313    3.2499 C   0  0  0  0  0  0  0  0  0  0  0  0
    0.6958    2.7591    3.7688 C   0  0  1  0  0  0  0  0  0  0  0  0
    0.4067    3.9608    4.5976 C   0  0  1  0  0  0  0  0  0  0  0  0
   -0.3963    5.0107    4.0636 O   0  0  0  0  0  0  0  0  0  0  0  0
    0.0269    3.1471    5.8578 C   0  0  2  0  0  0  0  0  0  0  0  0
   -0.5847    4.2140    6.7917 C   0  0  2  0  0  0  0  0  0  0  0  0
    0.4858    4.9073    7.5586 C   0  0  0  0  0  0  0  0  0  0  0  0
    1.7399    5.4540    7.5501 C   0  0  0  0  0  0  0  0  0  0  0  0
    2.6598    5.7075    6.3386 C   0  0  0  0  0  0  0  0  0  0  0  0
    3.6344    4.5596    5.8205 C   0  0  1  0  0  0  0  0  0  0  0  0
    4.4596    3.8493    6.9040 C   0  0  0  0  0  0  0  0  0  0  0  0
    3.8329    2.6250    7.6389 C   0  0  0  0  0  0  0  0  0  0  0  0
    4.4907    1.4693    7.2128 O   0  0  0  0  0  0  0  0  0  0  0  0
    4.8978    0.7464    8.3613 C   0  0  0  0  0  0  0  0  0  0  0  0
    5.1322    1.8814    9.3362 C   0  0  0  0  0  0  0  0  0  0  0  0
    4.1214    2.8039    8.9938 O   0  0  0  0  0  0  0  0  0  0  0  0
    3.4260    3.8704    4.5515 O   0  0  0  0  0  0  0  0  0  0  0  0
    3.1783    2.4795    4.3348 C   0  0  1  0  0  0  0  0  0  0  0  0
    4.2042    1.6175    4.7296 O   0  0  0  0  0  0  0  0  0  0  0  0
   -0.6511    4.3610    8.3545 C   0  0  0  0  0  0  0  0  0  0  0  0
   -1.6049    5.3870    8.9516 C   0  0  0  0  0  0  0  0  0  0  0  0
   -0.5612    3.1039    9.2150 C   0  0  0  0  0  0  0  0  0  0  0  0
    2.5060    0.1241    7.7158 H   0  0  0  0  0  0  0  0  0  0  0  0
    1.0106    0.6729    8.4253 H   0  0  0  0  0  0  0  0  0  0  0  0
    2.5048    0.9216    9.2718 H   0  0  0  0  0  0  0  0  0  0  0  0
    1.8902    3.0162    8.3226 H   0  0  0  0  0  0  0  0  0  0  0  0
    0.8210    1.9771    6.7676 H   0  0  0  0  0  0  0  0  0  0  0  0
    1.5827    0.0126    3.9737 H   0  0  0  0  0  0  0  0  0  0  0  0
    2.0544    0.0253    5.6064 H   0  0  0  0  0  0  0  0  0  0  0  0
   -0.6383   -0.3586    4.8905 H   0  0  0  0  0  0  0  0  0  0  0  0
   -0.1428    0.1301    6.4433 H   0  0  0  0  0  0  0  0  0  0  0  0
   -1.8597    1.8203    5.6005 H   0  0  0  0  0  0  0  0  0  0  0  0
   -0.9176    1.2926    1.6732 H   0  0  0  0  0  0  0  0  0  0  0  0
   -1.6183    0.2495    2.8917 H   0  0  0  0  0  0  0  0  0  0  0  0
    0.1140    0.3106    2.6209 H   0  0  0  0  0  0  0  0  0  0  0  0
   -1.7469    3.5167    2.3566 H   0  0  0  0  0  0  0  0  0  0  0  0
   -2.3529    3.6033    4.0207 H   0  0  0  0  0  0  0  0  0  0  0  0
   -2.8243    2.2935    3.0044 H   0  0  0  0  0  0  0  0  0  0  0  0
    1.0928    2.9949    2.7810 H   0  0  0  0  0  0  0  0  0  0  0  0
    1.2997    4.5167    4.7190 H   0  0  0  0  0  0  0  0  0  0  0  0
   -0.0822    5.1855    3.1819 H   0  0  0  0  0  0  0  0  0  0  0  0
   -1.3901    4.7837    6.3152 H   0  0  0  0  0  0  0  0  0  0  0  0
    2.1711    5.7152    8.5079 H   0  0  0  0  0  0  0  0  0  0  0  0
    2.1081    6.1864    5.5322 H   0  0  0  0  0  0  0  0  0  0  0  0
    3.2942    6.5273    6.6818 H   0  0  0  0  0  0  0  0  0  0  0  0
    4.3990    5.2178    5.4019 H   0  0  0  0  0  0  0  0  0  0  0  0
    5.4052    3.5310    6.4548 H   0  0  0  0  0  0  0  0  0  0  0  0
    4.7585    4.6017    7.6352 H   0  0  0  0  0  0  0  0  0  0  0  0
    4.1285    0.0992    8.7023 H   0  0  0  0  0  0  0  0  0  0  0  0
    5.8073    0.1821    8.1615 H   0  0  0  0  0  0  0  0  0  0  0  0
    5.0240    1.5860   10.3753 H   0  0  0  0  0  0  0  0  0  0  0  0
    6.1099    2.3416    9.2021 H   0  0  0  0  0  0  0  0  0  0  0  0
    3.2035    2.4004    3.2456 H   0  0  0  0  0  0  0  0  0  0  0  0
    4.2536    1.6345    5.6846 H   0  0  0  0  0  0  0  0  0  0  0  0
   -2.6176    4.9867    9.0068 H   0  0  0  0  0  0  0  0  0  0  0  0
   -1.6330    6.2874    8.3402 H   0  0  0  0  0  0  0  0  0  0  0  0
   -1.2864    5.6684    9.9543 H   0  0  0  0  0  0  0  0  0  0  0  0
   -1.4754    2.9541    9.7908 H   0  0  0  0  0  0  0  0  0  0  0  0
    0.2711    3.1626    9.9147 H   0  0  0  0  0  0  0  0  0  0  0  0
   -0.4546    2.2235    8.5920 H   0  0  0  0  0  0  0  0  0  0  0  0
  1  2  1  0
  1 32  1  0
  1 33  1  0
  1 34  1  0
  2 21  1  0
  2  3  1  0
  2 35  1  1
  3 14  1  0
  3  4  1  0
  3 36  1  6
  4 11  1  0
  4 27  1  0
  4  5  1  1
  5  6  1  0
  5 37  1  0
  5 38  1  0
  6  7  1  0
  6 39  1  0
  6 40  1  0
 14  7  1  6
  7  8  1  0
  7 41  1  1
  8  9  1  0
  8 10  1  0
  8 11  1  0
  9 42  1  0
  9 43  1  0
  9 44  1  0
 10 45  1  0
 10 46  1  0
 10 47  1  0
 11 12  1  0
 11 48  1  6
 12 13  1  0
 12 14  1  0
 12 49  1  1
 13 50  1  0
 14 15  1  0
 15 29  1  0
 15 16  1  0
 15 51  1  6
 16 17  2  3
 16 29  1  0
 17 18  1  0
 17 52  1  0
 18 19  1  0
 18 53  1  0
 18 54  1  0
 19 20  1  0
 19 26  1  0
 19 55  1  6
 20 21  1  0
 20 56  1  0
 20 57  1  0
 21 25  1  0
 21 22  1  0
 22 23  1  0
 23 24  1  0
 23 58  1  0
 23 59  1  0
 24 25  1  0
 24 60  1  0
 24 61  1  0
 26 27  1  0
 27 28  1  0
 27 62  1  6
 28 63  1  0
 29 30  1  0
 29 31  1  0
 30 64  1  0
 30 65  1  0
 30 66  1  0
 31 67  1  0
 31 68  1  0
 31 69  1  0
M  END
>  <i_m_ct_stereo_status>  (258) 
1

>  <s_m_source_file>  (258) 
/var/tmp/pbs.5076255.sched01/tmp378oxcv0/78pm6kuo1p.sdf

>  <i_m_source_file_index>  (258) 
39

>  <i_lp_mmshare_version>  (258) 
48012

>  <i_f3d_flags>  (258) 
0

>  <s_epik_input>  (258) 
TzFbQ0gyXVtDSDJdT0MxKFtDQEBIXTJbQ0gzXSlbQ0gyXVtDQEBIXShPW0NASF0zW09IXSlbQ0gyXS9bQ0hdPUMoQzQoW0NIM10pW0NIM10pXFtDSF00W0NAQF01KFtDQEhdMltDQEBdMzY3KVtDQEhdKFtDSDJdW0NIMl02KUMoW0NIM10pKFtDSDNdKVtDQEhdN1tDQEhdNVtPSF0=

>  <s_epik_cmdline>  (258) 
J2VwaWtfcHl0aG9uJywgJy1waHQnLCAnMi4wJywgJy1waCcsICc3LjAnLCAnLXRuJywgJzgnLCAnLW1hJywgJzIwMCcsICctaW1hZScsICc8aW5maWxlLm1hZT4nLCAnLW9tYWUnLCAnPG91dGZpbGUubWFlPic=

>  <r_lp_tautomer_probability>  (258) 
1

>  <r_epik_Ionization_Penalty>  (258) 
5.46082e-07

>  <r_epik_Ionization_Penalty_Charging>  (258) 
0

>  <r_epik_Ionization_Penalty_Neutral>  (258) 
5.46082e-07

>  <r_epik_State_Penalty>  (258) 
-0

>  <r_epik_Charging_Adjusted_Penalty>  (258) 
0

>  <i_epik_Tot_Q>  (258) 
0

>  <i_epik_Tot_abs_Q>  (258) 
0

>  <s_epik_Chemistry_Notes>  (258) 
This compound contains an acetal/aminal-like group ( X-CH(R)-Y where X, Y are N, S, or O) that may be acid/base labile, releasing an aldehyde.

>  <s_lp_Force_Field>  (258) 
OPLS3e

>  <r_lp_Energy>  (258) 
204.062

>  <b_lp_Chiralities_Consistent>  (258) 
1

>  <s_lp_Variant>  (258) 
81:0-7

>  <s_i_glide_gridfile>  (258) 
pfpi4k_grid

>  <i_i_glide_lignum>  (258) 
39

>  <i_i_glide_rotatable_bonds>  (258) 
2

>  <r_i_docking_score>  (258) 
-2.39477

>  <r_i_glide_ligand_efficiency>  (258) 
-0.0772505

>  <r_i_glide_ligand_efficiency_sa>  (258) 
-0.242673

>  <r_i_glide_ligand_efficiency_ln>  (258) 
-0.540093

>  <r_i_glide_gscore>  (258) 
-2.39477

>  <r_i_glide_lipo>  (258) 
-0.00100456

>  <r_i_glide_hbond>  (258) 
0

>  <r_i_glide_metal>  (258) 
-0

>  <r_i_glide_rewards>  (258) 
-0.973339

>  <r_i_glide_evdw>  (258) 
-20.5751

>  <r_i_glide_ecoul>  (258) 
-2.54008

>  <r_i_glide_erotb>  (258) 
0

>  <r_i_glide_esite>  (258) 
-0.010658

>  <r_i_glide_emodel>  (258) 
-30.223

>  <r_i_glide_energy>  (258) 
-23.1151

>  <r_i_glide_einternal>  (258) 
0.517847

>  <r_i_glide_intrahb_reward>  (258) 
-0.5

>  <i_i_glide_confnum>  (258) 
2

>  <i_i_glide_posenum>  (258) 
37

>  <r_i_glide_eff_state_penalty>  (258) 
0

>  <ligand_id>  (258) 
81

>  <original_smiles>  (258) 
CC1C2C34CCC5C(C)(C)C3C(O)C52C2C(=CCC(CC13OCCO3)OC4O)C2(C)C

>  <smiles>  (258) 
[H]OC1([H])OC2([H])C([H])([H])C([H])=C3C([H])(C3(C([H])([H])[H])C([H])([H])[H])C34C([H])(O[H])C5([H])C(C([H])([H])[H])(C([H])([H])[H])C3([H])C([H])([H])C([H])([H])C15C4([H])C([H])(C([H])([H])[H])C1(OC([H])([H])C([H])([H])O1)C2([H])[H]

$$$$
81:7:0
     RDKit          3D

 69 75  0  0  1  0  0  0  0  0999 V2000
    1.5122    0.5275    8.0631 C   0  0  0  0  0  0  0  0  0  0  0  0
    1.7748    1.9840    7.5298 C   0  0  2  0  0  0  0  0  0  0  0  0
    1.0737    2.3794    6.1323 C   0  0  2  0  0  0  0  0  0  0  0  0
    1.5004    1.9512    4.7007 C   0  0  1  0  0  0  0  0  0  0  0  0
    1.1565    0.4276    4.6426 C   0  0  0  0  0  0  0  0  0  0  0  0
   -0.3866    0.2895    4.9932 C   0  0  0  0  0  0  0  0  0  0  0  0
   -1.1000    1.7208    4.9074 C   0  0  2  0  0  0  0  0  0  0  0  0
   -0.8777    2.0937    3.4154 C   0  0  0  0  0  0  0  0  0  0  0  0
   -0.8232    1.0100    2.2887 C   0  0  0  0  0  0  0  0  0  0  0  0
   -2.0765    2.9689    2.9246 C   0  0  0  0  0  0  0  0  0  0  0  0
    0.5281    2.7475    3.6665 C   0  0  1  0  0  0  0  0  0  0  0  0
    0.1629    3.8675    4.5757 C   0  0  1  0  0  0  0  0  0  0  0  0
   -0.6015    4.9565    4.0753 O   0  0  0  0  0  0  0  0  0  0  0  0
   -0.3113    2.9443    5.7227 C   0  0  2  0  0  0  0  0  0  0  0  0
   -0.9943    3.9123    6.7059 C   0  0  2  0  0  0  0  0  0  0  0  0
    0.0167    4.5891    7.6425 C   0  0  0  0  0  0  0  0  0  0  0  0
    1.2337    5.1203    7.6898 C   0  0  0  0  0  0  0  0  0  0  0  0
    2.3295    5.5677    6.6749 C   0  0  0  0  0  0  0  0  0  0  0  0
    3.3061    4.4274    6.1083 C   0  0  1  0  0  0  0  0  0  0  0  0
    4.0206    3.5740    7.1813 C   0  0  0  0  0  0  0  0  0  0  0  0
    3.3175    2.3011    7.7543 C   0  0  0  0  0  0  0  0  0  0  0  0
    3.4705    2.3885    9.1373 O   0  0  0  0  0  0  0  0  0  0  0  0
    4.4399    1.4335    9.5396 C   0  0  0  0  0  0  0  0  0  0  0  0
    4.3656    0.3784    8.4578 C   0  0  0  0  0  0  0  0  0  0  0  0
    4.0453    1.1806    7.3308 O   0  0  0  0  0  0  0  0  0  0  0  0
    3.1672    3.8119    4.7710 O   0  0  0  0  0  0  0  0  0  0  0  0
    2.9590    2.4348    4.4154 C   0  0  1  0  0  0  0  0  0  0  0  0
    3.9592    1.5496    4.8361 O   0  0  0  0  0  0  0  0  0  0  0  0
   -1.2145    3.9295    8.2744 C   0  0  0  0  0  0  0  0  0  0  0  0
   -2.2373    4.8779    8.8609 C   0  0  0  0  0  0  0  0  0  0  0  0
   -1.1871    2.5777    8.9877 C   0  0  0  0  0  0  0  0  0  0  0  0
    2.0130   -0.2197    7.4544 H   0  0  0  0  0  0  0  0  0  0  0  0
    0.4687    0.1955    8.0975 H   0  0  0  0  0  0  0  0  0  0  0  0
    1.8186    0.4497    9.0987 H   0  0  0  0  0  0  0  0  0  0  0  0
    1.3193    2.5826    8.3075 H   0  0  0  0  0  0  0  0  0  0  0  0
    0.4145    1.6782    6.5732 H   0  0  0  0  0  0  0  0  0  0  0  0
    1.4231   -0.0117    3.6867 H   0  0  0  0  0  0  0  0  0  0  0  0
    1.7527   -0.1505    5.3448 H   0  0  0  0  0  0  0  0  0  0  0  0
   -0.8693   -0.4664    4.3726 H   0  0  0  0  0  0  0  0  0  0  0  0
   -0.5126   -0.1197    5.9948 H   0  0  0  0  0  0  0  0  0  0  0  0
   -2.1585    1.6371    5.1617 H   0  0  0  0  0  0  0  0  0  0  0  0
   -0.8813    1.4664    1.3016 H   0  0  0  0  0  0  0  0  0  0  0  0
   -1.6686    0.3264    2.3541 H   0  0  0  0  0  0  0  0  0  0  0  0
    0.0798    0.4150    2.2356 H   0  0  0  0  0  0  0  0  0  0  0  0
   -1.7856    3.6419    2.1181 H   0  0  0  0  0  0  0  0  0  0  0  0
   -2.5350    3.5610    3.7153 H   0  0  0  0  0  0  0  0  0  0  0  0
   -2.8969    2.3624    2.5353 H   0  0  0  0  0  0  0  0  0  0  0  0
    1.0147    3.0802    2.7450 H   0  0  0  0  0  0  0  0  0  0  0  0
    1.0372    4.4189    4.8322 H   0  0  0  0  0  0  0  0  0  0  0  0
   -0.2158    5.2114    3.2444 H   0  0  0  0  0  0  0  0  0  0  0  0
   -1.7518    4.5042    6.2286 H   0  0  0  0  0  0  0  0  0  0  0  0
    1.2328    4.6392    6.7922 H   0  0  0  0  0  0  0  0  0  0  0  0
    1.8806    6.1362    5.8284 H   0  0  0  0  0  0  0  0  0  0  0  0
    2.9183    6.3468    7.1647 H   0  0  0  0  0  0  0  0  0  0  0  0
    4.1130    5.0842    5.7942 H   0  0  0  0  0  0  0  0  0  0  0  0
    4.9894    3.2748    6.7768 H   0  0  0  0  0  0  0  0  0  0  0  0
    4.2805    4.2552    7.9985 H   0  0  0  0  0  0  0  0  0  0  0  0
    5.4226    1.8855    9.5076 H   0  0  0  0  0  0  0  0  0  0  0  0
    4.2344    1.0416   10.5393 H   0  0  0  0  0  0  0  0  0  0  0  0
    5.2591   -0.2194    8.3000 H   0  0  0  0  0  0  0  0  0  0  0  0
    3.6427   -0.3903    8.7093 H   0  0  0  0  0  0  0  0  0  0  0  0
    3.0910    2.4411    3.3287 H   0  0  0  0  0  0  0  0  0  0  0  0
    3.8966    1.4436    5.7780 H   0  0  0  0  0  0  0  0  0  0  0  0
   -3.2456    4.4662    8.7842 H   0  0  0  0  0  0  0  0  0  0  0  0
   -2.2260    5.8313    8.3310 H   0  0  0  0  0  0  0  0  0  0  0  0
   -2.0076    5.0695    9.9058 H   0  0  0  0  0  0  0  0  0  0  0  0
   -0.9968    1.7579    8.2993 H   0  0  0  0  0  0  0  0  0  0  0  0
   -2.1521    2.3516    9.4489 H   0  0  0  0  0  0  0  0  0  0  0  0
   -0.4305    2.5643    9.7682 H   0  0  0  0  0  0  0  0  0  0  0  0
  1  2  1  0
  1 32  1  0
  1 33  1  0
  1 34  1  0
  2 21  1  0
  2  3  1  0
  2 35  1  1
  3 14  1  0
  3  4  1  0
  3 36  1  6
  4 11  1  0
  4 27  1  0
  4  5  1  1
  5  6  1  0
  5 37  1  0
  5 38  1  0
  6  7  1  0
  6 39  1  0
  6 40  1  0
 14  7  1  6
  7  8  1  0
  7 41  1  1
  8  9  1  0
  8 10  1  0
  8 11  1  0
  9 42  1  0
  9 43  1  0
  9 44  1  0
 10 45  1  0
 10 46  1  0
 10 47  1  0
 11 12  1  0
 11 48  1  6
 12 13  1  0
 12 14  1  0
 12 49  1  1
 13 50  1  0
 14 15  1  0
 15 29  1  0
 15 16  1  0
 15 51  1  6
 16 17  2  3
 16 29  1  0
 17 18  1  0
 17 52  1  0
 18 19  1  0
 18 53  1  0
 18 54  1  0
 19 20  1  0
 19 26  1  0
 19 55  1  6
 20 21  1  0
 20 56  1  0
 20 57  1  0
 21 25  1  0
 21 22  1  0
 22 23  1  0
 23 24  1  0
 23 58  1  0
 23 59  1  0
 24 25  1  0
 24 60  1  0
 24 61  1  0
 26 27  1  0
 27 28  1  0
 27 62  1  6
 28 63  1  0
 29 30  1  0
 29 31  1  0
 30 64  1  0
 30 65  1  0
 30 66  1  0
 31 67  1  0
 31 68  1  0
 31 69  1  0
M  END
>  <i_m_ct_stereo_status>  (259) 
1

>  <s_m_source_file>  (259) 
/var/tmp/pbs.5076255.sched01/tmpy8l6melh/117u1qm2xak.sdf

>  <i_m_source_file_index>  (259) 
1

>  <i_lp_mmshare_version>  (259) 
48012

>  <i_f3d_flags>  (259) 
0

>  <s_epik_input>  (259) 
TzFbQ0gyXVtDSDJdT0MxKFtDQEBIXTJbQ0gzXSlbQ0gyXVtDQEBIXShPW0NASF0zW09IXSlbQ0gyXS9bQ0hdPUMoQzQoW0NIM10pW0NIM10pXFtDSF00W0NAQF01KFtDQEhdMltDQEBdMzY3KVtDQEhdKFtDSDJdW0NIMl02KUMoW0NIM10pKFtDSDNdKVtDQEhdN1tDQEhdNVtPSF0=

>  <s_epik_cmdline>  (259) 
J2VwaWtfcHl0aG9uJywgJy1waHQnLCAnMi4wJywgJy1waCcsICc3LjAnLCAnLXRuJywgJzgnLCAnLW1hJywgJzIwMCcsICctaW1hZScsICc8aW5maWxlLm1hZT4nLCAnLW9tYWUnLCAnPG91dGZpbGUubWFlPic=

>  <r_lp_tautomer_probability>  (259) 
1

>  <r_epik_Ionization_Penalty>  (259) 
5.46082e-07

>  <r_epik_Ionization_Penalty_Charging>  (259) 
0

>  <r_epik_Ionization_Penalty_Neutral>  (259) 
5.46082e-07

>  <r_epik_State_Penalty>  (259) 
-0

>  <r_epik_Charging_Adjusted_Penalty>  (259) 
0

>  <i_epik_Tot_Q>  (259) 
0

>  <i_epik_Tot_abs_Q>  (259) 
0

>  <s_epik_Chemistry_Notes>  (259) 
This compound contains an acetal/aminal-like group ( X-CH(R)-Y where X, Y are N, S, or O) that may be acid/base labile, releasing an aldehyde.

>  <s_lp_Force_Field>  (259) 
OPLS3e

>  <r_lp_Energy>  (259) 
204.021

>  <b_lp_Chiralities_Consistent>  (259) 
1

>  <s_lp_Variant>  (259) 
81:0-8

>  <s_i_glide_gridfile>  (259) 
pfpi4k_grid

>  <i_i_glide_lignum>  (259) 
1

>  <i_i_glide_rotatable_bonds>  (259) 
2

>  <r_i_docking_score>  (259) 
-2.37315

>  <r_i_glide_ligand_efficiency>  (259) 
-0.0765533

>  <r_i_glide_ligand_efficiency_sa>  (259) 
-0.240483

>  <r_i_glide_ligand_efficiency_ln>  (259) 
-0.535219

>  <r_i_glide_gscore>  (259) 
-2.37315

>  <r_i_glide_lipo>  (259) 
-0.00252333

>  <r_i_glide_hbond>  (259) 
-0.0346462

>  <r_i_glide_metal>  (259) 
-0

>  <r_i_glide_rewards>  (259) 
-0.973339

>  <r_i_glide_evdw>  (259) 
-21.8026

>  <r_i_glide_ecoul>  (259) 
-2.60412

>  <r_i_glide_erotb>  (259) 
0

>  <r_i_glide_esite>  (259) 
-0.00772867

>  <r_i_glide_emodel>  (259) 
-29.6143

>  <r_i_glide_energy>  (259) 
-24.4067

>  <r_i_glide_einternal>  (259) 
0.52342

>  <r_i_glide_intrahb_reward>  (259) 
-0.5

>  <i_i_glide_confnum>  (259) 
5

>  <i_i_glide_posenum>  (259) 
29

>  <r_i_glide_eff_state_penalty>  (259) 
0

>  <ligand_id>  (259) 
81

>  <original_smiles>  (259) 
CC1C2C34CCC5C(C)(C)C3C(O)C52C2C(=CCC(CC13OCCO3)OC4O)C2(C)C

>  <smiles>  (259) 
[H]OC1([H])OC2([H])C([H])([H])C([H])=C3C([H])(C3(C([H])([H])[H])C([H])([H])[H])C34C([H])(O[H])C5([H])C(C([H])([H])[H])(C([H])([H])[H])C3([H])C([H])([H])C([H])([H])C15C4([H])C([H])(C([H])([H])[H])C1(OC([H])([H])C([H])([H])O1)C2([H])[H]

$$$$
81:7:1
     RDKit          3D

 69 75  0  0  1  0  0  0  0  0999 V2000
    2.2947    1.9936    8.2984 C   0  0  0  0  0  0  0  0  0  0  0  0
    2.5173    3.2423    7.3558 C   0  0  2  0  0  0  0  0  0  0  0  0
    1.5458    3.3935    6.0672 C   0  0  2  0  0  0  0  0  0  0  0  0
    1.5871    2.5762    4.7449 C   0  0  1  0  0  0  0  0  0  0  0  0
    1.0808    1.1629    5.1647 C   0  0  0  0  0  0  0  0  0  0  0  0
   -0.3530    1.3646    5.8171 C   0  0  0  0  0  0  0  0  0  0  0  0
   -0.9099    2.8255    5.4822 C   0  0  2  0  0  0  0  0  0  0  0  0
   -0.9872    2.7850    3.9284 C   0  0  0  0  0  0  0  0  0  0  0  0
   -1.2985    1.4670    3.1484 C   0  0  0  0  0  0  0  0  0  0  0  0
   -2.1654    3.6940    3.4480 C   0  0  0  0  0  0  0  0  0  0  0  0
    0.5048    3.2444    3.7284 C   0  0  1  0  0  0  0  0  0  0  0  0
    0.4709    4.5954    4.3547 C   0  0  1  0  0  0  0  0  0  0  0  0
   -0.2689    5.6355    3.7254 O   0  0  0  0  0  0  0  0  0  0  0  0
    0.1638    4.0671    5.7778 C   0  0  2  0  0  0  0  0  0  0  0  0
   -0.1679    5.3470    6.5715 C   0  0  2  0  0  0  0  0  0  0  0  0
    1.0722    6.0462    7.0832 C   0  0  0  0  0  0  0  0  0  0  0  0
    2.3297    6.3927    6.7696 C   0  0  0  0  0  0  0  0  0  0  0  0
    3.2060    6.3989    5.4621 C   0  0  0  0  0  0  0  0  0  0  0  0
    3.9015    4.9971    5.0650 C   0  0  1  0  0  0  0  0  0  0  0  0
    4.7476    4.3606    6.1608 C   0  0  0  0  0  0  0  0  0  0  0  0
    4.0754    3.3803    7.1860 C   0  0  0  0  0  0  0  0  0  0  0  0
    4.5409    3.7962    8.4352 O   0  0  0  0  0  0  0  0  0  0  0  0
    5.6598    3.0011    8.7847 C   0  0  0  0  0  0  0  0  0  0  0  0
    5.8620    2.0835    7.5871 C   0  0  0  0  0  0  0  0  0  0  0  0
    4.5927    2.1076    6.9926 O   0  0  0  0  0  0  0  0  0  0  0  0
    3.4098    4.1156    3.9996 O   0  0  0  0  0  0  0  0  0  0  0  0
    2.9846    2.7425    4.0649 C   0  0  1  0  0  0  0  0  0  0  0  0
    3.9578    1.8254    4.4893 O   0  0  0  0  0  0  0  0  0  0  0  0
   -0.0453    5.7759    8.0843 C   0  0  0  0  0  0  0  0  0  0  0  0
   -0.8086    6.9896    8.5679 C   0  0  0  0  0  0  0  0  0  0  0  0
   -0.0063    4.6509    9.1200 C   0  0  0  0  0  0  0  0  0  0  0  0
    2.6020    1.0517    7.8436 H   0  0  0  0  0  0  0  0  0  0  0  0
    1.2639    1.8625    8.6221 H   0  0  0  0  0  0  0  0  0  0  0  0
    2.8750    2.0820    9.2185 H   0  0  0  0  0  0  0  0  0  0  0  0
    2.2829    4.0670    8.0159 H   0  0  0  0  0  0  0  0  0  0  0  0
    0.9362    2.9316    6.8057 H   0  0  0  0  0  0  0  0  0  0  0  0
    1.0794    0.4682    4.3301 H   0  0  0  0  0  0  0  0  0  0  0  0
    1.7511    0.6879    5.8771 H   0  0  0  0  0  0  0  0  0  0  0  0
   -1.0369    0.5673    5.5238 H   0  0  0  0  0  0  0  0  0  0  0  0
   -0.2980    1.2356    6.8994 H   0  0  0  0  0  0  0  0  0  0  0  0
   -1.8898    2.9761    5.9405 H   0  0  0  0  0  0  0  0  0  0  0  0
   -1.5260    1.6772    2.1004 H   0  0  0  0  0  0  0  0  0  0  0  0
   -2.1701    0.9595    3.5602 H   0  0  0  0  0  0  0  0  0  0  0  0
   -0.4957    0.7438    3.0907 H   0  0  0  0  0  0  0  0  0  0  0  0
   -1.9824    4.0960    2.4505 H   0  0  0  0  0  0  0  0  0  0  0  0
   -2.3658    4.5269    4.1202 H   0  0  0  0  0  0  0  0  0  0  0  0
   -3.1117    3.1536    3.4003 H   0  0  0  0  0  0  0  0  0  0  0  0
    0.8085    3.2628    2.6825 H   0  0  0  0  0  0  0  0  0  0  0  0
    1.4304    5.0468    4.2859 H   0  0  0  0  0  0  0  0  0  0  0  0
    0.0153    5.6877    2.8193 H   0  0  0  0  0  0  0  0  0  0  0  0
   -0.9534    5.9180    6.0949 H   0  0  0  0  0  0  0  0  0  0  0  0
    2.0884    5.7168    6.0405 H   0  0  0  0  0  0  0  0  0  0  0  0
    2.6442    6.7973    4.6010 H   0  0  0  0  0  0  0  0  0  0  0  0
    3.9705    7.1575    5.6110 H   0  0  0  0  0  0  0  0  0  0  0  0
    4.6841    5.4352    4.4501 H   0  0  0  0  0  0  0  0  0  0  0  0
    5.5515    3.8280    5.6623 H   0  0  0  0  0  0  0  0  0  0  0  0
    5.2573    5.1530    6.7078 H   0  0  0  0  0  0  0  0  0  0  0  0
    6.5345    3.6236    8.9718 H   0  0  0  0  0  0  0  0  0  0  0  0
    5.4346    2.4241    9.6824 H   0  0  0  0  0  0  0  0  0  0  0  0
    6.5966    2.4886    6.8927 H   0  0  0  0  0  0  0  0  0  0  0  0
    6.1599    1.0699    7.8451 H   0  0  0  0  0  0  0  0  0  0  0  0
    2.8720    2.4677    3.0156 H   0  0  0  0  0  0  0  0  0  0  0  0
    4.6383    1.8233    3.8374 H   0  0  0  0  0  0  0  0  0  0  0  0
   -1.8461    6.7399    8.7986 H   0  0  0  0  0  0  0  0  0  0  0  0
   -0.8147    7.7709    7.8073 H   0  0  0  0  0  0  0  0  0  0  0  0
   -0.3346    7.3909    9.4612 H   0  0  0  0  0  0  0  0  0  0  0  0
   -0.0564    3.6639    8.6597 H   0  0  0  0  0  0  0  0  0  0  0  0
   -0.8644    4.7000    9.7939 H   0  0  0  0  0  0  0  0  0  0  0  0
    0.8982    4.7077    9.7222 H   0  0  0  0  0  0  0  0  0  0  0  0
  1  2  1  0
  1 32  1  0
  1 33  1  0
  1 34  1  0
  2 21  1  0
  2  3  1  0
  2 35  1  1
  3 14  1  0
  3  4  1  0
  3 36  1  6
  4 11  1  0
  4 27  1  0
  4  5  1  1
  5  6  1  0
  5 37  1  0
  5 38  1  0
  6  7  1  0
  6 39  1  0
  6 40  1  0
 14  7  1  6
  7  8  1  0
  7 41  1  1
  8  9  1  0
  8 10  1  0
  8 11  1  0
  9 42  1  0
  9 43  1  0
  9 44  1  0
 10 45  1  0
 10 46  1  0
 10 47  1  0
 11 12  1  0
 11 48  1  6
 12 13  1  0
 12 14  1  0
 12 49  1  1
 13 50  1  0
 14 15  1  0
 15 29  1  0
 15 16  1  0
 15 51  1  6
 16 17  2  3
 16 29  1  0
 17 18  1  0
 17 52  1  0
 18 19  1  0
 18 53  1  0
 18 54  1  0
 19 20  1  0
 19 26  1  0
 19 55  1  6
 20 21  1  0
 20 56  1  0
 20 57  1  0
 21 25  1  0
 21 22  1  0
 22 23  1  0
 23 24  1  0
 23 58  1  0
 23 59  1  0
 24 25  1  0
 24 60  1  0
 24 61  1  0
 26 27  1  0
 27 28  1  0
 27 62  1  6
 28 63  1  0
 29 30  1  0
 29 31  1  0
 30 64  1  0
 30 65  1  0
 30 66  1  0
 31 67  1  0
 31 68  1  0
 31 69  1  0
M  END
>  <i_m_ct_stereo_status>  (260) 
1

>  <s_m_source_file>  (260) 
/var/tmp/pbs.5076255.sched01/tmpy8l6melh/117u1qm2xak.sdf

>  <i_m_source_file_index>  (260) 
1

>  <i_lp_mmshare_version>  (260) 
48012

>  <i_f3d_flags>  (260) 
0

>  <s_epik_input>  (260) 
TzFbQ0gyXVtDSDJdT0MxKFtDQEBIXTJbQ0gzXSlbQ0gyXVtDQEBIXShPW0NASF0zW09IXSlbQ0gyXS9bQ0hdPUMoQzQoW0NIM10pW0NIM10pXFtDSF00W0NAQF01KFtDQEhdMltDQEBdMzY3KVtDQEhdKFtDSDJdW0NIMl02KUMoW0NIM10pKFtDSDNdKVtDQEhdN1tDQEhdNVtPSF0=

>  <s_epik_cmdline>  (260) 
J2VwaWtfcHl0aG9uJywgJy1waHQnLCAnMi4wJywgJy1waCcsICc3LjAnLCAnLXRuJywgJzgnLCAnLW1hJywgJzIwMCcsICctaW1hZScsICc8aW5maWxlLm1hZT4nLCAnLW9tYWUnLCAnPG91dGZpbGUubWFlPic=

>  <r_lp_tautomer_probability>  (260) 
1

>  <r_epik_Ionization_Penalty>  (260) 
5.46082e-07

>  <r_epik_Ionization_Penalty_Charging>  (260) 
0

>  <r_epik_Ionization_Penalty_Neutral>  (260) 
5.46082e-07

>  <r_epik_State_Penalty>  (260) 
-0

>  <r_epik_Charging_Adjusted_Penalty>  (260) 
0

>  <i_epik_Tot_Q>  (260) 
0

>  <i_epik_Tot_abs_Q>  (260) 
0

>  <s_epik_Chemistry_Notes>  (260) 
This compound contains an acetal/aminal-like group ( X-CH(R)-Y where X, Y are N, S, or O) that may be acid/base labile, releasing an aldehyde.

>  <s_lp_Force_Field>  (260) 
OPLS3e

>  <r_lp_Energy>  (260) 
204.021

>  <b_lp_Chiralities_Consistent>  (260) 
1

>  <s_lp_Variant>  (260) 
81:0-8

>  <s_i_glide_gridfile>  (260) 
pfpi4k_grid

>  <i_i_glide_lignum>  (260) 
1

>  <i_i_glide_rotatable_bonds>  (260) 
2

>  <r_i_docking_score>  (260) 
-2.12306

>  <r_i_glide_ligand_efficiency>  (260) 
-0.0684859

>  <r_i_glide_ligand_efficiency_sa>  (260) 
-0.21514

>  <r_i_glide_ligand_efficiency_ln>  (260) 
-0.478816

>  <r_i_glide_gscore>  (260) 
-2.12306

>  <r_i_glide_lipo>  (260) 
-0.00107941

>  <r_i_glide_hbond>  (260) 
-0.0322129

>  <r_i_glide_metal>  (260) 
-0

>  <r_i_glide_rewards>  (260) 
-0.473339

>  <r_i_glide_evdw>  (260) 
-19.9546

>  <r_i_glide_ecoul>  (260) 
-4.01737

>  <r_i_glide_erotb>  (260) 
0

>  <r_i_glide_esite>  (260) 
-0.0160975

>  <r_i_glide_emodel>  (260) 
-24.7205

>  <r_i_glide_energy>  (260) 
-23.9719

>  <r_i_glide_einternal>  (260) 
0.902793

>  <r_i_glide_intrahb_reward>  (260) 
-0

>  <i_i_glide_confnum>  (260) 
1

>  <i_i_glide_posenum>  (260) 
38

>  <r_i_glide_eff_state_penalty>  (260) 
0

>  <ligand_id>  (260) 
81

>  <original_smiles>  (260) 
CC1C2C34CCC5C(C)(C)C3C(O)C52C2C(=CCC(CC13OCCO3)OC4O)C2(C)C

>  <smiles>  (260) 
[H]OC1([H])OC2([H])C([H])([H])C([H])=C3C([H])(C3(C([H])([H])[H])C([H])([H])[H])C34C([H])(O[H])C5([H])C(C([H])([H])[H])(C([H])([H])[H])C3([H])C([H])([H])C([H])([H])C15C4([H])C([H])(C([H])([H])[H])C1(OC([H])([H])C([H])([H])O1)C2([H])[H]

$$$$
81:7:2
     RDKit          3D

 69 75  0  0  1  0  0  0  0  0999 V2000
    1.7856    0.6761    7.9018 C   0  0  0  0  0  0  0  0  0  0  0  0
    1.9585    2.1254    7.3204 C   0  0  2  0  0  0  0  0  0  0  0  0
    1.1545    2.4693    5.9654 C   0  0  2  0  0  0  0  0  0  0  0  0
    1.5030    2.0223    4.5183 C   0  0  1  0  0  0  0  0  0  0  0  0
    1.2045    0.4861    4.5141 C   0  0  0  0  0  0  0  0  0  0  0  0
   -0.3062    0.3085    4.9690 C   0  0  0  0  0  0  0  0  0  0  0  0
   -1.0717    1.7146    4.9003 C   0  0  2  0  0  0  0  0  0  0  0  0
   -0.9572    2.0600    3.3903 C   0  0  0  0  0  0  0  0  0  0  0  0
   -0.9419    0.9520    2.2849 C   0  0  0  0  0  0  0  0  0  0  0  0
   -2.2093    2.8895    2.9593 C   0  0  0  0  0  0  0  0  0  0  0  0
    0.4379    2.7609    3.5356 C   0  0  1  0  0  0  0  0  0  0  0  0
    0.0963    3.8905    4.4412 C   0  0  1  0  0  0  0  0  0  0  0  0
   -0.7367    4.9413    3.9686 O   0  0  0  0  0  0  0  0  0  0  0  0
   -0.2698    2.9796    5.6369 C   0  0  2  0  0  0  0  0  0  0  0  0
   -0.9230    3.9486    6.6383 C   0  0  2  0  0  0  0  0  0  0  0  0
    0.1274    4.6784    7.4985 C   0  0  0  0  0  0  0  0  0  0  0  0
    1.3265    5.2499    7.4532 C   0  0  0  0  0  0  0  0  0  0  0  0
    2.3365    5.7061    6.3597 C   0  0  0  0  0  0  0  0  0  0  0  0
    3.3113    4.5862    5.7513 C   0  0  1  0  0  0  0  0  0  0  0  0
    4.1250    3.7749    6.7931 C   0  0  0  0  0  0  0  0  0  0  0  0
    3.5049    2.4979    7.4379 C   0  0  0  0  0  0  0  0  0  0  0  0
    3.7400    2.6250    8.8057 O   0  0  0  0  0  0  0  0  0  0  0  0
    4.7653    1.7091    9.1659 C   0  0  0  0  0  0  0  0  0  0  0  0
    4.6560    0.6246    8.1210 C   0  0  0  0  0  0  0  0  0  0  0  0
    4.2478    1.3897    7.0064 O   0  0  0  0  0  0  0  0  0  0  0  0
    3.1100    3.9334    4.4359 O   0  0  0  0  0  0  0  0  0  0  0  0
    2.9168    2.5444    4.1234 C   0  0  1  0  0  0  0  0  0  0  0  0
    3.9728    1.7011    4.4666 O   0  0  0  0  0  0  0  0  0  0  0  0
   -1.0388    3.9939    8.2197 C   0  0  0  0  0  0  0  0  0  0  0  0
   -2.0518    4.9243    8.8530 C   0  0  0  0  0  0  0  0  0  0  0  0
   -0.9194    2.6611    8.9585 C   0  0  0  0  0  0  0  0  0  0  0  0
    2.2649   -0.0668    7.2759 H   0  0  0  0  0  0  0  0  0  0  0  0
    0.7513    0.3115    8.0114 H   0  0  0  0  0  0  0  0  0  0  0  0
    2.1555    0.6324    8.9149 H   0  0  0  0  0  0  0  0  0  0  0  0
    1.5373    2.7286    8.1138 H   0  0  0  0  0  0  0  0  0  0  0  0
    0.5502    1.7571    6.4639 H   0  0  0  0  0  0  0  0  0  0  0  0
    1.4233    0.0345    3.5522 H   0  0  0  0  0  0  0  0  0  0  0  0
    1.8653   -0.0544    5.1876 H   0  0  0  0  0  0  0  0  0  0  0  0
   -0.8036   -0.4766    4.3974 H   0  0  0  0  0  0  0  0  0  0  0  0
   -0.3532   -0.0812    5.9848 H   0  0  0  0  0  0  0  0  0  0  0  0
   -2.1071    1.6032    5.2254 H   0  0  0  0  0  0  0  0  0  0  0  0
   -1.0795    1.3776    1.2946 H   0  0  0  0  0  0  0  0  0  0  0  0
   -1.7572    0.2426    2.4235 H   0  0  0  0  0  0  0  0  0  0  0  0
   -0.0245    0.3855    2.1852 H   0  0  0  0  0  0  0  0  0  0  0  0
   -1.9899    3.5508    2.1213 H   0  0  0  0  0  0  0  0  0  0  0  0
   -2.6400    3.4814    3.7664 H   0  0  0  0  0  0  0  0  0  0  0  0
   -3.0303    2.2477    2.6372 H   0  0  0  0  0  0  0  0  0  0  0  0
    0.8543    3.0866    2.5761 H   0  0  0  0  0  0  0  0  0  0  0  0
    0.9671    4.4758    4.6286 H   0  0  0  0  0  0  0  0  0  0  0  0
   -0.4028    5.1969    3.1150 H   0  0  0  0  0  0  0  0  0  0  0  0
   -1.7272    4.5060    6.2038 H   0  0  0  0  0  0  0  0  0  0  0  0
    1.2907    4.7535    6.5667 H   0  0  0  0  0  0  0  0  0  0  0  0
    1.8150    6.2414    5.5275 H   0  0  0  0  0  0  0  0  0  0  0  0
    2.9307    6.5137    6.7900 H   0  0  0  0  0  0  0  0  0  0  0  0
    4.0742    5.2588    5.3721 H   0  0  0  0  0  0  0  0  0  0  0  0
    5.0733    3.5000    6.3295 H   0  0  0  0  0  0  0  0  0  0  0  0
    4.4142    4.4875    7.5760 H   0  0  0  0  0  0  0  0  0  0  0  0
    5.7275    2.1893    9.0559 H   0  0  0  0  0  0  0  0  0  0  0  0
    4.6389    1.3342   10.1841 H   0  0  0  0  0  0  0  0  0  0  0  0
    5.5552    0.0518    7.9097 H   0  0  0  0  0  0  0  0  0  0  0  0
    3.9732   -0.1616    8.4275 H   0  0  0  0  0  0  0  0  0  0  0  0
    2.9700    2.5346    3.0277 H   0  0  0  0  0  0  0  0  0  0  0  0
    4.6844    1.8764    3.8635 H   0  0  0  0  0  0  0  0  0  0  0  0
   -3.0485    4.4790    8.8517 H   0  0  0  0  0  0  0  0  0  0  0  0
   -2.1072    5.8649    8.3032 H   0  0  0  0  0  0  0  0  0  0  0  0
   -1.7606    5.1468    9.8760 H   0  0  0  0  0  0  0  0  0  0  0  0
   -0.7475    1.8319    8.2765 H   0  0  0  0  0  0  0  0  0  0  0  0
   -1.8444    2.4153    9.4868 H   0  0  0  0  0  0  0  0  0  0  0  0
   -0.1136    2.6894    9.6873 H   0  0  0  0  0  0  0  0  0  0  0  0
  1  2  1  0
  1 32  1  0
  1 33  1  0
  1 34  1  0
  2 21  1  0
  2  3  1  0
  2 35  1  1
  3 14  1  0
  3  4  1  0
  3 36  1  6
  4 11  1  0
  4 27  1  0
  4  5  1  1
  5  6  1  0
  5 37  1  0
  5 38  1  0
  6  7  1  0
  6 39  1  0
  6 40  1  0
 14  7  1  6
  7  8  1  0
  7 41  1  1
  8  9  1  0
  8 10  1  0
  8 11  1  0
  9 42  1  0
  9 43  1  0
  9 44  1  0
 10 45  1  0
 10 46  1  0
 10 47  1  0
 11 12  1  0
 11 48  1  6
 12 13  1  0
 12 14  1  0
 12 49  1  1
 13 50  1  0
 14 15  1  0
 15 29  1  0
 15 16  1  0
 15 51  1  6
 16 17  2  3
 16 29  1  0
 17 18  1  0
 17 52  1  0
 18 19  1  0
 18 53  1  0
 18 54  1  0
 19 20  1  0
 19 26  1  0
 19 55  1  6
 20 21  1  0
 20 56  1  0
 20 57  1  0
 21 25  1  0
 21 22  1  0
 22 23  1  0
 23 24  1  0
 23 58  1  0
 23 59  1  0
 24 25  1  0
 24 60  1  0
 24 61  1  0
 26 27  1  0
 27 28  1  0
 27 62  1  6
 28 63  1  0
 29 30  1  0
 29 31  1  0
 30 64  1  0
 30 65  1  0
 30 66  1  0
 31 67  1  0
 31 68  1  0
 31 69  1  0
M  END
>  <i_m_ct_stereo_status>  (261) 
1

>  <s_m_source_file>  (261) 
/var/tmp/pbs.5076255.sched01/tmpy8l6melh/117u1qm2xak.sdf

>  <i_m_source_file_index>  (261) 
1

>  <i_lp_mmshare_version>  (261) 
48012

>  <i_f3d_flags>  (261) 
0

>  <s_epik_input>  (261) 
TzFbQ0gyXVtDSDJdT0MxKFtDQEBIXTJbQ0gzXSlbQ0gyXVtDQEBIXShPW0NASF0zW09IXSlbQ0gyXS9bQ0hdPUMoQzQoW0NIM10pW0NIM10pXFtDSF00W0NAQF01KFtDQEhdMltDQEBdMzY3KVtDQEhdKFtDSDJdW0NIMl02KUMoW0NIM10pKFtDSDNdKVtDQEhdN1tDQEhdNVtPSF0=

>  <s_epik_cmdline>  (261) 
J2VwaWtfcHl0aG9uJywgJy1waHQnLCAnMi4wJywgJy1waCcsICc3LjAnLCAnLXRuJywgJzgnLCAnLW1hJywgJzIwMCcsICctaW1hZScsICc8aW5maWxlLm1hZT4nLCAnLW9tYWUnLCAnPG91dGZpbGUubWFlPic=

>  <r_lp_tautomer_probability>  (261) 
1

>  <r_epik_Ionization_Penalty>  (261) 
5.46082e-07

>  <r_epik_Ionization_Penalty_Charging>  (261) 
0

>  <r_epik_Ionization_Penalty_Neutral>  (261) 
5.46082e-07

>  <r_epik_State_Penalty>  (261) 
-0

>  <r_epik_Charging_Adjusted_Penalty>  (261) 
0

>  <i_epik_Tot_Q>  (261) 
0

>  <i_epik_Tot_abs_Q>  (261) 
0

>  <s_epik_Chemistry_Notes>  (261) 
This compound contains an acetal/aminal-like group ( X-CH(R)-Y where X, Y are N, S, or O) that may be acid/base labile, releasing an aldehyde.

>  <s_lp_Force_Field>  (261) 
OPLS3e

>  <r_lp_Energy>  (261) 
204.021

>  <b_lp_Chiralities_Consistent>  (261) 
1

>  <s_lp_Variant>  (261) 
81:0-8

>  <s_i_glide_gridfile>  (261) 
pfpi4k_grid

>  <i_i_glide_lignum>  (261) 
1

>  <i_i_glide_rotatable_bonds>  (261) 
2

>  <r_i_docking_score>  (261) 
-2.09107

>  <r_i_glide_ligand_efficiency>  (261) 
-0.0674539

>  <r_i_glide_ligand_efficiency_sa>  (261) 
-0.211898

>  <r_i_glide_ligand_efficiency_ln>  (261) 
-0.471601

>  <r_i_glide_gscore>  (261) 
-2.09107

>  <r_i_glide_lipo>  (261) 
-4.12555e-05

>  <r_i_glide_hbond>  (261) 
-0.0675345

>  <r_i_glide_metal>  (261) 
-0

>  <r_i_glide_rewards>  (261) 
-0.473339

>  <r_i_glide_evdw>  (261) 
-20.8565

>  <r_i_glide_ecoul>  (261) 
-4.47751

>  <r_i_glide_erotb>  (261) 
0

>  <r_i_glide_esite>  (261) 
-0.013799

>  <r_i_glide_emodel>  (261) 
-24.5808

>  <r_i_glide_energy>  (261) 
-25.334

>  <r_i_glide_einternal>  (261) 
1.11231

>  <r_i_glide_intrahb_reward>  (261) 
-0

>  <i_i_glide_confnum>  (261) 
5

>  <i_i_glide_posenum>  (261) 
1

>  <r_i_glide_eff_state_penalty>  (261) 
0

>  <ligand_id>  (261) 
81

>  <original_smiles>  (261) 
CC1C2C34CCC5C(C)(C)C3C(O)C52C2C(=CCC(CC13OCCO3)OC4O)C2(C)C

>  <smiles>  (261) 
[H]OC1([H])OC2([H])C([H])([H])C([H])=C3C([H])(C3(C([H])([H])[H])C([H])([H])[H])C34C([H])(O[H])C5([H])C(C([H])([H])[H])(C([H])([H])[H])C3([H])C([H])([H])C([H])([H])C15C4([H])C([H])(C([H])([H])[H])C1(OC([H])([H])C([H])([H])O1)C2([H])[H]

$$$$
82:0:0
     RDKit          3D

 81 87  0  0  1  0  0  0  0  0999 V2000
   -0.8565   -2.8781    6.6879 C   0  0  0  0  0  0  0  0  0  0  0  0
   -0.9522   -1.5429    6.1818 O   0  0  0  0  0  0  0  0  0  0  0  0
   -0.1365   -0.5450    6.8124 C   0  0  2  0  0  0  0  0  0  0  0  0
   -0.5906    0.8456    6.3986 C   0  0  2  0  0  0  0  0  0  0  0  0
   -0.7144    0.9859    4.7680 C   0  0  0  0  0  0  0  0  0  0  0  0
   -0.0108    1.8507    3.5783 C   0  0  1  0  0  0  0  0  0  0  0  0
   -0.6544    1.2015    2.3025 C   0  0  0  0  0  0  0  0  0  0  0  0
   -0.4997    3.3518    3.6257 C   0  0  1  0  0  0  0  0  0  0  0  0
   -1.7173    3.5813    2.9417 O   0  0  0  0  0  0  0  0  0  0  0  0
   -0.7890    3.9095    5.0024 C   0  0  0  0  0  0  0  0  0  0  0  0
    0.4001    4.0620    5.9753 C   0  0  1  0  0  0  0  0  0  0  0  0
   -0.0454    5.0542    6.8830 O   0  0  0  0  0  0  0  0  0  0  0  0
    1.0880    2.7809    6.6782 C   0  0  2  0  0  0  0  0  0  0  0  0
    2.0617    3.5217    7.6630 C   0  0  0  0  0  0  0  0  0  0  0  0
    2.0774    1.8836    5.7544 C   0  0  2  0  0  0  0  0  0  0  0  0
    2.3656    2.5383    4.3871 C   0  0  1  0  0  0  0  0  0  0  0  0
    3.7551    2.5706    4.1758 O   0  0  0  0  0  0  0  0  0  0  0  0
    1.5848    1.8128    3.2837 C   0  0  2  0  0  0  0  0  0  0  0  0
    1.8744    2.5655    2.1052 O   0  0  0  0  0  0  0  0  0  0  0  0
    2.2594    0.4289    2.9709 C   0  0  1  0  0  0  0  0  0  0  0  0
    3.5118    0.5281    2.3196 O   0  0  0  0  0  0  0  0  0  0  0  0
    2.4548   -0.4513    4.1830 C   0  0  1  0  0  0  0  0  0  0  0  0
    2.1757   -1.9002    3.7562 C   0  0  0  0  0  0  0  0  0  0  0  0
    3.0147   -2.3063    2.6843 O   0  0  0  0  0  0  0  0  0  0  0  0
    2.9054   -3.5312    2.1567 C   0  0  0  0  0  0  0  0  0  0  0  0
    3.9138   -3.7565    1.0394 C   0  0  0  0  0  0  0  0  0  0  0  0
    2.1022   -4.4016    2.4983 O   0  0  0  0  0  0  0  0  0  0  0  0
    3.4152   -0.2788    5.3290 C   0  0  2  0  0  0  0  0  0  0  0  0
    3.5237   -1.2566    6.3809 O   0  0  0  0  0  0  0  0  0  0  0  0
    2.4554   -1.1709    7.3473 C   0  0  1  0  0  0  0  0  0  0  0  0
    2.7984   -0.2971    8.5620 C   0  0  1  0  0  0  0  0  0  0  0  0
    3.7203    0.7307    8.3158 O   0  0  0  0  0  0  0  0  0  0  0  0
    1.5493    0.1927    9.3160 C   0  0  0  0  0  0  0  0  0  0  0  0
    0.5961    1.3649    8.8804 C   0  0  0  0  0  0  0  0  0  0  0  0
    0.0226    1.8917    7.4436 C   0  0  2  0  0  0  0  0  0  0  0  0
   -1.1761    2.7545    8.0344 C   0  0  0  0  0  0  0  0  0  0  0  0
   -2.2086    2.0160    8.6535 O   0  0  0  0  0  0  0  0  0  0  0  0
    1.3491   -0.6506    6.4788 C   0  0  2  0  0  0  0  0  0  0  0  0
    2.0278    0.2766    5.5134 C   0  0  1  0  0  0  0  0  0  0  0  0
   -1.5053   -3.5367    6.1124 H   0  0  0  0  0  0  0  0  0  0  0  0
   -1.1824   -2.9666    7.7213 H   0  0  0  0  0  0  0  0  0  0  0  0
    0.1440   -3.3056    6.6340 H   0  0  0  0  0  0  0  0  0  0  0  0
   -0.3373   -0.7153    7.8593 H   0  0  0  0  0  0  0  0  0  0  0  0
   -1.6408    0.7789    6.6622 H   0  0  0  0  0  0  0  0  0  0  0  0
   -0.6094   -0.0339    4.4102 H   0  0  0  0  0  0  0  0  0  0  0  0
   -1.7811    1.1736    4.6263 H   0  0  0  0  0  0  0  0  0  0  0  0
   -0.3828    1.7024    1.3737 H   0  0  0  0  0  0  0  0  0  0  0  0
   -1.7443    1.1875    2.3421 H   0  0  0  0  0  0  0  0  0  0  0  0
   -0.3815    0.1574    2.1876 H   0  0  0  0  0  0  0  0  0  0  0  0
    0.2047    4.0335    3.1512 H   0  0  0  0  0  0  0  0  0  0  0  0
   -1.4892    3.6983    2.0185 H   0  0  0  0  0  0  0  0  0  0  0  0
   -1.1835    4.9137    4.8387 H   0  0  0  0  0  0  0  0  0  0  0  0
   -1.6382    3.3594    5.3890 H   0  0  0  0  0  0  0  0  0  0  0  0
    1.1364    4.7012    5.5012 H   0  0  0  0  0  0  0  0  0  0  0  0
    0.6978    5.3391    7.4020 H   0  0  0  0  0  0  0  0  0  0  0  0
    2.7143    2.8774    8.2307 H   0  0  0  0  0  0  0  0  0  0  0  0
    1.5571    4.1130    8.4218 H   0  0  0  0  0  0  0  0  0  0  0  0
    2.7257    4.1941    7.1181 H   0  0  0  0  0  0  0  0  0  0  0  0
    3.0373    1.9811    6.2562 H   0  0  0  0  0  0  0  0  0  0  0  0
    2.1754    3.5969    4.3166 H   0  0  0  0  0  0  0  0  0  0  0  0
    3.9174    2.9972    3.3388 H   0  0  0  0  0  0  0  0  0  0  0  0
    1.1489    3.1522    1.8741 H   0  0  0  0  0  0  0  0  0  0  0  0
    1.6681   -0.1051    2.2185 H   0  0  0  0  0  0  0  0  0  0  0  0
    3.8518    1.4059    2.4863 H   0  0  0  0  0  0  0  0  0  0  0  0
    2.3548   -2.5963    4.5678 H   0  0  0  0  0  0  0  0  0  0  0  0
    1.1240   -1.9928    3.4649 H   0  0  0  0  0  0  0  0  0  0  0  0
    3.8556   -2.9340    0.3263 H   0  0  0  0  0  0  0  0  0  0  0  0
    3.7185   -4.6920    0.5143 H   0  0  0  0  0  0  0  0  0  0  0  0
    4.9234   -3.7842    1.4504 H   0  0  0  0  0  0  0  0  0  0  0  0
    4.2641    0.3627    5.2210 H   0  0  0  0  0  0  0  0  0  0  0  0
    2.2189   -2.1760    7.7077 H   0  0  0  0  0  0  0  0  0  0  0  0
    3.3354   -0.9494    9.2501 H   0  0  0  0  0  0  0  0  0  0  0  0
    3.3292    1.3390    7.7005 H   0  0  0  0  0  0  0  0  0  0  0  0
    0.9485   -0.6887    9.5403 H   0  0  0  0  0  0  0  0  0  0  0  0
    1.9045    0.4790   10.3078 H   0  0  0  0  0  0  0  0  0  0  0  0
   -0.2592    1.0723    9.4844 H   0  0  0  0  0  0  0  0  0  0  0  0
    0.9379    2.2254    9.4518 H   0  0  0  0  0  0  0  0  0  0  0  0
   -0.8074    3.4641    8.7770 H   0  0  0  0  0  0  0  0  0  0  0  0
   -1.7414    3.3576    7.3444 H   0  0  0  0  0  0  0  0  0  0  0  0
   -2.7069    2.6103    9.2043 H   0  0  0  0  0  0  0  0  0  0  0  0
    1.2476   -1.5384    5.8940 H   0  0  0  0  0  0  0  0  0  0  0  0
  1  2  1  0
  1 40  1  0
  1 41  1  0
  1 42  1  0
  2  3  1  0
  3 38  1  0
  3  4  1  0
  3 43  1  1
  4 35  1  0
  4  5  1  0
  4 44  1  1
  5  6  1  0
  5 45  1  0
  5 46  1  0
  6 18  1  0
  6  7  1  6
  6  8  1  0
  7 47  1  0
  7 48  1  0
  7 49  1  0
  8  9  1  0
  8 10  1  0
  8 50  1  6
  9 51  1  0
 10 11  1  0
 10 52  1  0
 10 53  1  0
 11 12  1  0
 11 13  1  0
 11 54  1  6
 12 55  1  0
 13 35  1  0
 13 14  1  1
 13 15  1  0
 14 56  1  0
 14 57  1  0
 14 58  1  0
 15 39  1  0
 15 16  1  0
 15 59  1  1
 16 17  1  0
 16 18  1  0
 16 60  1  1
 17 61  1  0
 18 19  1  6
 18 20  1  0
 19 62  1  0
 20 21  1  0
 20 22  1  0
 20 63  1  6
 21 64  1  0
 39 22  1  6
 22 23  1  6
 22 28  1  0
 23 24  1  0
 23 65  1  0
 23 66  1  0
 24 25  1  0
 25 26  1  0
 25 27  2  0
 26 67  1  0
 26 68  1  0
 26 69  1  0
 28 39  1  0
 28 29  1  0
 28 70  1  6
 29 30  1  0
 30 31  1  0
 30 38  1  0
 30 71  1  1
 31 32  1  0
 31 33  1  0
 31 72  1  1
 32 73  1  0
 33 34  1  0
 33 74  1  0
 33 75  1  0
 34 35  1  0
 34 76  1  0
 34 77  1  0
 35 36  1  1
 36 37  1  0
 36 78  1  0
 36 79  1  0
 37 80  1  0
 38 39  1  0
 38 81  1  6
M  END
>  <i_m_ct_stereo_status>  (262) 
1

>  <s_m_source_file>  (262) 
/var/tmp/pbs.5076255.sched01/tmpy8l6melh/117u1qm2xak.sdf

>  <i_m_source_file_index>  (262) 
2

>  <i_lp_mmshare_version>  (262) 
48012

>  <i_f3d_flags>  (262) 
0

>  <s_epik_input>  (262) 
W0NAXTEyM1tDQEBIXTRbQ0BdNShbQ0gzXSlbQ0BAXTYoW0NIMl1bT0hdKVtDQEBIXTdbQ0BASF0oT1tDSDNdKVtDQEBIXTNbQ0BIXShbQ0BASF0oW09IXSlbQ0gyXVtDSDJdNilPW0NASF0yW0NAXTEoW0NIMl1PQyg9TylbQ0gzXSlbQ0BIXShbT0hdKVtDQF0oW09IXSkoW0NAQEhdNFtPSF0pW0NAXShbQ0gyXTcpKFtDSDNdKVtDQEBIXShbT0hdKVtDSDJdW0NASF01W09IXQ==

>  <s_epik_cmdline>  (262) 
J2VwaWtfcHl0aG9uJywgJy1waHQnLCAnMi4wJywgJy1waCcsICc3LjAnLCAnLXRuJywgJzgnLCAnLW1hJywgJzIwMCcsICctaW1hZScsICc8aW5maWxlLm1hZT4nLCAnLW9tYWUnLCAnPG91dGZpbGUubWFlPic=

>  <r_lp_tautomer_probability>  (262) 
1

>  <r_epik_Ionization_Penalty>  (262) 
1.65149e-06

>  <r_epik_Ionization_Penalty_Charging>  (262) 
0

>  <r_epik_Ionization_Penalty_Neutral>  (262) 
1.65149e-06

>  <r_epik_State_Penalty>  (262) 
-0

>  <r_epik_Charging_Adjusted_Penalty>  (262) 
0

>  <i_epik_Tot_Q>  (262) 
0

>  <i_epik_Tot_abs_Q>  (262) 
0

>  <s_epik_Chemistry_Notes>  (262) 
This compound has an ester and may undergo hydrolysis at high or low pH.

>  <s_lp_Force_Field>  (262) 
OPLS3e

>  <r_lp_Energy>  (262) 
260.268

>  <b_lp_Chiralities_Consistent>  (262) 
1

>  <s_lp_Variant>  (262) 
82:0-1

>  <s_i_glide_gridfile>  (262) 
pfpi4k_grid

>  <i_i_glide_lignum>  (262) 
2

>  <i_i_glide_rotatable_bonds>  (262) 
12

>  <r_i_docking_score>  (262) 
-2.56111

>  <r_i_glide_ligand_efficiency>  (262) 
-0.0656696

>  <r_i_glide_ligand_efficiency_sa>  (262) 
-0.2227

>  <r_i_glide_ligand_efficiency_ln>  (262) 
-0.549176

>  <r_i_glide_gscore>  (262) 
-2.56111

>  <r_i_glide_lipo>  (262) 
-0.0103432

>  <r_i_glide_hbond>  (262) 
-0.106157

>  <r_i_glide_metal>  (262) 
-0

>  <r_i_glide_rewards>  (262) 
0

>  <r_i_glide_evdw>  (262) 
-18.5986

>  <r_i_glide_ecoul>  (262) 
-10.9435

>  <r_i_glide_erotb>  (262) 
0.128715

>  <r_i_glide_esite>  (262) 
-0.00187766

>  <r_i_glide_emodel>  (262) 
-31.282

>  <r_i_glide_energy>  (262) 
-29.5421

>  <r_i_glide_einternal>  (262) 
6.28723

>  <r_i_glide_intrahb_reward>  (262) 
-0

>  <i_i_glide_confnum>  (262) 
2

>  <i_i_glide_posenum>  (262) 
18

>  <r_i_glide_eff_state_penalty>  (262) 
0

>  <ligand_id>  (262) 
82

>  <original_smiles>  (262) 
COC1C2CC3(C)C(O)CC(O)C4(C)C5C(O)C3(O)C(O)C3(COC(C)=O)C6OC(C(O)CCC24CO)C1C563

>  <smiles>  (262) 
[H]OC([H])([H])C12C([H])([H])C([H])([H])C([H])(O[H])C3([H])OC4([H])C5(C([H])([H])OC(=O)C([H])([H])[H])C([H])(O[H])C6(O[H])C([H])(O[H])C7([H])C1(C([H])([H])[H])C([H])(O[H])C([H])([H])C([H])(O[H])C6(C([H])([H])[H])C([H])([H])C2([H])C([H])(OC([H])([H])[H])C3([H])C475

$$$$
82:0:1
     RDKit          3D

 81 87  0  0  1  0  0  0  0  0999 V2000
   -2.4882    1.4116    6.8626 C   0  0  0  0  0  0  0  0  0  0  0  0
   -1.2005    0.8436    7.0796 O   0  0  0  0  0  0  0  0  0  0  0  0
   -0.1025    1.7727    7.0792 C   0  0  2  0  0  0  0  0  0  0  0  0
    0.2266    2.2979    5.6780 C   0  0  2  0  0  0  0  0  0  0  0  0
    0.3755    1.0521    4.6164 C   0  0  0  0  0  0  0  0  0  0  0  0
    1.5382    0.3969    3.6655 C   0  0  1  0  0  0  0  0  0  0  0  0
    0.7964   -0.8866    3.1302 C   0  0  0  0  0  0  0  0  0  0  0  0
    1.8505    1.3025    2.4157 C   0  0  1  0  0  0  0  0  0  0  0  0
    0.9346    1.0774    1.3453 O   0  0  0  0  0  0  0  0  0  0  0  0
    1.7041    2.7914    2.6715 C   0  0  0  0  0  0  0  0  0  0  0  0
    2.6785    3.4688    3.6625 C   0  0  1  0  0  0  0  0  0  0  0  0
    2.6288    4.8380    3.2869 O   0  0  0  0  0  0  0  0  0  0  0  0
    2.5816    3.2226    5.2581 C   0  0  2  0  0  0  0  0  0  0  0  0
    3.6712    4.2452    5.7514 C   0  0  0  0  0  0  0  0  0  0  0  0
    3.1082    1.7878    5.8238 C   0  0  2  0  0  0  0  0  0  0  0  0
    3.8602    0.9787    4.7448 C   0  0  1  0  0  0  0  0  0  0  0  0
    5.1346    0.5911    5.2306 O   0  0  0  0  0  0  0  0  0  0  0  0
    2.9589   -0.1486    4.2403 C   0  0  2  0  0  0  0  0  0  0  0  0
    3.6582   -0.7367    3.1482 O   0  0  0  0  0  0  0  0  0  0  0  0
    2.9181   -1.2821    5.3052 C   0  0  1  0  0  0  0  0  0  0  0  0
    4.1211   -2.0278    5.4518 O   0  0  0  0  0  0  0  0  0  0  0  0
    2.4652   -0.8234    6.6755 C   0  0  1  0  0  0  0  0  0  0  0  0
    1.5846   -1.9056    7.3385 C   0  0  0  0  0  0  0  0  0  0  0  0
    2.1061   -3.2345    7.2267 O   0  0  0  0  0  0  0  0  0  0  0  0
    1.5235   -4.1531    6.4303 C   0  0  0  0  0  0  0  0  0  0  0  0
    2.3337   -5.4393    6.3506 C   0  0  0  0  0  0  0  0  0  0  0  0
    0.4849   -4.0018    5.7835 O   0  0  0  0  0  0  0  0  0  0  0  0
    3.2848    0.0414    7.6747 C   0  0  2  0  0  0  0  0  0  0  0  0
    2.7838    0.3191    8.9993 O   0  0  0  0  0  0  0  0  0  0  0  0
    1.7866    1.3586    8.9958 C   0  0  1  0  0  0  0  0  0  0  0  0
    2.3745    2.7573    9.2341 C   0  0  1  0  0  0  0  0  0  0  0  0
    3.7031    2.9312    8.8040 O   0  0  0  0  0  0  0  0  0  0  0  0
    1.4466    3.8832    8.7493 C   0  0  0  0  0  0  0  0  0  0  0  0
    1.2267    4.3499    7.2636 C   0  0  0  0  0  0  0  0  0  0  0  0
    1.1419    3.5910    5.8196 C   0  0  2  0  0  0  0  0  0  0  0  0
    0.4225    4.8159    5.0647 C   0  0  0  0  0  0  0  0  0  0  0  0
   -0.3299    4.5860    3.8845 O   0  0  0  0  0  0  0  0  0  0  0  0
    1.1572    1.1162    7.6499 C   0  0  2  0  0  0  0  0  0  0  0  0
    2.3191    0.7146    6.7715 C   0  0  1  0  0  0  0  0  0  0  0  0
   -3.2449    0.6290    6.8893 H   0  0  0  0  0  0  0  0  0  0  0  0
   -2.5719    1.8747    5.8826 H   0  0  0  0  0  0  0  0  0  0  0  0
   -2.7361    2.1542    7.6229 H   0  0  0  0  0  0  0  0  0  0  0  0
   -0.4717    2.5592    7.7279 H   0  0  0  0  0  0  0  0  0  0  0  0
   -0.7223    2.7267    5.3866 H   0  0  0  0  0  0  0  0  0  0  0  0
    0.0077    0.1898    5.1673 H   0  0  0  0  0  0  0  0  0  0  0  0
   -0.4503    1.2360    3.9256 H   0  0  0  0  0  0  0  0  0  0  0  0
    1.3531   -1.4180    2.3555 H   0  0  0  0  0  0  0  0  0  0  0  0
   -0.1664   -0.6344    2.6875 H   0  0  0  0  0  0  0  0  0  0  0  0
    0.5235   -1.6008    3.9050 H   0  0  0  0  0  0  0  0  0  0  0  0
    2.8403    1.1377    1.9773 H   0  0  0  0  0  0  0  0  0  0  0  0
    1.1065    0.2500    0.9074 H   0  0  0  0  0  0  0  0  0  0  0  0
    1.8500    3.2504    1.6967 H   0  0  0  0  0  0  0  0  0  0  0  0
    0.6667    2.9700    2.9089 H   0  0  0  0  0  0  0  0  0  0  0  0
    3.6880    3.3082    3.3041 H   0  0  0  0  0  0  0  0  0  0  0  0
    2.5128    4.8994    2.3479 H   0  0  0  0  0  0  0  0  0  0  0  0
    3.8565    4.2325    6.8142 H   0  0  0  0  0  0  0  0  0  0  0  0
    3.4251    5.2823    5.5315 H   0  0  0  0  0  0  0  0  0  0  0  0
    4.6330    4.0407    5.2839 H   0  0  0  0  0  0  0  0  0  0  0  0
    3.9136    2.0769    6.4896 H   0  0  0  0  0  0  0  0  0  0  0  0
    4.1847    1.5355    3.8801 H   0  0  0  0  0  0  0  0  0  0  0  0
    5.6466    1.3682    5.3804 H   0  0  0  0  0  0  0  0  0  0  0  0
    3.0998   -1.3989    2.7760 H   0  0  0  0  0  0  0  0  0  0  0  0
    2.2193   -2.0427    4.9566 H   0  0  0  0  0  0  0  0  0  0  0  0
    3.9934   -2.6938    6.1122 H   0  0  0  0  0  0  0  0  0  0  0  0
    1.4821   -1.7148    8.3997 H   0  0  0  0  0  0  0  0  0  0  0  0
    0.5892   -1.8217    6.8927 H   0  0  0  0  0  0  0  0  0  0  0  0
    3.3684   -5.2068    6.0975 H   0  0  0  0  0  0  0  0  0  0  0  0
    1.9317   -6.1016    5.5836 H   0  0  0  0  0  0  0  0  0  0  0  0
    2.3180   -5.9515    7.3120 H   0  0  0  0  0  0  0  0  0  0  0  0
    4.3568    0.1110    7.5657 H   0  0  0  0  0  0  0  0  0  0  0  0
    1.0659    1.1590    9.7948 H   0  0  0  0  0  0  0  0  0  0  0  0
    2.4513    2.8625   10.3151 H   0  0  0  0  0  0  0  0  0  0  0  0
    3.7194    2.8416    7.8641 H   0  0  0  0  0  0  0  0  0  0  0  0
    0.4776    3.7046    9.2181 H   0  0  0  0  0  0  0  0  0  0  0  0
    1.7809    4.7779    9.2778 H   0  0  0  0  0  0  0  0  0  0  0  0
    0.2580    4.8140    7.4341 H   0  0  0  0  0  0  0  0  0  0  0  0
    1.8583    5.2277    7.1448 H   0  0  0  0  0  0  0  0  0  0  0  0
   -0.4037    5.2372    5.6454 H   0  0  0  0  0  0  0  0  0  0  0  0
    1.1004    5.6572    4.9721 H   0  0  0  0  0  0  0  0  0  0  0  0
    0.2613    4.4408    3.1307 H   0  0  0  0  0  0  0  0  0  0  0  0
    0.6750    0.1940    7.9328 H   0  0  0  0  0  0  0  0  0  0  0  0
  1  2  1  0
  1 40  1  0
  1 41  1  0
  1 42  1  0
  2  3  1  0
  3 38  1  0
  3  4  1  0
  3 43  1  1
  4 35  1  0
  4  5  1  0
  4 44  1  6
  5  6  1  0
  5 45  1  0
  5 46  1  0
  6 18  1  0
  6  7  1  6
  6  8  1  0
  7 47  1  0
  7 48  1  0
  7 49  1  0
  8  9  1  0
  8 10  1  0
  8 50  1  6
  9 51  1  0
 10 11  1  0
 10 52  1  0
 10 53  1  0
 11 12  1  0
 11 13  1  0
 11 54  1  6
 12 55  1  0
 13 35  1  0
 13 14  1  1
 13 15  1  0
 14 56  1  0
 14 57  1  0
 14 58  1  0
 15 39  1  0
 15 16  1  0
 15 59  1  1
 16 17  1  0
 16 18  1  0
 16 60  1  6
 17 61  1  0
 18 19  1  6
 18 20  1  0
 19 62  1  0
 20 21  1  0
 20 22  1  0
 20 63  1  6
 21 64  1  0
 39 22  1  6
 22 23  1  1
 22 28  1  0
 23 24  1  0
 23 65  1  0
 23 66  1  0
 24 25  1  0
 25 26  1  0
 25 27  2  0
 26 67  1  0
 26 68  1  0
 26 69  1  0
 28 39  1  0
 28 29  1  0
 28 70  1  1
 29 30  1  0
 30 31  1  0
 30 38  1  0
 30 71  1  1
 31 32  1  0
 31 33  1  0
 31 72  1  1
 32 73  1  0
 33 34  1  0
 33 74  1  0
 33 75  1  0
 34 35  1  0
 34 76  1  0
 34 77  1  0
 35 36  1  6
 36 37  1  0
 36 78  1  0
 36 79  1  0
 37 80  1  0
 38 39  1  0
 38 81  1  1
M  END
>  <i_m_ct_stereo_status>  (263) 
1

>  <s_m_source_file>  (263) 
/var/tmp/pbs.5076255.sched01/tmpy8l6melh/117u1qm2xak.sdf

>  <i_m_source_file_index>  (263) 
2

>  <i_lp_mmshare_version>  (263) 
48012

>  <i_f3d_flags>  (263) 
0

>  <s_epik_input>  (263) 
W0NAXTEyM1tDQEBIXTRbQ0BdNShbQ0gzXSlbQ0BAXTYoW0NIMl1bT0hdKVtDQEBIXTdbQ0BASF0oT1tDSDNdKVtDQEBIXTNbQ0BIXShbQ0BASF0oW09IXSlbQ0gyXVtDSDJdNilPW0NASF0yW0NAXTEoW0NIMl1PQyg9TylbQ0gzXSlbQ0BIXShbT0hdKVtDQF0oW09IXSkoW0NAQEhdNFtPSF0pW0NAXShbQ0gyXTcpKFtDSDNdKVtDQEBIXShbT0hdKVtDSDJdW0NASF01W09IXQ==

>  <s_epik_cmdline>  (263) 
J2VwaWtfcHl0aG9uJywgJy1waHQnLCAnMi4wJywgJy1waCcsICc3LjAnLCAnLXRuJywgJzgnLCAnLW1hJywgJzIwMCcsICctaW1hZScsICc8aW5maWxlLm1hZT4nLCAnLW9tYWUnLCAnPG91dGZpbGUubWFlPic=

>  <r_lp_tautomer_probability>  (263) 
1

>  <r_epik_Ionization_Penalty>  (263) 
1.65149e-06

>  <r_epik_Ionization_Penalty_Charging>  (263) 
0

>  <r_epik_Ionization_Penalty_Neutral>  (263) 
1.65149e-06

>  <r_epik_State_Penalty>  (263) 
-0

>  <r_epik_Charging_Adjusted_Penalty>  (263) 
0

>  <i_epik_Tot_Q>  (263) 
0

>  <i_epik_Tot_abs_Q>  (263) 
0

>  <s_epik_Chemistry_Notes>  (263) 
This compound has an ester and may undergo hydrolysis at high or low pH.

>  <s_lp_Force_Field>  (263) 
OPLS3e

>  <r_lp_Energy>  (263) 
260.268

>  <b_lp_Chiralities_Consistent>  (263) 
1

>  <s_lp_Variant>  (263) 
82:0-1

>  <s_i_glide_gridfile>  (263) 
pfpi4k_grid

>  <i_i_glide_lignum>  (263) 
2

>  <i_i_glide_rotatable_bonds>  (263) 
12

>  <r_i_docking_score>  (263) 
-2.45065

>  <r_i_glide_ligand_efficiency>  (263) 
-0.0628373

>  <r_i_glide_ligand_efficiency_sa>  (263) 
-0.213095

>  <r_i_glide_ligand_efficiency_ln>  (263) 
-0.52549

>  <r_i_glide_gscore>  (263) 
-2.45065

>  <r_i_glide_lipo>  (263) 
0

>  <r_i_glide_hbond>  (263) 
-0.232861

>  <r_i_glide_metal>  (263) 
-0

>  <r_i_glide_rewards>  (263) 
-0.5

>  <r_i_glide_evdw>  (263) 
-18.9187

>  <r_i_glide_ecoul>  (263) 
-6.00381

>  <r_i_glide_erotb>  (263) 
0.128715

>  <r_i_glide_esite>  (263) 
-3.99531e-06

>  <r_i_glide_emodel>  (263) 
-31.3353

>  <r_i_glide_energy>  (263) 
-24.9225

>  <r_i_glide_einternal>  (263) 
7.35213

>  <r_i_glide_intrahb_reward>  (263) 
-0.5

>  <i_i_glide_confnum>  (263) 
3

>  <i_i_glide_posenum>  (263) 
12

>  <r_i_glide_eff_state_penalty>  (263) 
0

>  <ligand_id>  (263) 
82

>  <original_smiles>  (263) 
COC1C2CC3(C)C(O)CC(O)C4(C)C5C(O)C3(O)C(O)C3(COC(C)=O)C6OC(C(O)CCC24CO)C1C563

>  <smiles>  (263) 
[H]OC([H])([H])C12C([H])([H])C([H])([H])C([H])(O[H])C3([H])OC4([H])C5(C([H])([H])OC(=O)C([H])([H])[H])C([H])(O[H])C6(O[H])C([H])(O[H])C7([H])C1(C([H])([H])[H])C([H])(O[H])C([H])([H])C([H])(O[H])C6(C([H])([H])[H])C([H])([H])C2([H])C([H])(OC([H])([H])[H])C3([H])C475

$$$$
82:0:2
     RDKit          3D

 81 87  0  0  1  0  0  0  0  0999 V2000
   -0.9187   -3.0149    6.7223 C   0  0  0  0  0  0  0  0  0  0  0  0
   -0.9843   -1.6949    6.1809 O   0  0  0  0  0  0  0  0  0  0  0  0
   -0.2359   -0.6803    6.8648 C   0  0  2  0  0  0  0  0  0  0  0  0
   -0.7132    0.7067    6.4522 C   0  0  2  0  0  0  0  0  0  0  0  0
   -0.7715    0.8417    4.8118 C   0  0  0  0  0  0  0  0  0  0  0  0
   -0.0422    1.7313    3.6490 C   0  0  1  0  0  0  0  0  0  0  0  0
   -0.6068    1.0652    2.3437 C   0  0  0  0  0  0  0  0  0  0  0  0
   -0.5743    3.2172    3.6705 C   0  0  1  0  0  0  0  0  0  0  0  0
   -1.7589    3.4165    2.9238 O   0  0  0  0  0  0  0  0  0  0  0  0
   -0.9491    3.7485    5.0337 C   0  0  0  0  0  0  0  0  0  0  0  0
    0.1935    3.9344    6.0523 C   0  0  1  0  0  0  0  0  0  0  0  0
   -0.3062    4.9343    6.9071 O   0  0  0  0  0  0  0  0  0  0  0  0
    0.8924    2.6857    6.7996 C   0  0  2  0  0  0  0  0  0  0  0  0
    1.8027    3.4414    7.8255 C   0  0  0  0  0  0  0  0  0  0  0  0
    1.9451    1.8130    5.9204 C   0  0  2  0  0  0  0  0  0  0  0  0
    2.2786    2.4878    4.5753 C   0  0  1  0  0  0  0  0  0  0  0  0
    3.6749    2.6099    4.4524 O   0  0  0  0  0  0  0  0  0  0  0  0
    1.5676    1.7509    3.4272 C   0  0  2  0  0  0  0  0  0  0  0  0
    1.8625    2.5171    2.2601 O   0  0  0  0  0  0  0  0  0  0  0  0
    2.2933    0.3893    3.1377 C   0  0  1  0  0  0  0  0  0  0  0  0
    3.5776    0.5402    2.5677 O   0  0  0  0  0  0  0  0  0  0  0  0
    2.4532   -0.4924    4.3506 C   0  0  1  0  0  0  0  0  0  0  0  0
    2.2515   -1.9470    3.9007 C   0  0  0  0  0  0  0  0  0  0  0  0
    3.1385   -2.2996    2.8432 O   0  0  0  0  0  0  0  0  0  0  0  0
    3.0190   -3.4914    2.2303 C   0  0  0  0  0  0  0  0  0  0  0  0
    4.0830   -3.6812    1.1534 C   0  0  0  0  0  0  0  0  0  0  0  0
    2.1772   -4.3509    2.4735 O   0  0  0  0  0  0  0  0  0  0  0  0
    3.3645   -0.2984    5.5374 C   0  0  2  0  0  0  0  0  0  0  0  0
    3.4589   -1.2830    6.5819 O   0  0  0  0  0  0  0  0  0  0  0  0
    2.3470   -1.2444    7.5025 C   0  0  1  0  0  0  0  0  0  0  0  0
    2.6001   -0.3701    8.7392 C   0  0  1  0  0  0  0  0  0  0  0  0
    3.4995    0.6878    8.5420 O   0  0  0  0  0  0  0  0  0  0  0  0
    1.2977    0.0636    9.4398 C   0  0  0  0  0  0  0  0  0  0  0  0
    0.3273    1.2131    8.9739 C   0  0  0  0  0  0  0  0  0  0  0  0
   -0.1731    1.7700    7.5211 C   0  0  2  0  0  0  0  0  0  0  0  0
   -1.4563    2.5500    8.0569 C   0  0  0  0  0  0  0  0  0  0  0  0
   -1.2525    3.5002    9.0979 O   0  0  0  0  0  0  0  0  0  0  0  0
    1.2618   -0.7583    6.5869 C   0  0  2  0  0  0  0  0  0  0  0  0
    1.9551    0.2042    5.6652 C   0  0  1  0  0  0  0  0  0  0  0  0
   -1.4903   -3.7016    6.0918 H   0  0  0  0  0  0  0  0  0  0  0  0
   -1.3589   -3.0735    7.7132 H   0  0  0  0  0  0  0  0  0  0  0  0
    0.0890   -3.4219    6.7765 H   0  0  0  0  0  0  0  0  0  0  0  0
   -0.4756   -0.8751    7.8963 H   0  0  0  0  0  0  0  0  0  0  0  0
   -1.7709    0.6129    6.6898 H   0  0  0  0  0  0  0  0  0  0  0  0
   -0.6146   -0.1734    4.4545 H   0  0  0  0  0  0  0  0  0  0  0  0
   -1.8381    0.9842    4.6192 H   0  0  0  0  0  0  0  0  0  0  0  0
   -0.3133    1.5830    1.4307 H   0  0  0  0  0  0  0  0  0  0  0  0
   -1.6961    1.0152    2.3350 H   0  0  0  0  0  0  0  0  0  0  0  0
   -0.2897    0.0332    2.2352 H   0  0  0  0  0  0  0  0  0  0  0  0
    0.1346    3.9226    3.2389 H   0  0  0  0  0  0  0  0  0  0  0  0
   -1.4926    3.5614    2.0135 H   0  0  0  0  0  0  0  0  0  0  0  0
   -1.3667    4.7395    4.8491 H   0  0  0  0  0  0  0  0  0  0  0  0
   -1.8021    3.1708    5.3737 H   0  0  0  0  0  0  0  0  0  0  0  0
    0.9347    4.5948    5.6163 H   0  0  0  0  0  0  0  0  0  0  0  0
   -1.0547    4.5811    7.3803 H   0  0  0  0  0  0  0  0  0  0  0  0
    2.4408    2.8074    8.4216 H   0  0  0  0  0  0  0  0  0  0  0  0
    1.2573    4.0275    8.5530 H   0  0  0  0  0  0  0  0  0  0  0  0
    2.4681    4.1298    7.3068 H   0  0  0  0  0  0  0  0  0  0  0  0
    2.8800    1.9270    6.4666 H   0  0  0  0  0  0  0  0  0  0  0  0
    2.0461    3.5326    4.4881 H   0  0  0  0  0  0  0  0  0  0  0  0
    3.8517    2.8052    3.5378 H   0  0  0  0  0  0  0  0  0  0  0  0
    1.1605    3.1494    2.0805 H   0  0  0  0  0  0  0  0  0  0  0  0
    1.7498   -0.1545    2.3582 H   0  0  0  0  0  0  0  0  0  0  0  0
    3.8606   -0.3221    2.2535 H   0  0  0  0  0  0  0  0  0  0  0  0
    2.4356   -2.6502    4.7076 H   0  0  0  0  0  0  0  0  0  0  0  0
    1.2143   -2.0722    3.5749 H   0  0  0  0  0  0  0  0  0  0  0  0
    4.0934   -2.8115    0.4979 H   0  0  0  0  0  0  0  0  0  0  0  0
    3.8813   -4.5711    0.5558 H   0  0  0  0  0  0  0  0  0  0  0  0
    5.0648   -3.7788    1.6164 H   0  0  0  0  0  0  0  0  0  0  0  0
    4.1986    0.3688    5.4642 H   0  0  0  0  0  0  0  0  0  0  0  0
    2.1250   -2.2584    7.8435 H   0  0  0  0  0  0  0  0  0  0  0  0
    3.1319   -1.0096    9.4445 H   0  0  0  0  0  0  0  0  0  0  0  0
    3.1205    1.2922    7.9120 H   0  0  0  0  0  0  0  0  0  0  0  0
    0.7216   -0.8397    9.6376 H   0  0  0  0  0  0  0  0  0  0  0  0
    1.6053    0.3557   10.4465 H   0  0  0  0  0  0  0  0  0  0  0  0
   -0.5801    0.9207    9.5073 H   0  0  0  0  0  0  0  0  0  0  0  0
    0.6690    2.0512    9.5720 H   0  0  0  0  0  0  0  0  0  0  0  0
   -2.0906    3.0408    7.3236 H   0  0  0  0  0  0  0  0  0  0  0  0
   -2.1513    1.8160    8.4547 H   0  0  0  0  0  0  0  0  0  0  0  0
   -0.4617    4.0189    8.9408 H   0  0  0  0  0  0  0  0  0  0  0  0
    1.2048   -1.6496    5.9968 H   0  0  0  0  0  0  0  0  0  0  0  0
  1  2  1  0
  1 40  1  0
  1 41  1  0
  1 42  1  0
  2  3  1  0
  3 38  1  0
  3  4  1  0
  3 43  1  1
  4 35  1  0
  4  5  1  0
  4 44  1  1
  5  6  1  0
  5 45  1  0
  5 46  1  0
  6 18  1  0
  6  7  1  6
  6  8  1  0
  7 47  1  0
  7 48  1  0
  7 49  1  0
  8  9  1  0
  8 10  1  0
  8 50  1  6
  9 51  1  0
 10 11  1  0
 10 52  1  0
 10 53  1  0
 11 12  1  0
 11 13  1  0
 11 54  1  6
 12 55  1  0
 13 35  1  0
 13 14  1  1
 13 15  1  0
 14 56  1  0
 14 57  1  0
 14 58  1  0
 15 39  1  0
 15 16  1  0
 15 59  1  1
 16 17  1  0
 16 18  1  0
 16 60  1  1
 17 61  1  0
 18 19  1  6
 18 20  1  0
 19 62  1  0
 20 21  1  0
 20 22  1  0
 20 63  1  6
 21 64  1  0
 39 22  1  6
 22 23  1  6
 22 28  1  0
 23 24  1  0
 23 65  1  0
 23 66  1  0
 24 25  1  0
 25 26  1  0
 25 27  2  0
 26 67  1  0
 26 68  1  0
 26 69  1  0
 28 39  1  0
 28 29  1  0
 28 70  1  6
 29 30  1  0
 30 31  1  0
 30 38  1  0
 30 71  1  1
 31 32  1  0
 31 33  1  0
 31 72  1  1
 32 73  1  0
 33 34  1  0
 33 74  1  0
 33 75  1  0
 34 35  1  0
 34 76  1  0
 34 77  1  0
 35 36  1  1
 36 37  1  0
 36 78  1  0
 36 79  1  0
 37 80  1  0
 38 39  1  0
 38 81  1  6
M  END
>  <i_m_ct_stereo_status>  (264) 
1

>  <s_m_source_file>  (264) 
/var/tmp/pbs.5076255.sched01/tmpy8l6melh/117u1qm2xak.sdf

>  <i_m_source_file_index>  (264) 
2

>  <i_lp_mmshare_version>  (264) 
48012

>  <i_f3d_flags>  (264) 
0

>  <s_epik_input>  (264) 
W0NAXTEyM1tDQEBIXTRbQ0BdNShbQ0gzXSlbQ0BAXTYoW0NIMl1bT0hdKVtDQEBIXTdbQ0BASF0oT1tDSDNdKVtDQEBIXTNbQ0BIXShbQ0BASF0oW09IXSlbQ0gyXVtDSDJdNilPW0NASF0yW0NAXTEoW0NIMl1PQyg9TylbQ0gzXSlbQ0BIXShbT0hdKVtDQF0oW09IXSkoW0NAQEhdNFtPSF0pW0NAXShbQ0gyXTcpKFtDSDNdKVtDQEBIXShbT0hdKVtDSDJdW0NASF01W09IXQ==

>  <s_epik_cmdline>  (264) 
J2VwaWtfcHl0aG9uJywgJy1waHQnLCAnMi4wJywgJy1waCcsICc3LjAnLCAnLXRuJywgJzgnLCAnLW1hJywgJzIwMCcsICctaW1hZScsICc8aW5maWxlLm1hZT4nLCAnLW9tYWUnLCAnPG91dGZpbGUubWFlPic=

>  <r_lp_tautomer_probability>  (264) 
1

>  <r_epik_Ionization_Penalty>  (264) 
1.65149e-06

>  <r_epik_Ionization_Penalty_Charging>  (264) 
0

>  <r_epik_Ionization_Penalty_Neutral>  (264) 
1.65149e-06

>  <r_epik_State_Penalty>  (264) 
-0

>  <r_epik_Charging_Adjusted_Penalty>  (264) 
0

>  <i_epik_Tot_Q>  (264) 
0

>  <i_epik_Tot_abs_Q>  (264) 
0

>  <s_epik_Chemistry_Notes>  (264) 
This compound has an ester and may undergo hydrolysis at high or low pH.

>  <s_lp_Force_Field>  (264) 
OPLS3e

>  <r_lp_Energy>  (264) 
260.268

>  <b_lp_Chiralities_Consistent>  (264) 
1

>  <s_lp_Variant>  (264) 
82:0-1

>  <s_i_glide_gridfile>  (264) 
pfpi4k_grid

>  <i_i_glide_lignum>  (264) 
2

>  <i_i_glide_rotatable_bonds>  (264) 
12

>  <r_i_docking_score>  (264) 
-2.22956

>  <r_i_glide_ligand_efficiency>  (264) 
-0.0571683

>  <r_i_glide_ligand_efficiency_sa>  (264) 
-0.19387

>  <r_i_glide_ligand_efficiency_ln>  (264) 
-0.478082

>  <r_i_glide_gscore>  (264) 
-2.22956

>  <r_i_glide_lipo>  (264) 
-0.0133358

>  <r_i_glide_hbond>  (264) 
-0.101028

>  <r_i_glide_metal>  (264) 
-0

>  <r_i_glide_rewards>  (264) 
-0.5

>  <r_i_glide_evdw>  (264) 
-21.056

>  <r_i_glide_ecoul>  (264) 
-4.6028

>  <r_i_glide_erotb>  (264) 
0.128715

>  <r_i_glide_esite>  (264) 
-0.000694381

>  <r_i_glide_emodel>  (264) 
-32.3311

>  <r_i_glide_energy>  (264) 
-25.6588

>  <r_i_glide_einternal>  (264) 
5.52188

>  <r_i_glide_intrahb_reward>  (264) 
-0.5

>  <i_i_glide_confnum>  (264) 
2

>  <i_i_glide_posenum>  (264) 
25

>  <r_i_glide_eff_state_penalty>  (264) 
0

>  <ligand_id>  (264) 
82

>  <original_smiles>  (264) 
COC1C2CC3(C)C(O)CC(O)C4(C)C5C(O)C3(O)C(O)C3(COC(C)=O)C6OC(C(O)CCC24CO)C1C563

>  <smiles>  (264) 
[H]OC([H])([H])C12C([H])([H])C([H])([H])C([H])(O[H])C3([H])OC4([H])C5(C([H])([H])OC(=O)C([H])([H])[H])C([H])(O[H])C6(O[H])C([H])(O[H])C7([H])C1(C([H])([H])[H])C([H])(O[H])C([H])([H])C([H])(O[H])C6(C([H])([H])[H])C([H])([H])C2([H])C([H])(OC([H])([H])[H])C3([H])C475

$$$$
83:0:0
     RDKit          3D

 56 60  0  0  1  0  0  0  0  0999 V2000
    2.9952   -2.8474   -3.8617 C   0  0  0  0  0  0  0  0  0  0  0  0
    3.9677   -2.6446   -2.7164 C   0  0  0  0  0  0  0  0  0  0  0  0
    4.6725   -3.5868   -2.1064 C   0  0  0  0  0  0  0  0  0  0  0  0
    5.5324   -3.0507   -0.9998 C   0  0  1  0  0  0  0  0  0  0  0  0
    5.2110   -1.4742   -1.0260 C   0  0  1  0  0  0  0  0  0  0  0  0
    4.1695   -1.2609   -2.1577 C   0  0  0  0  0  0  0  0  0  0  0  0
    4.9648   -0.6566    0.3202 C   0  0  0  0  0  0  0  0  0  0  0  0
    4.5164   -1.6247    1.4323 C   0  0  1  0  0  0  0  0  0  0  0  0
    3.0196   -1.8830    1.0708 C   0  0  0  0  0  0  0  0  0  0  0  0
    5.7058   -2.6115    1.3292 C   0  0  0  0  0  0  0  0  0  0  0  0
    5.4578   -3.7906    0.3824 C   0  0  2  0  0  0  0  0  0  0  0  0
    6.5164   -4.8238    0.8177 C   0  0  0  0  0  0  0  0  0  0  0  0
    6.0048   -5.2255    2.2492 C   0  0  0  0  0  0  0  0  0  0  0  0
    4.5138   -4.8637    2.1964 C   0  0  0  0  0  0  0  0  0  0  0  0
    4.2192   -4.4325    0.9799 C   0  0  0  0  0  0  0  0  0  0  0  0
    2.9262   -4.7861    0.2317 C   0  0  0  0  0  0  0  0  0  0  0  0
    3.7778   -4.1921    3.4111 C   0  0  1  0  0  0  0  0  0  0  0  0
    4.2115   -4.9702    4.6464 C   0  0  0  0  0  0  0  0  0  0  0  0
    4.8299   -4.2428    5.5851 C   0  0  0  0  0  0  0  0  0  0  0  0
    5.4176   -4.6915    6.9029 C   0  0  0  0  0  0  0  0  0  0  0  0
    4.8673   -2.8602    5.1462 C   0  0  0  0  0  0  0  0  0  0  0  0
    5.3867   -1.9152    5.7663 O   0  0  0  0  0  0  0  0  0  0  0  0
    4.0220   -2.6249    3.8850 C   0  0  2  0  0  0  0  0  0  0  0  0
    2.7189   -2.3177    4.3699 O   0  0  0  0  0  0  0  0  0  0  0  0
    4.3833   -1.3328    2.9531 C   0  0  1  0  0  0  0  0  0  0  0  0
    5.5433   -0.6324    3.3471 O   0  0  0  0  0  0  0  0  0  0  0  0
    1.9934   -2.5225   -3.5695 H   0  0  0  0  0  0  0  0  0  0  0  0
    2.9335   -3.8943   -4.1628 H   0  0  0  0  0  0  0  0  0  0  0  0
    3.3017   -2.2464   -4.7164 H   0  0  0  0  0  0  0  0  0  0  0  0
    4.6567   -4.6375   -2.3633 H   0  0  0  0  0  0  0  0  0  0  0  0
    6.5561   -3.1749   -1.3549 H   0  0  0  0  0  0  0  0  0  0  0  0
    6.1211   -1.0422   -1.4293 H   0  0  0  0  0  0  0  0  0  0  0  0
    4.5389   -0.5904   -2.9327 H   0  0  0  0  0  0  0  0  0  0  0  0
    3.2189   -0.8723   -1.7924 H   0  0  0  0  0  0  0  0  0  0  0  0
    5.8623   -0.1111    0.6161 H   0  0  0  0  0  0  0  0  0  0  0  0
    4.2012    0.1047    0.1573 H   0  0  0  0  0  0  0  0  0  0  0  0
    2.5272   -2.6493    1.6601 H   0  0  0  0  0  0  0  0  0  0  0  0
    2.8842   -2.1251    0.0241 H   0  0  0  0  0  0  0  0  0  0  0  0
    2.4134   -0.9901    1.2234 H   0  0  0  0  0  0  0  0  0  0  0  0
    6.6277   -2.1169    1.0094 H   0  0  0  0  0  0  0  0  0  0  0  0
    6.0489   -2.8547    2.3264 H   0  0  0  0  0  0  0  0  0  0  0  0
    6.4570   -5.6803    0.1511 H   0  0  0  0  0  0  0  0  0  0  0  0
    7.5391   -4.4593    0.7962 H   0  0  0  0  0  0  0  0  0  0  0  0
    6.1093   -6.2980    2.4177 H   0  0  0  0  0  0  0  0  0  0  0  0
    6.5498   -4.7275    3.0438 H   0  0  0  0  0  0  0  0  0  0  0  0
    3.0327   -5.7532   -0.2611 H   0  0  0  0  0  0  0  0  0  0  0  0
    2.6501   -4.0882   -0.5524 H   0  0  0  0  0  0  0  0  0  0  0  0
    2.0900   -4.8664    0.9237 H   0  0  0  0  0  0  0  0  0  0  0  0
    2.7127   -4.3895    3.2565 H   0  0  0  0  0  0  0  0  0  0  0  0
    4.0306   -6.0344    4.7335 H   0  0  0  0  0  0  0  0  0  0  0  0
    4.9588   -4.1498    7.7274 H   0  0  0  0  0  0  0  0  0  0  0  0
    6.4805   -4.4622    6.9102 H   0  0  0  0  0  0  0  0  0  0  0  0
    5.2928   -5.7553    7.0716 H   0  0  0  0  0  0  0  0  0  0  0  0
    2.1520   -2.1066    3.6526 H   0  0  0  0  0  0  0  0  0  0  0  0
    3.6151   -0.5759    3.0952 H   0  0  0  0  0  0  0  0  0  0  0  0
    5.4489   -0.4004    4.2570 H   0  0  0  0  0  0  0  0  0  0  0  0
  1  2  1  0
  1 27  1  0
  1 28  1  0
  1 29  1  0
  2  6  1  0
  2  3  2  0
  3  4  1  0
  3 30  1  0
  4 11  1  0
  4  5  1  0
  4 31  1  6
  5  6  1  0
  5  7  1  0
  5 32  1  6
  6 33  1  0
  6 34  1  0
  7  8  1  0
  7 35  1  0
  7 36  1  0
  8 25  1  0
  8  9  1  6
  8 10  1  0
  9 37  1  0
  9 38  1  0
  9 39  1  0
 10 11  1  0
 10 40  1  0
 10 41  1  0
 11 15  1  0
 11 12  1  6
 12 13  1  0
 12 42  1  0
 12 43  1  0
 13 14  1  0
 13 44  1  0
 13 45  1  0
 14 15  2  0
 14 17  1  0
 15 16  1  0
 16 46  1  0
 16 47  1  0
 16 48  1  0
 17 23  1  0
 17 18  1  0
 17 49  1  6
 18 19  2  0
 18 50  1  0
 19 20  1  0
 19 21  1  0
 20 51  1  0
 20 52  1  0
 20 53  1  0
 21 22  2  0
 21 23  1  0
 23 24  1  1
 23 25  1  0
 24 54  1  0
 25 26  1  0
 25 55  1  6
 26 56  1  0
M  END
>  <i_m_ct_stereo_status>  (265) 
1

>  <s_m_source_file>  (265) 
/var/tmp/pbs.5076255.sched01/tmpy8l6melh/117u1qm2xak.sdf

>  <i_m_source_file_index>  (265) 
3

>  <i_lp_mmshare_version>  (265) 
48012

>  <i_f3d_flags>  (265) 
0

>  <s_epik_input>  (265) 
W0NIM11DKD1bQ0hdMSlbQ0gyXVtDQEhdKFtDQEhdMVtDQF0yMzQpW0NIMl1bQ0BAXShbQ0gzXSkoW0NIMl0yKVtDQEhdKFtPSF0pW0NAQF01KFtPSF0pW0NAQEhdKEMoW0NIMl1bQ0gyXTMpPUM0W0NIM10pW0NIXT1DKFtDSDNdKUM1PU8=

>  <s_epik_cmdline>  (265) 
J2VwaWtfcHl0aG9uJywgJy1waHQnLCAnMi4wJywgJy1waCcsICc3LjAnLCAnLXRuJywgJzgnLCAnLW1hJywgJzIwMCcsICctaW1hZScsICc8aW5maWxlLm1hZT4nLCAnLW9tYWUnLCAnPG91dGZpbGUubWFlPic=

>  <r_lp_tautomer_probability>  (265) 
1

>  <r_epik_Ionization_Penalty>  (265) 
1.01418e-06

>  <r_epik_Ionization_Penalty_Charging>  (265) 
0

>  <r_epik_Ionization_Penalty_Neutral>  (265) 
1.01418e-06

>  <r_epik_State_Penalty>  (265) 
-0

>  <r_epik_Charging_Adjusted_Penalty>  (265) 
0

>  <i_epik_Tot_Q>  (265) 
0

>  <i_epik_Tot_abs_Q>  (265) 
0

>  <s_lp_Force_Field>  (265) 
OPLS3e

>  <r_lp_Energy>  (265) 
132.804

>  <b_lp_Chiralities_Consistent>  (265) 
1

>  <s_lp_Variant>  (265) 
83:0-1

>  <s_i_glide_gridfile>  (265) 
pfpi4k_grid

>  <i_i_glide_lignum>  (265) 
3

>  <i_i_glide_rotatable_bonds>  (265) 
2

>  <r_i_docking_score>  (265) 
-3.84954

>  <r_i_glide_ligand_efficiency>  (265) 
-0.148059

>  <r_i_glide_ligand_efficiency_sa>  (265) 
-0.438625

>  <r_i_glide_ligand_efficiency_ln>  (265) 
-0.904053

>  <r_i_glide_gscore>  (265) 
-3.84954

>  <r_i_glide_lipo>  (265) 
-0.701738

>  <r_i_glide_hbond>  (265) 
0

>  <r_i_glide_metal>  (265) 
-0

>  <r_i_glide_rewards>  (265) 
-1.52058

>  <r_i_glide_evdw>  (265) 
-28.6312

>  <r_i_glide_ecoul>  (265) 
-1.30446

>  <r_i_glide_erotb>  (265) 
0

>  <r_i_glide_esite>  (265) 
0

>  <r_i_glide_emodel>  (265) 
-41.2917

>  <r_i_glide_energy>  (265) 
-29.9357

>  <r_i_glide_einternal>  (265) 
0.349498

>  <r_i_glide_intrahb_reward>  (265) 
-0.5

>  <i_i_glide_confnum>  (265) 
1

>  <i_i_glide_posenum>  (265) 
7

>  <r_i_glide_eff_state_penalty>  (265) 
0

>  <ligand_id>  (265) 
83

>  <original_smiles>  (265) 
CC1=CC2C(C1)CC1(C)CC23CCC(=C3C)C2C=C(C)C(=O)C2(O)C1O

>  <smiles>  (265) 
[H]OC1([H])C2(O[H])C(=O)C(C([H])([H])[H])=C([H])C2([H])C2=C(C([H])([H])[H])C3(C([H])([H])C2([H])[H])C([H])([H])C1(C([H])([H])[H])C([H])([H])C1([H])C([H])([H])C(C([H])([H])[H])=C([H])C13[H]

$$$$
83:0:1
     RDKit          3D

 56 60  0  0  1  0  0  0  0  0999 V2000
    3.0686   -2.7574   -3.8419 C   0  0  0  0  0  0  0  0  0  0  0  0
    4.0003   -2.5911   -2.6569 C   0  0  0  0  0  0  0  0  0  0  0  0
    4.6492   -3.5600   -2.0233 C   0  0  0  0  0  0  0  0  0  0  0  0
    5.4789   -3.0596   -0.8773 C   0  0  1  0  0  0  0  0  0  0  0  0
    5.2137   -1.4710   -0.9044 C   0  0  1  0  0  0  0  0  0  0  0  0
    4.2221   -1.2195   -2.0739 C   0  0  0  0  0  0  0  0  0  0  0  0
    4.9398   -0.6546    0.4386 C   0  0  0  0  0  0  0  0  0  0  0  0
    4.4220   -1.6191    1.5242 C   0  0  1  0  0  0  0  0  0  0  0  0
    2.9359   -1.8293    1.1041 C   0  0  0  0  0  0  0  0  0  0  0  0
    5.5778   -2.6448    1.4606 C   0  0  0  0  0  0  0  0  0  0  0  0
    5.3270   -3.8073    0.4968 C   0  0  2  0  0  0  0  0  0  0  0  0
    6.3325   -4.8784    0.9649 C   0  0  0  0  0  0  0  0  0  0  0  0
    5.7518   -5.2723    2.3736 C   0  0  0  0  0  0  0  0  0  0  0  0
    4.2752   -4.8614    2.2655 C   0  0  0  0  0  0  0  0  0  0  0  0
    4.0448   -4.4149    1.0384 C   0  0  0  0  0  0  0  0  0  0  0  0
    2.7726   -4.7211    0.2412 C   0  0  0  0  0  0  0  0  0  0  0  0
    3.5145   -4.1716    3.4533 C   0  0  1  0  0  0  0  0  0  0  0  0
    3.8701   -4.9760    4.6964 C   0  0  0  0  0  0  0  0  0  0  0  0
    4.4772   -4.2765    5.6635 C   0  0  0  0  0  0  0  0  0  0  0  0
    4.9931   -4.7536    7.0014 C   0  0  0  0  0  0  0  0  0  0  0  0
    4.5781   -2.8894    5.2382 C   0  0  0  0  0  0  0  0  0  0  0  0
    5.0806   -1.9632    5.8939 O   0  0  0  0  0  0  0  0  0  0  0  0
    3.7951   -2.6190    3.9441 C   0  0  2  0  0  0  0  0  0  0  0  0
    2.4930   -2.2390    4.3659 O   0  0  0  0  0  0  0  0  0  0  0  0
    4.2402   -1.3333    3.0396 C   0  0  1  0  0  0  0  0  0  0  0  0
    5.4059   -0.6761    3.4917 O   0  0  0  0  0  0  0  0  0  0  0  0
    2.0689   -2.3994   -3.5866 H   0  0  0  0  0  0  0  0  0  0  0  0
    2.9837   -3.8023   -4.1473 H   0  0  0  0  0  0  0  0  0  0  0  0
    3.4202   -2.1680   -4.6893 H   0  0  0  0  0  0  0  0  0  0  0  0
    4.6156   -4.6078   -2.2889 H   0  0  0  0  0  0  0  0  0  0  0  0
    6.5118   -3.2158   -1.1914 H   0  0  0  0  0  0  0  0  0  0  0  0
    6.1516   -1.0570   -1.2631 H   0  0  0  0  0  0  0  0  0  0  0  0
    4.6404   -0.5540   -2.8279 H   0  0  0  0  0  0  0  0  0  0  0  0
    3.2707   -0.8046   -1.7417 H   0  0  0  0  0  0  0  0  0  0  0  0
    5.8412   -0.1425    0.7768 H   0  0  0  0  0  0  0  0  0  0  0  0
    4.2038    0.1255    0.2549 H   0  0  0  0  0  0  0  0  0  0  0  0
    2.3924   -2.5782    1.6726 H   0  0  0  0  0  0  0  0  0  0  0  0
    2.8298   -2.0616    0.0522 H   0  0  0  0  0  0  0  0  0  0  0  0
    2.3493   -0.9203    1.2411 H   0  0  0  0  0  0  0  0  0  0  0  0
    6.5269   -2.1786    1.1821 H   0  0  0  0  0  0  0  0  0  0  0  0
    5.8697   -2.9075    2.4690 H   0  0  0  0  0  0  0  0  0  0  0  0
    6.2737   -5.7284    0.2892 H   0  0  0  0  0  0  0  0  0  0  0  0
    7.3677   -4.5472    0.9870 H   0  0  0  0  0  0  0  0  0  0  0  0
    5.8147   -6.3483    2.5366 H   0  0  0  0  0  0  0  0  0  0  0  0
    6.2748   -4.7964    3.1979 H   0  0  0  0  0  0  0  0  0  0  0  0
    2.8671   -5.6976   -0.2304 H   0  0  0  0  0  0  0  0  0  0  0  0
    2.5542   -4.0162   -0.5552 H   0  0  0  0  0  0  0  0  0  0  0  0
    1.9060   -4.7715    0.8979 H   0  0  0  0  0  0  0  0  0  0  0  0
    2.4488   -4.3256    3.2561 H   0  0  0  0  0  0  0  0  0  0  0  0
    3.6503   -6.0341    4.7681 H   0  0  0  0  0  0  0  0  0  0  0  0
    4.5187   -4.2037    7.8118 H   0  0  0  0  0  0  0  0  0  0  0  0
    6.0618   -4.5600    7.0554 H   0  0  0  0  0  0  0  0  0  0  0  0
    4.8275   -5.8146    7.1572 H   0  0  0  0  0  0  0  0  0  0  0  0
    2.5719   -1.4054    4.7957 H   0  0  0  0  0  0  0  0  0  0  0  0
    3.4882   -0.5530    3.1438 H   0  0  0  0  0  0  0  0  0  0  0  0
    5.2815   -0.4397    4.3973 H   0  0  0  0  0  0  0  0  0  0  0  0
  1  2  1  0
  1 27  1  0
  1 28  1  0
  1 29  1  0
  2  6  1  0
  2  3  2  0
  3  4  1  0
  3 30  1  0
  4 11  1  0
  4  5  1  0
  4 31  1  6
  5  6  1  0
  5  7  1  0
  5 32  1  6
  6 33  1  0
  6 34  1  0
  7  8  1  0
  7 35  1  0
  7 36  1  0
  8 25  1  0
  8  9  1  6
  8 10  1  0
  9 37  1  0
  9 38  1  0
  9 39  1  0
 10 11  1  0
 10 40  1  0
 10 41  1  0
 11 15  1  0
 11 12  1  6
 12 13  1  0
 12 42  1  0
 12 43  1  0
 13 14  1  0
 13 44  1  0
 13 45  1  0
 14 15  2  0
 14 17  1  0
 15 16  1  0
 16 46  1  0
 16 47  1  0
 16 48  1  0
 17 23  1  0
 17 18  1  0
 17 49  1  6
 18 19  2  0
 18 50  1  0
 19 20  1  0
 19 21  1  0
 20 51  1  0
 20 52  1  0
 20 53  1  0
 21 22  2  0
 21 23  1  0
 23 24  1  1
 23 25  1  0
 24 54  1  0
 25 26  1  0
 25 55  1  6
 26 56  1  0
M  END
>  <i_m_ct_stereo_status>  (266) 
1

>  <s_m_source_file>  (266) 
/var/tmp/pbs.5076255.sched01/tmpy8l6melh/117u1qm2xak.sdf

>  <i_m_source_file_index>  (266) 
3

>  <i_lp_mmshare_version>  (266) 
48012

>  <i_f3d_flags>  (266) 
0

>  <s_epik_input>  (266) 
W0NIM11DKD1bQ0hdMSlbQ0gyXVtDQEhdKFtDQEhdMVtDQF0yMzQpW0NIMl1bQ0BAXShbQ0gzXSkoW0NIMl0yKVtDQEhdKFtPSF0pW0NAQF01KFtPSF0pW0NAQEhdKEMoW0NIMl1bQ0gyXTMpPUM0W0NIM10pW0NIXT1DKFtDSDNdKUM1PU8=

>  <s_epik_cmdline>  (266) 
J2VwaWtfcHl0aG9uJywgJy1waHQnLCAnMi4wJywgJy1waCcsICc3LjAnLCAnLXRuJywgJzgnLCAnLW1hJywgJzIwMCcsICctaW1hZScsICc8aW5maWxlLm1hZT4nLCAnLW9tYWUnLCAnPG91dGZpbGUubWFlPic=

>  <r_lp_tautomer_probability>  (266) 
1

>  <r_epik_Ionization_Penalty>  (266) 
1.01418e-06

>  <r_epik_Ionization_Penalty_Charging>  (266) 
0

>  <r_epik_Ionization_Penalty_Neutral>  (266) 
1.01418e-06

>  <r_epik_State_Penalty>  (266) 
-0

>  <r_epik_Charging_Adjusted_Penalty>  (266) 
0

>  <i_epik_Tot_Q>  (266) 
0

>  <i_epik_Tot_abs_Q>  (266) 
0

>  <s_lp_Force_Field>  (266) 
OPLS3e

>  <r_lp_Energy>  (266) 
132.804

>  <b_lp_Chiralities_Consistent>  (266) 
1

>  <s_lp_Variant>  (266) 
83:0-1

>  <s_i_glide_gridfile>  (266) 
pfpi4k_grid

>  <i_i_glide_lignum>  (266) 
3

>  <i_i_glide_rotatable_bonds>  (266) 
2

>  <r_i_docking_score>  (266) 
-3.6101

>  <r_i_glide_ligand_efficiency>  (266) 
-0.13885

>  <r_i_glide_ligand_efficiency_sa>  (266) 
-0.411343

>  <r_i_glide_ligand_efficiency_ln>  (266) 
-0.847821

>  <r_i_glide_gscore>  (266) 
-3.6101

>  <r_i_glide_lipo>  (266) 
-0.653933

>  <r_i_glide_hbond>  (266) 
0

>  <r_i_glide_metal>  (266) 
-0

>  <r_i_glide_rewards>  (266) 
-1.50827

>  <r_i_glide_evdw>  (266) 
-28.3776

>  <r_i_glide_ecoul>  (266) 
-0.193508

>  <r_i_glide_erotb>  (266) 
0

>  <r_i_glide_esite>  (266) 
0

>  <r_i_glide_emodel>  (266) 
-38.7744

>  <r_i_glide_energy>  (266) 
-28.5711

>  <r_i_glide_einternal>  (266) 
1.99352

>  <r_i_glide_intrahb_reward>  (266) 
-0.5

>  <i_i_glide_confnum>  (266) 
1

>  <i_i_glide_posenum>  (266) 
15

>  <r_i_glide_eff_state_penalty>  (266) 
0

>  <ligand_id>  (266) 
83

>  <original_smiles>  (266) 
CC1=CC2C(C1)CC1(C)CC23CCC(=C3C)C2C=C(C)C(=O)C2(O)C1O

>  <smiles>  (266) 
[H]OC1([H])C2(O[H])C(=O)C(C([H])([H])[H])=C([H])C2([H])C2=C(C([H])([H])[H])C3(C([H])([H])C2([H])[H])C([H])([H])C1(C([H])([H])[H])C([H])([H])C1([H])C([H])([H])C(C([H])([H])[H])=C([H])C13[H]

$$$$
83:0:2
     RDKit          3D

 56 60  0  0  1  0  0  0  0  0999 V2000
    2.9874   -2.8547   -3.8642 C   0  0  0  0  0  0  0  0  0  0  0  0
    3.9622   -2.6488   -2.7218 C   0  0  0  0  0  0  0  0  0  0  0  0
    4.6685   -3.5897   -2.1127 C   0  0  0  0  0  0  0  0  0  0  0  0
    5.5296   -3.0518   -1.0084 C   0  0  1  0  0  0  0  0  0  0  0  0
    5.2091   -1.4744   -1.0374 C   0  0  1  0  0  0  0  0  0  0  0  0
    4.1653   -1.2637   -2.1676 C   0  0  0  0  0  0  0  0  0  0  0  0
    4.9633   -0.6565    0.3085 C   0  0  0  0  0  0  0  0  0  0  0  0
    4.5174   -1.6237    1.4222 C   0  0  1  0  0  0  0  0  0  0  0  0
    3.0226   -1.8824    1.0632 C   0  0  0  0  0  0  0  0  0  0  0  0
    5.7067   -2.6108    1.3175 C   0  0  0  0  0  0  0  0  0  0  0  0
    5.4556   -3.7906    0.3746 C   0  0  2  0  0  0  0  0  0  0  0  0
    6.5140   -4.8238    0.8113 C   0  0  0  0  0  0  0  0  0  0  0  0
    6.0013   -5.2244    2.2435 C   0  0  0  0  0  0  0  0  0  0  0  0
    4.5115   -4.8615    2.1912 C   0  0  0  0  0  0  0  0  0  0  0  0
    4.2171   -4.4316    0.9745 C   0  0  0  0  0  0  0  0  0  0  0  0
    2.9231   -4.7855    0.2278 C   0  0  0  0  0  0  0  0  0  0  0  0
    3.7803   -4.1863    3.4076 C   0  0  1  0  0  0  0  0  0  0  0  0
    4.2115   -4.9647    4.6436 C   0  0  0  0  0  0  0  0  0  0  0  0
    4.8297   -4.2373    5.5816 C   0  0  0  0  0  0  0  0  0  0  0  0
    5.4219   -4.6822    6.8988 C   0  0  0  0  0  0  0  0  0  0  0  0
    4.8712   -2.8559    5.1441 C   0  0  0  0  0  0  0  0  0  0  0  0
    5.4074   -1.9251    5.7662 O   0  0  0  0  0  0  0  0  0  0  0  0
    4.0281   -2.6180    3.8799 C   0  0  2  0  0  0  0  0  0  0  0  0
    2.7191   -2.3205    4.3617 O   0  0  0  0  0  0  0  0  0  0  0  0
    4.3964   -1.3275    2.9417 C   0  0  1  0  0  0  0  0  0  0  0  0
    5.5719   -0.6212    3.2879 O   0  0  0  0  0  0  0  0  0  0  0  0
    1.9858   -2.5269   -3.5742 H   0  0  0  0  0  0  0  0  0  0  0  0
    2.9251   -3.9018   -4.1659 H   0  0  0  0  0  0  0  0  0  0  0  0
    3.2959   -2.2543   -4.7177 H   0  0  0  0  0  0  0  0  0  0  0  0
    4.6520   -4.6407   -2.3669 H   0  0  0  0  0  0  0  0  0  0  0  0
    6.5529   -3.1771   -1.3637 H   0  0  0  0  0  0  0  0  0  0  0  0
    6.1190   -1.0429   -1.4426 H   0  0  0  0  0  0  0  0  0  0  0  0
    4.5336   -0.5945   -2.9445 H   0  0  0  0  0  0  0  0  0  0  0  0
    3.2158   -0.8739   -1.8005 H   0  0  0  0  0  0  0  0  0  0  0  0
    5.8609   -0.1084    0.6001 H   0  0  0  0  0  0  0  0  0  0  0  0
    4.2005    0.1059    0.1453 H   0  0  0  0  0  0  0  0  0  0  0  0
    2.5293   -2.6471    1.6543 H   0  0  0  0  0  0  0  0  0  0  0  0
    2.8830   -2.1252    0.0168 H   0  0  0  0  0  0  0  0  0  0  0  0
    2.4165   -0.9893    1.2160 H   0  0  0  0  0  0  0  0  0  0  0  0
    6.6282   -2.1173    0.9941 H   0  0  0  0  0  0  0  0  0  0  0  0
    6.0500   -2.8586    2.3125 H   0  0  0  0  0  0  0  0  0  0  0  0
    6.4535   -5.6807    0.1445 H   0  0  0  0  0  0  0  0  0  0  0  0
    7.5374   -4.4598    0.7884 H   0  0  0  0  0  0  0  0  0  0  0  0
    6.1078   -6.2958    2.4147 H   0  0  0  0  0  0  0  0  0  0  0  0
    6.5367   -4.7234    3.0416 H   0  0  0  0  0  0  0  0  0  0  0  0
    3.0266   -5.7534   -0.2636 H   0  0  0  0  0  0  0  0  0  0  0  0
    2.6471   -4.0882   -0.5563 H   0  0  0  0  0  0  0  0  0  0  0  0
    2.0882   -4.8634    0.9221 H   0  0  0  0  0  0  0  0  0  0  0  0
    2.7147   -4.3833    3.2533 H   0  0  0  0  0  0  0  0  0  0  0  0
    4.0316   -6.0291    4.7308 H   0  0  0  0  0  0  0  0  0  0  0  0
    4.9653   -4.1370    7.7226 H   0  0  0  0  0  0  0  0  0  0  0  0
    6.4849   -4.4508    6.9028 H   0  0  0  0  0  0  0  0  0  0  0  0
    5.2982   -5.7458    7.0700 H   0  0  0  0  0  0  0  0  0  0  0  0
    2.1559   -2.0940    3.6468 H   0  0  0  0  0  0  0  0  0  0  0  0
    3.6278   -0.5703    3.0916 H   0  0  0  0  0  0  0  0  0  0  0  0
    6.3149   -1.1894    3.2256 H   0  0  0  0  0  0  0  0  0  0  0  0
  1  2  1  0
  1 27  1  0
  1 28  1  0
  1 29  1  0
  2  6  1  0
  2  3  2  0
  3  4  1  0
  3 30  1  0
  4 11  1  0
  4  5  1  0
  4 31  1  6
  5  6  1  0
  5  7  1  0
  5 32  1  6
  6 33  1  0
  6 34  1  0
  7  8  1  0
  7 35  1  0
  7 36  1  0
  8 25  1  0
  8  9  1  6
  8 10  1  0
  9 37  1  0
  9 38  1  0
  9 39  1  0
 10 11  1  0
 10 40  1  0
 10 41  1  0
 11 15  1  0
 11 12  1  6
 12 13  1  0
 12 42  1  0
 12 43  1  0
 13 14  1  0
 13 44  1  0
 13 45  1  0
 14 15  2  0
 14 17  1  0
 15 16  1  0
 16 46  1  0
 16 47  1  0
 16 48  1  0
 17 23  1  0
 17 18  1  0
 17 49  1  6
 18 19  2  0
 18 50  1  0
 19 20  1  0
 19 21  1  0
 20 51  1  0
 20 52  1  0
 20 53  1  0
 21 22  2  0
 21 23  1  0
 23 24  1  1
 23 25  1  0
 24 54  1  0
 25 26  1  0
 25 55  1  6
 26 56  1  0
M  END
>  <i_m_ct_stereo_status>  (267) 
1

>  <s_m_source_file>  (267) 
/var/tmp/pbs.5076255.sched01/tmpy8l6melh/117u1qm2xak.sdf

>  <i_m_source_file_index>  (267) 
3

>  <i_lp_mmshare_version>  (267) 
48012

>  <i_f3d_flags>  (267) 
0

>  <s_epik_input>  (267) 
W0NIM11DKD1bQ0hdMSlbQ0gyXVtDQEhdKFtDQEhdMVtDQF0yMzQpW0NIMl1bQ0BAXShbQ0gzXSkoW0NIMl0yKVtDQEhdKFtPSF0pW0NAQF01KFtPSF0pW0NAQEhdKEMoW0NIMl1bQ0gyXTMpPUM0W0NIM10pW0NIXT1DKFtDSDNdKUM1PU8=

>  <s_epik_cmdline>  (267) 
J2VwaWtfcHl0aG9uJywgJy1waHQnLCAnMi4wJywgJy1waCcsICc3LjAnLCAnLXRuJywgJzgnLCAnLW1hJywgJzIwMCcsICctaW1hZScsICc8aW5maWxlLm1hZT4nLCAnLW9tYWUnLCAnPG91dGZpbGUubWFlPic=

>  <r_lp_tautomer_probability>  (267) 
1

>  <r_epik_Ionization_Penalty>  (267) 
1.01418e-06

>  <r_epik_Ionization_Penalty_Charging>  (267) 
0

>  <r_epik_Ionization_Penalty_Neutral>  (267) 
1.01418e-06

>  <r_epik_State_Penalty>  (267) 
-0

>  <r_epik_Charging_Adjusted_Penalty>  (267) 
0

>  <i_epik_Tot_Q>  (267) 
0

>  <i_epik_Tot_abs_Q>  (267) 
0

>  <s_lp_Force_Field>  (267) 
OPLS3e

>  <r_lp_Energy>  (267) 
132.804

>  <b_lp_Chiralities_Consistent>  (267) 
1

>  <s_lp_Variant>  (267) 
83:0-1

>  <s_i_glide_gridfile>  (267) 
pfpi4k_grid

>  <i_i_glide_lignum>  (267) 
3

>  <i_i_glide_rotatable_bonds>  (267) 
2

>  <r_i_docking_score>  (267) 
-3.35331

>  <r_i_glide_ligand_efficiency>  (267) 
-0.128973

>  <r_i_glide_ligand_efficiency_sa>  (267) 
-0.382083

>  <r_i_glide_ligand_efficiency_ln>  (267) 
-0.787513

>  <r_i_glide_gscore>  (267) 
-3.35331

>  <r_i_glide_lipo>  (267) 
-0.69902

>  <r_i_glide_hbond>  (267) 
0

>  <r_i_glide_metal>  (267) 
-0

>  <r_i_glide_rewards>  (267) 
-1.02083

>  <r_i_glide_evdw>  (267) 
-28.6848

>  <r_i_glide_ecoul>  (267) 
-1.32813

>  <r_i_glide_erotb>  (267) 
0

>  <r_i_glide_esite>  (267) 
0

>  <r_i_glide_emodel>  (267) 
-35.6386

>  <r_i_glide_energy>  (267) 
-30.0129

>  <r_i_glide_einternal>  (267) 
0.0425989

>  <r_i_glide_intrahb_reward>  (267) 
-0

>  <i_i_glide_confnum>  (267) 
1

>  <i_i_glide_posenum>  (267) 
17

>  <r_i_glide_eff_state_penalty>  (267) 
0

>  <ligand_id>  (267) 
83

>  <original_smiles>  (267) 
CC1=CC2C(C1)CC1(C)CC23CCC(=C3C)C2C=C(C)C(=O)C2(O)C1O

>  <smiles>  (267) 
[H]OC1([H])C2(O[H])C(=O)C(C([H])([H])[H])=C([H])C2([H])C2=C(C([H])([H])[H])C3(C([H])([H])C2([H])[H])C([H])([H])C1(C([H])([H])[H])C([H])([H])C1([H])C([H])([H])C(C([H])([H])[H])=C([H])C13[H]

$$$$
84:0:0
     RDKit          3D

 61 66  0  0  1  0  0  0  0  0999 V2000
    2.5897   -2.5020   -3.4900 C   0  0  0  0  0  0  0  0  0  0  0  0
    3.0557   -3.2738   -2.2373 C   0  0  2  0  0  0  0  0  0  0  0  0
    2.2624   -2.8539   -0.9502 O   0  0  0  0  0  0  0  0  0  0  0  0
    2.5641   -2.6689    0.5719 C   0  0  0  0  0  0  0  0  0  0  0  0
    3.9258   -2.0120    1.3986 C   0  0  1  0  0  0  0  0  0  0  0  0
    3.6051   -0.4409    1.6168 C   0  0  1  0  0  0  0  0  0  0  0  0
    2.3768    0.0640    1.1125 O   0  0  0  0  0  0  0  0  0  0  0  0
    3.5806    0.1688    3.0206 C   0  0  0  0  0  0  0  0  0  0  0  0
    2.9276   -0.7607    4.0175 C   0  0  0  0  0  0  0  0  0  0  0  0
    3.7877   -2.0120    4.2066 C   0  0  0  0  0  0  0  0  0  0  0  0
    5.1303   -1.5887    4.8467 C   0  0  0  0  0  0  0  0  0  0  0  0
    3.0266   -2.8592    5.2602 C   0  0  0  0  0  0  0  0  0  0  0  0
    3.9021   -2.7919    2.8347 C   0  0  2  0  0  0  0  0  0  0  0  0
    4.8048   -4.0904    3.0419 C   0  0  1  0  0  0  0  0  0  0  0  0
    4.1064   -5.3178    2.9577 O   0  0  0  0  0  0  0  0  0  0  0  0
    6.0705   -4.0812    2.4679 O   0  0  0  0  0  0  0  0  0  0  0  0
    6.3083   -4.4484    1.1242 C   0  0  0  0  0  0  0  0  0  0  0  0
    5.9109   -3.3659    0.0976 C   0  0  1  0  0  0  0  0  0  0  0  0
    6.8646   -3.2535   -0.9387 O   0  0  0  0  0  0  0  0  0  0  0  0
    6.0387   -2.5538   -1.8246 C   0  0  1  0  0  0  0  0  0  0  0  0
    4.7442   -3.4949   -2.1519 C   0  0  1  0  0  0  0  0  0  0  0  0
    4.6804   -3.4164   -0.7700 C   0  0  1  0  0  0  0  0  0  0  0  0
    3.9644   -4.7930   -0.3279 C   0  0  0  0  0  0  0  0  0  0  0  0
    4.4330   -1.7061   -1.1082 C   0  0  0  0  0  0  0  0  0  0  0  0
    5.6890   -1.4438   -0.7537 C   0  0  1  0  0  0  0  0  0  0  0  0
    5.4829   -2.0224    0.6717 C   0  0  1  0  0  0  0  0  0  0  0  0
    6.5321   -1.3588    1.5201 C   0  0  0  0  0  0  0  0  0  0  0  0
    3.1490   -2.8130   -4.3772 H   0  0  0  0  0  0  0  0  0  0  0  0
    2.6448   -1.4174   -3.4181 H   0  0  0  0  0  0  0  0  0  0  0  0
    1.5395   -2.7418   -3.6952 H   0  0  0  0  0  0  0  0  0  0  0  0
    2.5938   -4.2285   -2.4660 H   0  0  0  0  0  0  0  0  0  0  0  0
    1.6998   -2.1393    0.9425 H   0  0  0  0  0  0  0  0  0  0  0  0
    2.2879   -3.6281    1.0073 H   0  0  0  0  0  0  0  0  0  0  0  0
    4.3593    0.1423    1.0861 H   0  0  0  0  0  0  0  0  0  0  0  0
    2.0600   -0.4237    0.3526 H   0  0  0  0  0  0  0  0  0  0  0  0
    4.5753    0.4662    3.3384 H   0  0  0  0  0  0  0  0  0  0  0  0
    3.0319    1.1133    3.0117 H   0  0  0  0  0  0  0  0  0  0  0  0
    2.7789   -0.2467    4.9716 H   0  0  0  0  0  0  0  0  0  0  0  0
    1.9373   -1.0318    3.6538 H   0  0  0  0  0  0  0  0  0  0  0  0
    5.7096   -2.4298    5.2196 H   0  0  0  0  0  0  0  0  0  0  0  0
    4.9666   -0.9252    5.7028 H   0  0  0  0  0  0  0  0  0  0  0  0
    5.7716   -1.0498    4.1597 H   0  0  0  0  0  0  0  0  0  0  0  0
    3.5567   -3.7681    5.5351 H   0  0  0  0  0  0  0  0  0  0  0  0
    2.0354   -3.1485    4.9108 H   0  0  0  0  0  0  0  0  0  0  0  0
    2.8862   -2.2882    6.1843 H   0  0  0  0  0  0  0  0  0  0  0  0
    2.9018   -3.2145    2.8576 H   0  0  0  0  0  0  0  0  0  0  0  0
    5.1363   -4.1002    4.0744 H   0  0  0  0  0  0  0  0  0  0  0  0
    4.5829   -5.9573    3.4634 H   0  0  0  0  0  0  0  0  0  0  0  0
    7.3951   -4.4776    1.0797 H   0  0  0  0  0  0  0  0  0  0  0  0
    6.0298   -5.4774    0.8940 H   0  0  0  0  0  0  0  0  0  0  0  0
    6.5909   -2.2534   -2.7169 H   0  0  0  0  0  0  0  0  0  0  0  0
    5.0540   -4.4618   -2.5644 H   0  0  0  0  0  0  0  0  0  0  0  0
    2.9487   -5.0302   -0.6100 H   0  0  0  0  0  0  0  0  0  0  0  0
    3.8949   -4.9048    0.7437 H   0  0  0  0  0  0  0  0  0  0  0  0
    4.5340   -5.6436   -0.6860 H   0  0  0  0  0  0  0  0  0  0  0  0
    4.3420   -1.2670   -2.1301 H   0  0  0  0  0  0  0  0  0  0  0  0
    3.6982   -1.0291   -0.6994 H   0  0  0  0  0  0  0  0  0  0  0  0
    5.9558   -0.3919   -0.8615 H   0  0  0  0  0  0  0  0  0  0  0  0
    7.5218   -1.3640    1.0172 H   0  0  0  0  0  0  0  0  0  0  0  0
    6.5888   -1.9055    2.4372 H   0  0  0  0  0  0  0  0  0  0  0  0
    6.3064   -0.3392    1.8059 H   0  0  0  0  0  0  0  0  0  0  0  0
  1  2  1  0
  1 28  1  0
  1 29  1  0
  1 30  1  0
  2 21  1  0
  2  3  1  0
  2 31  1  6
  3  4  1  0
  5  4  1  6
  4 32  1  0
  4 33  1  0
  5 13  1  0
  5 26  1  0
  5  6  1  0
  6  7  1  0
  6  8  1  0
  6 34  1  6
  7 35  1  0
  8  9  1  0
  8 36  1  0
  8 37  1  0
  9 10  1  0
  9 38  1  0
  9 39  1  0
 10 11  1  0
 10 12  1  0
 10 13  1  0
 11 40  1  0
 11 41  1  0
 11 42  1  0
 12 43  1  0
 12 44  1  0
 12 45  1  0
 13 14  1  0
 13 46  1  6
 14 15  1  0
 14 16  1  0
 14 47  1  1
 15 48  1  0
 16 17  1  0
 18 17  1  1
 17 49  1  0
 17 50  1  0
 18 22  1  0
 18 26  1  0
 18 19  1  0
 19 20  1  0
 20 25  1  0
 20 21  1  0
 20 51  1  6
 21 22  1  0
 21 52  1  1
 22 23  1  1
 22 24  1  0
 23 53  1  0
 23 54  1  0
 23 55  1  0
 24 25  1  0
 24 56  1  0
 24 57  1  0
 25 26  1  0
 25 58  1  1
 26 27  1  1
 27 59  1  0
 27 60  1  0
 27 61  1  0
M  END
>  <i_m_ct_stereo_status>  (268) 
1

>  <s_m_source_file>  (268) 
/var/tmp/pbs.5076255.sched01/tmpy8l6melh/117u1qm2xak.sdf

>  <i_m_source_file_index>  (268) 
4

>  <i_lp_mmshare_version>  (268) 
48012

>  <i_f3d_flags>  (268) 
0

>  <s_epik_input>  (268) 
W0NIM11bQ0BdMTJbQ0BIXShbQ0gyXTMpW0NAQEhdKE80KVtDQEhdKFtDQEhdKFtDSDNdKU9bQ0gyXTUpW0NAQF0zKFtDSDNdKVtDQF0yNFtDSDJdT1tDQEhdKFtPSF0pW0NASF0oW0NAQF0xNTYpQyhbQ0gzXSkoW0NIM10pW0NIMl1bQ0gyXVtDQEBIXTZbT0hd

>  <s_epik_cmdline>  (268) 
J2VwaWtfcHl0aG9uJywgJy1waHQnLCAnMi4wJywgJy1waCcsICc3LjAnLCAnLXRuJywgJzgnLCAnLW1hJywgJzIwMCcsICctaW1hZScsICc8aW5maWxlLm1hZT4nLCAnLW9tYWUnLCAnPG91dGZpbGUubWFlPic=

>  <r_lp_tautomer_probability>  (268) 
1

>  <r_epik_Ionization_Penalty>  (268) 
2.94164e-07

>  <r_epik_Ionization_Penalty_Charging>  (268) 
0

>  <r_epik_Ionization_Penalty_Neutral>  (268) 
2.94164e-07

>  <r_epik_State_Penalty>  (268) 
-0

>  <r_epik_Charging_Adjusted_Penalty>  (268) 
0

>  <i_epik_Tot_Q>  (268) 
0

>  <i_epik_Tot_abs_Q>  (268) 
0

>  <s_epik_Chemistry_Notes>  (268) 
This compound contains an acetal/aminal-like group ( X-CH(R)-Y where X, Y are N, S, or O) that may be acid/base labile, releasing an aldehyde.

>  <s_lp_Force_Field>  (268) 
OPLS3e

>  <r_lp_Energy>  (268) 
421.656

>  <b_lp_Chiralities_Consistent>  (268) 
1

>  <s_lp_Variant>  (268) 
84:0-1

>  <s_i_glide_gridfile>  (268) 
pfpi4k_grid

>  <i_i_glide_lignum>  (268) 
4

>  <i_i_glide_rotatable_bonds>  (268) 
2

>  <r_i_docking_score>  (268) 
-2.87852

>  <r_i_glide_ligand_efficiency>  (268) 
-0.106612

>  <r_i_glide_ligand_efficiency_sa>  (268) 
-0.319836

>  <r_i_glide_ligand_efficiency_ln>  (268) 
-0.670073

>  <r_i_glide_gscore>  (268) 
-2.87852

>  <r_i_glide_lipo>  (268) 
-0.673753

>  <r_i_glide_hbond>  (268) 
-0.16

>  <r_i_glide_metal>  (268) 
-0

>  <r_i_glide_rewards>  (268) 
-0.852706

>  <r_i_glide_evdw>  (268) 
-15.4682

>  <r_i_glide_ecoul>  (268) 
-2.79104

>  <r_i_glide_erotb>  (268) 
0

>  <r_i_glide_esite>  (268) 
0

>  <r_i_glide_emodel>  (268) 
-18.6062

>  <r_i_glide_energy>  (268) 
-18.2592

>  <r_i_glide_einternal>  (268) 
1.87012

>  <r_i_glide_intrahb_reward>  (268) 
-0

>  <i_i_glide_confnum>  (268) 
2

>  <i_i_glide_posenum>  (268) 
8

>  <r_i_glide_eff_state_penalty>  (268) 
0

>  <ligand_id>  (268) 
84

>  <original_smiles>  (268) 
CC1OCC23C(O)CCC(C)(C)C2C(O)OCC24OC5C1C2(C)CC5C34C

>  <smiles>  (268) 
[H]OC1([H])OC([H])([H])C23OC4([H])C5([H])C([H])(C([H])([H])[H])OC([H])([H])C6(C([H])(O[H])C([H])([H])C([H])([H])C(C([H])([H])[H])(C([H])([H])[H])C16[H])C2(C([H])([H])[H])C4([H])C([H])([H])C53C([H])([H])[H]

$$$$
84:0:1
     RDKit          3D

 61 66  0  0  1  0  0  0  0  0999 V2000
    2.3398   -2.2971   -3.2175 C   0  0  0  0  0  0  0  0  0  0  0  0
    3.2300   -3.0626   -2.2412 C   0  0  2  0  0  0  0  0  0  0  0  0
    2.4002   -3.4702   -0.9527 O   0  0  0  0  0  0  0  0  0  0  0  0
    2.7898   -3.7985    0.5362 C   0  0  0  0  0  0  0  0  0  0  0  0
    3.7739   -2.9192    1.6589 C   0  0  1  0  0  0  0  0  0  0  0  0
    2.7724   -1.8884    2.4091 C   0  0  1  0  0  0  0  0  0  0  0  0
    1.4356   -1.8386    1.9394 O   0  0  0  0  0  0  0  0  0  0  0  0
    2.5956   -1.9386    3.9284 C   0  0  0  0  0  0  0  0  0  0  0  0
    2.6055   -3.3561    4.4560 C   0  0  0  0  0  0  0  0  0  0  0  0
    3.9817   -3.9898    4.2508 C   0  0  0  0  0  0  0  0  0  0  0  0
    5.0235   -3.2142    5.1010 C   0  0  0  0  0  0  0  0  0  0  0  0
    3.8600   -5.4121    4.8596 C   0  0  0  0  0  0  0  0  0  0  0  0
    4.2725   -4.0851    2.6942 C   0  0  2  0  0  0  0  0  0  0  0  0
    5.6859   -4.7428    2.4738 C   0  0  1  0  0  0  0  0  0  0  0  0
    5.6875   -6.0460    1.9110 O   0  0  0  0  0  0  0  0  0  0  0  0
    6.6800   -3.9002    2.0444 O   0  0  0  0  0  0  0  0  0  0  0  0
    6.9844   -3.5819    0.6985 C   0  0  0  0  0  0  0  0  0  0  0  0
    6.0050   -2.5405    0.1223 C   0  0  1  0  0  0  0  0  0  0  0  0
    6.6357   -1.6030   -0.7215 O   0  0  0  0  0  0  0  0  0  0  0  0
    5.4698   -1.1149   -1.3387 C   0  0  1  0  0  0  0  0  0  0  0  0
    4.7970   -2.4053   -2.0990 C   0  0  1  0  0  0  0  0  0  0  0  0
    4.8657   -2.8638   -0.7923 C   0  0  1  0  0  0  0  0  0  0  0  0
    4.9740   -4.4476   -0.9464 C   0  0  0  0  0  0  0  0  0  0  0  0
    3.7968   -1.5106   -0.5073 C   0  0  0  0  0  0  0  0  0  0  0  0
    4.7850   -0.8125    0.0461 C   0  0  1  0  0  0  0  0  0  0  0  0
    5.0586   -1.8966    1.1326 C   0  0  1  0  0  0  0  0  0  0  0  0
    5.7922   -1.1473    2.2559 C   0  0  0  0  0  0  0  0  0  0  0  0
    2.8911   -1.9302   -4.0859 H   0  0  0  0  0  0  0  0  0  0  0  0
    1.8626   -1.4607   -2.7305 H   0  0  0  0  0  0  0  0  0  0  0  0
    1.5243   -2.9229   -3.5782 H   0  0  0  0  0  0  0  0  0  0  0  0
    3.3724   -3.9369   -2.8542 H   0  0  0  0  0  0  0  0  0  0  0  0
    1.8631   -3.9828    1.0569 H   0  0  0  0  0  0  0  0  0  0  0  0
    3.0892   -4.8416    0.4965 H   0  0  0  0  0  0  0  0  0  0  0  0
    3.1108   -0.8705    2.2159 H   0  0  0  0  0  0  0  0  0  0  0  0
    1.4142   -1.4555    1.0644 H   0  0  0  0  0  0  0  0  0  0  0  0
    3.3511   -1.3312    4.4114 H   0  0  0  0  0  0  0  0  0  0  0  0
    1.6560   -1.4619    4.2110 H   0  0  0  0  0  0  0  0  0  0  0  0
    2.3331   -3.3618    5.5154 H   0  0  0  0  0  0  0  0  0  0  0  0
    1.8446   -3.9347    3.9356 H   0  0  0  0  0  0  0  0  0  0  0  0
    5.9781   -3.7305    5.1919 H   0  0  0  0  0  0  0  0  0  0  0  0
    4.6575   -3.0761    6.1215 H   0  0  0  0  0  0  0  0  0  0  0  0
    5.2403   -2.2244    4.7184 H   0  0  0  0  0  0  0  0  0  0  0  0
    4.7945   -5.9724    4.8254 H   0  0  0  0  0  0  0  0  0  0  0  0
    3.1061   -6.0086    4.3456 H   0  0  0  0  0  0  0  0  0  0  0  0
    3.5667   -5.3621    5.9096 H   0  0  0  0  0  0  0  0  0  0  0  0
    3.6051   -4.9069    2.4704 H   0  0  0  0  0  0  0  0  0  0  0  0
    6.1287   -4.9495    3.4413 H   0  0  0  0  0  0  0  0  0  0  0  0
    5.3860   -6.0006    1.0286 H   0  0  0  0  0  0  0  0  0  0  0  0
    7.9338   -3.0623    0.7797 H   0  0  0  0  0  0  0  0  0  0  0  0
    7.2439   -4.4495    0.0856 H   0  0  0  0  0  0  0  0  0  0  0  0
    5.6200   -0.2507   -1.9802 H   0  0  0  0  0  0  0  0  0  0  0  0
    5.4936   -2.8628   -2.7998 H   0  0  0  0  0  0  0  0  0  0  0  0
    4.2193   -5.0524   -1.4090 H   0  0  0  0  0  0  0  0  0  0  0  0
    5.1058   -4.9602   -0.0208 H   0  0  0  0  0  0  0  0  0  0  0  0
    5.8428   -4.6470   -1.5582 H   0  0  0  0  0  0  0  0  0  0  0  0
    3.3484   -0.8803   -1.3039 H   0  0  0  0  0  0  0  0  0  0  0  0
    2.8939   -1.4806    0.0662 H   0  0  0  0  0  0  0  0  0  0  0  0
    4.5231    0.2055    0.3259 H   0  0  0  0  0  0  0  0  0  0  0  0
    6.5772   -0.5111    1.8502 H   0  0  0  0  0  0  0  0  0  0  0  0
    6.2740   -1.8439    2.9149 H   0  0  0  0  0  0  0  0  0  0  0  0
    5.1428   -0.5315    2.8765 H   0  0  0  0  0  0  0  0  0  0  0  0
  1  2  1  0
  1 28  1  0
  1 29  1  0
  1 30  1  0
  2 21  1  0
  2  3  1  0
  2 31  1  6
  3  4  1  0
  5  4  1  6
  4 32  1  0
  4 33  1  0
  5 13  1  0
  5 26  1  0
  5  6  1  0
  6  7  1  0
  6  8  1  0
  6 34  1  1
  7 35  1  0
  8  9  1  0
  8 36  1  0
  8 37  1  0
  9 10  1  0
  9 38  1  0
  9 39  1  0
 10 11  1  0
 10 12  1  0
 10 13  1  0
 11 40  1  0
 11 41  1  0
 11 42  1  0
 12 43  1  0
 12 44  1  0
 12 45  1  0
 13 14  1  0
 13 46  1  6
 14 15  1  0
 14 16  1  0
 14 47  1  1
 15 48  1  0
 16 17  1  0
 18 17  1  1
 17 49  1  0
 17 50  1  0
 18 22  1  0
 18 26  1  0
 18 19  1  0
 19 20  1  0
 20 25  1  0
 20 21  1  0
 20 51  1  6
 21 22  1  0
 21 52  1  6
 22 23  1  6
 22 24  1  0
 23 53  1  0
 23 54  1  0
 23 55  1  0
 24 25  1  0
 24 56  1  0
 24 57  1  0
 25 26  1  0
 25 58  1  1
 26 27  1  1
 27 59  1  0
 27 60  1  0
 27 61  1  0
M  END
>  <i_m_ct_stereo_status>  (269) 
1

>  <s_m_source_file>  (269) 
/var/tmp/pbs.5076255.sched01/tmpy8l6melh/117u1qm2xak.sdf

>  <i_m_source_file_index>  (269) 
4

>  <i_lp_mmshare_version>  (269) 
48012

>  <i_f3d_flags>  (269) 
0

>  <s_epik_input>  (269) 
W0NIM11bQ0BdMTJbQ0BIXShbQ0gyXTMpW0NAQEhdKE80KVtDQEhdKFtDQEhdKFtDSDNdKU9bQ0gyXTUpW0NAQF0zKFtDSDNdKVtDQF0yNFtDSDJdT1tDQEhdKFtPSF0pW0NASF0oW0NAQF0xNTYpQyhbQ0gzXSkoW0NIM10pW0NIMl1bQ0gyXVtDQEBIXTZbT0hd

>  <s_epik_cmdline>  (269) 
J2VwaWtfcHl0aG9uJywgJy1waHQnLCAnMi4wJywgJy1waCcsICc3LjAnLCAnLXRuJywgJzgnLCAnLW1hJywgJzIwMCcsICctaW1hZScsICc8aW5maWxlLm1hZT4nLCAnLW9tYWUnLCAnPG91dGZpbGUubWFlPic=

>  <r_lp_tautomer_probability>  (269) 
1

>  <r_epik_Ionization_Penalty>  (269) 
2.94164e-07

>  <r_epik_Ionization_Penalty_Charging>  (269) 
0

>  <r_epik_Ionization_Penalty_Neutral>  (269) 
2.94164e-07

>  <r_epik_State_Penalty>  (269) 
-0

>  <r_epik_Charging_Adjusted_Penalty>  (269) 
0

>  <i_epik_Tot_Q>  (269) 
0

>  <i_epik_Tot_abs_Q>  (269) 
0

>  <s_epik_Chemistry_Notes>  (269) 
This compound contains an acetal/aminal-like group ( X-CH(R)-Y where X, Y are N, S, or O) that may be acid/base labile, releasing an aldehyde.

>  <s_lp_Force_Field>  (269) 
OPLS3e

>  <r_lp_Energy>  (269) 
421.656

>  <b_lp_Chiralities_Consistent>  (269) 
1

>  <s_lp_Variant>  (269) 
84:0-1

>  <s_i_glide_gridfile>  (269) 
pfpi4k_grid

>  <i_i_glide_lignum>  (269) 
4

>  <i_i_glide_rotatable_bonds>  (269) 
2

>  <r_i_docking_score>  (269) 
-2.61265

>  <r_i_glide_ligand_efficiency>  (269) 
-0.0967648

>  <r_i_glide_ligand_efficiency_sa>  (269) 
-0.290295

>  <r_i_glide_ligand_efficiency_ln>  (269) 
-0.608182

>  <r_i_glide_gscore>  (269) 
-2.61265

>  <r_i_glide_lipo>  (269) 
-0.48284

>  <r_i_glide_hbond>  (269) 
-0.142017

>  <r_i_glide_metal>  (269) 
-0

>  <r_i_glide_rewards>  (269) 
-0.856299

>  <r_i_glide_evdw>  (269) 
-14.9615

>  <r_i_glide_ecoul>  (269) 
-2.55615

>  <r_i_glide_erotb>  (269) 
0

>  <r_i_glide_esite>  (269) 
0

>  <r_i_glide_emodel>  (269) 
-19.1736

>  <r_i_glide_energy>  (269) 
-17.5176

>  <r_i_glide_einternal>  (269) 
0.396533

>  <r_i_glide_intrahb_reward>  (269) 
-0

>  <i_i_glide_confnum>  (269) 
1

>  <i_i_glide_posenum>  (269) 
6

>  <r_i_glide_eff_state_penalty>  (269) 
0

>  <ligand_id>  (269) 
84

>  <original_smiles>  (269) 
CC1OCC23C(O)CCC(C)(C)C2C(O)OCC24OC5C1C2(C)CC5C34C

>  <smiles>  (269) 
[H]OC1([H])OC([H])([H])C23OC4([H])C5([H])C([H])(C([H])([H])[H])OC([H])([H])C6(C([H])(O[H])C([H])([H])C([H])([H])C(C([H])([H])[H])(C([H])([H])[H])C16[H])C2(C([H])([H])[H])C4([H])C([H])([H])C53C([H])([H])[H]

$$$$
84:0:2
     RDKit          3D

 61 66  0  0  1  0  0  0  0  0999 V2000
    2.3451   -2.2885   -3.2337 C   0  0  0  0  0  0  0  0  0  0  0  0
    3.2420   -3.0526   -2.2623 C   0  0  2  0  0  0  0  0  0  0  0  0
    2.4048   -3.4616   -0.9820 O   0  0  0  0  0  0  0  0  0  0  0  0
    2.7841   -3.7943    0.5082 C   0  0  0  0  0  0  0  0  0  0  0  0
    3.7698   -2.9177    1.6421 C   0  0  1  0  0  0  0  0  0  0  0  0
    2.7645   -1.9046    2.4020 C   0  0  1  0  0  0  0  0  0  0  0  0
    1.4316   -1.8505    1.9233 O   0  0  0  0  0  0  0  0  0  0  0  0
    2.5817   -1.9730    3.9189 C   0  0  0  0  0  0  0  0  0  0  0  0
    2.6165   -3.3961    4.4291 C   0  0  0  0  0  0  0  0  0  0  0  0
    4.0069   -4.0047    4.2213 C   0  0  0  0  0  0  0  0  0  0  0  0
    5.0312   -3.2103    5.0836 C   0  0  0  0  0  0  0  0  0  0  0  0
    3.9108   -5.4327    4.8249 C   0  0  0  0  0  0  0  0  0  0  0  0
    4.2988   -4.0817    2.6645 C   0  0  2  0  0  0  0  0  0  0  0  0
    5.7411   -4.7098    2.4494 C   0  0  1  0  0  0  0  0  0  0  0  0
    5.7756   -6.0012    1.8823 O   0  0  0  0  0  0  0  0  0  0  0  0
    6.7207   -3.8511    2.0195 O   0  0  0  0  0  0  0  0  0  0  0  0
    7.0052   -3.5209    0.6780 C   0  0  0  0  0  0  0  0  0  0  0  0
    5.9995   -2.4974    0.1155 C   0  0  1  0  0  0  0  0  0  0  0  0
    6.6103   -1.5432   -0.7231 O   0  0  0  0  0  0  0  0  0  0  0  0
    5.4382   -1.0751   -1.3405 C   0  0  1  0  0  0  0  0  0  0  0  0
    4.7941   -2.3733   -2.1073 C   0  0  1  0  0  0  0  0  0  0  0  0
    4.8659   -2.8393   -0.8030 C   0  0  1  0  0  0  0  0  0  0  0  0
    4.9953   -4.4300   -0.9768 C   0  0  0  0  0  0  0  0  0  0  0  0
    3.7752   -1.5019   -0.5184 C   0  0  0  0  0  0  0  0  0  0  0  0
    4.7539   -0.7870    0.0472 C   0  0  1  0  0  0  0  0  0  0  0  0
    5.0429   -1.8714    1.1277 C   0  0  1  0  0  0  0  0  0  0  0  0
    5.7765   -1.1178    2.2587 C   0  0  0  0  0  0  0  0  0  0  0  0
    2.8969   -1.9034   -4.0937 H   0  0  0  0  0  0  0  0  0  0  0  0
    1.8878   -1.4596   -2.7168 H   0  0  0  0  0  0  0  0  0  0  0  0
    1.5451   -2.9361   -3.6048 H   0  0  0  0  0  0  0  0  0  0  0  0
    3.3998   -3.9350   -2.8768 H   0  0  0  0  0  0  0  0  0  0  0  0
    1.8348   -3.9890    0.9994 H   0  0  0  0  0  0  0  0  0  0  0  0
    3.0948   -4.8338    0.4759 H   0  0  0  0  0  0  0  0  0  0  0  0
    3.0940   -0.8820    2.2170 H   0  0  0  0  0  0  0  0  0  0  0  0
    1.4142   -1.4596    1.0548 H   0  0  0  0  0  0  0  0  0  0  0  0
    3.3258   -1.3515    4.4115 H   0  0  0  0  0  0  0  0  0  0  0  0
    1.6320   -1.5193    4.2058 H   0  0  0  0  0  0  0  0  0  0  0  0
    2.3444   -3.4166    5.4854 H   0  0  0  0  0  0  0  0  0  0  0  0
    1.8675   -3.9870    3.9023 H   0  0  0  0  0  0  0  0  0  0  0  0
    5.9942   -3.7081    5.1788 H   0  0  0  0  0  0  0  0  0  0  0  0
    4.6593   -3.0833    6.1045 H   0  0  0  0  0  0  0  0  0  0  0  0
    5.2302   -2.2134    4.7086 H   0  0  0  0  0  0  0  0  0  0  0  0
    4.8566   -5.9721    4.7917 H   0  0  0  0  0  0  0  0  0  0  0  0
    3.1707   -6.0408    4.3035 H   0  0  0  0  0  0  0  0  0  0  0  0
    3.6108   -5.3938    5.8757 H   0  0  0  0  0  0  0  0  0  0  0  0
    3.6575   -4.9281    2.4323 H   0  0  0  0  0  0  0  0  0  0  0  0
    6.1745   -4.8975    3.4244 H   0  0  0  0  0  0  0  0  0  0  0  0
    6.5807   -6.4142    2.1600 H   0  0  0  0  0  0  0  0  0  0  0  0
    7.9439   -2.9763    0.7618 H   0  0  0  0  0  0  0  0  0  0  0  0
    7.2718   -4.3721    0.0524 H   0  0  0  0  0  0  0  0  0  0  0  0
    5.5946   -0.2154   -1.9916 H   0  0  0  0  0  0  0  0  0  0  0  0
    5.5109   -2.8039   -2.8085 H   0  0  0  0  0  0  0  0  0  0  0  0
    4.2152   -5.0390   -1.3882 H   0  0  0  0  0  0  0  0  0  0  0  0
    5.1575   -4.9492   -0.0565 H   0  0  0  0  0  0  0  0  0  0  0  0
    5.8192   -4.6579   -1.6316 H   0  0  0  0  0  0  0  0  0  0  0  0
    3.3204   -0.8674   -1.3062 H   0  0  0  0  0  0  0  0  0  0  0  0
    2.8760   -1.4762    0.0574 H   0  0  0  0  0  0  0  0  0  0  0  0
    4.4816    0.2258    0.3318 H   0  0  0  0  0  0  0  0  0  0  0  0
    6.5421   -0.4552    1.8555 H   0  0  0  0  0  0  0  0  0  0  0  0
    6.2815   -1.7990    2.9188 H   0  0  0  0  0  0  0  0  0  0  0  0
    5.1170   -0.5153    2.8796 H   0  0  0  0  0  0  0  0  0  0  0  0
  1  2  1  0
  1 28  1  0
  1 29  1  0
  1 30  1  0
  2 21  1  0
  2  3  1  0
  2 31  1  6
  3  4  1  0
  5  4  1  6
  4 32  1  0
  4 33  1  0
  5 13  1  0
  5 26  1  0
  5  6  1  0
  6  7  1  0
  6  8  1  0
  6 34  1  1
  7 35  1  0
  8  9  1  0
  8 36  1  0
  8 37  1  0
  9 10  1  0
  9 38  1  0
  9 39  1  0
 10 11  1  0
 10 12  1  0
 10 13  1  0
 11 40  1  0
 11 41  1  0
 11 42  1  0
 12 43  1  0
 12 44  1  0
 12 45  1  0
 13 14  1  0
 13 46  1  6
 14 15  1  0
 14 16  1  0
 14 47  1  1
 15 48  1  0
 16 17  1  0
 18 17  1  1
 17 49  1  0
 17 50  1  0
 18 22  1  0
 18 26  1  0
 18 19  1  0
 19 20  1  0
 20 25  1  0
 20 21  1  0
 20 51  1  6
 21 22  1  0
 21 52  1  6
 22 23  1  6
 22 24  1  0
 23 53  1  0
 23 54  1  0
 23 55  1  0
 24 25  1  0
 24 56  1  0
 24 57  1  0
 25 26  1  0
 25 58  1  1
 26 27  1  1
 27 59  1  0
 27 60  1  0
 27 61  1  0
M  END
>  <i_m_ct_stereo_status>  (270) 
1

>  <s_m_source_file>  (270) 
/var/tmp/pbs.5076255.sched01/tmpy8l6melh/117u1qm2xak.sdf

>  <i_m_source_file_index>  (270) 
4

>  <i_lp_mmshare_version>  (270) 
48012

>  <i_f3d_flags>  (270) 
0

>  <s_epik_input>  (270) 
W0NIM11bQ0BdMTJbQ0BIXShbQ0gyXTMpW0NAQEhdKE80KVtDQEhdKFtDQEhdKFtDSDNdKU9bQ0gyXTUpW0NAQF0zKFtDSDNdKVtDQF0yNFtDSDJdT1tDQEhdKFtPSF0pW0NASF0oW0NAQF0xNTYpQyhbQ0gzXSkoW0NIM10pW0NIMl1bQ0gyXVtDQEBIXTZbT0hd

>  <s_epik_cmdline>  (270) 
J2VwaWtfcHl0aG9uJywgJy1waHQnLCAnMi4wJywgJy1waCcsICc3LjAnLCAnLXRuJywgJzgnLCAnLW1hJywgJzIwMCcsICctaW1hZScsICc8aW5maWxlLm1hZT4nLCAnLW9tYWUnLCAnPG91dGZpbGUubWFlPic=

>  <r_lp_tautomer_probability>  (270) 
1

>  <r_epik_Ionization_Penalty>  (270) 
2.94164e-07

>  <r_epik_Ionization_Penalty_Charging>  (270) 
0

>  <r_epik_Ionization_Penalty_Neutral>  (270) 
2.94164e-07

>  <r_epik_State_Penalty>  (270) 
-0

>  <r_epik_Charging_Adjusted_Penalty>  (270) 
0

>  <i_epik_Tot_Q>  (270) 
0

>  <i_epik_Tot_abs_Q>  (270) 
0

>  <s_epik_Chemistry_Notes>  (270) 
This compound contains an acetal/aminal-like group ( X-CH(R)-Y where X, Y are N, S, or O) that may be acid/base labile, releasing an aldehyde.

>  <s_lp_Force_Field>  (270) 
OPLS3e

>  <r_lp_Energy>  (270) 
421.656

>  <b_lp_Chiralities_Consistent>  (270) 
1

>  <s_lp_Variant>  (270) 
84:0-1

>  <s_i_glide_gridfile>  (270) 
pfpi4k_grid

>  <i_i_glide_lignum>  (270) 
4

>  <i_i_glide_rotatable_bonds>  (270) 
2

>  <r_i_docking_score>  (270) 
-2.56602

>  <r_i_glide_ligand_efficiency>  (270) 
-0.0950377

>  <r_i_glide_ligand_efficiency_sa>  (270) 
-0.285113

>  <r_i_glide_ligand_efficiency_ln>  (270) 
-0.597327

>  <r_i_glide_gscore>  (270) 
-2.56602

>  <r_i_glide_lipo>  (270) 
-0.485718

>  <r_i_glide_hbond>  (270) 
-0.136053

>  <r_i_glide_metal>  (270) 
-0

>  <r_i_glide_rewards>  (270) 
-0.85758

>  <r_i_glide_evdw>  (270) 
-14.4778

>  <r_i_glide_ecoul>  (270) 
-2.41851

>  <r_i_glide_erotb>  (270) 
0

>  <r_i_glide_esite>  (270) 
0

>  <r_i_glide_emodel>  (270) 
-17.8474

>  <r_i_glide_energy>  (270) 
-16.8963

>  <r_i_glide_einternal>  (270) 
1.04007

>  <r_i_glide_intrahb_reward>  (270) 
-0

>  <i_i_glide_confnum>  (270) 
2

>  <i_i_glide_posenum>  (270) 
14

>  <r_i_glide_eff_state_penalty>  (270) 
0

>  <ligand_id>  (270) 
84

>  <original_smiles>  (270) 
CC1OCC23C(O)CCC(C)(C)C2C(O)OCC24OC5C1C2(C)CC5C34C

>  <smiles>  (270) 
[H]OC1([H])OC([H])([H])C23OC4([H])C5([H])C([H])(C([H])([H])[H])OC([H])([H])C6(C([H])(O[H])C([H])([H])C([H])([H])C(C([H])([H])[H])(C([H])([H])[H])C16[H])C2(C([H])([H])[H])C4([H])C([H])([H])C53C([H])([H])[H]

$$$$
86:0:0
     RDKit          3D

 82 88  0  0  1  0  0  0  0  0999 V2000
    3.6080    3.8074    5.2729 C   0  0  0  0  0  0  0  0  0  0  0  0
    2.9330    2.6844    4.4922 C   0  0  0  0  0  0  0  0  0  0  0  0
    2.3559    2.8281    3.3243 C   0  0  0  0  0  0  0  0  0  0  0  0
    1.0684    3.6222    3.6602 C   0  0  0  0  0  0  0  0  0  0  0  0
    0.7134    3.1446    5.1298 C   0  0  0  0  0  0  0  0  0  0  0  0
    1.7436    2.0042    5.1260 C   0  0  1  0  0  0  0  0  0  0  0  0
    1.0516    1.2014    4.1408 O   0  0  0  0  0  0  0  0  0  0  0  0
    1.9334    1.3730    3.0934 C   0  0  2  0  0  0  0  0  0  0  0  0
    2.8257    0.1295    3.5755 C   0  0  0  0  0  0  0  0  0  0  0  0
    3.1619   -0.0508    5.1543 C   0  0  1  0  0  0  0  0  0  0  0  0
    4.6398    0.4331    5.3613 C   0  0  0  0  0  0  0  0  0  0  0  0
    2.1766    0.8706    6.0580 C   0  0  2  0  0  0  0  0  0  0  0  0
    0.8959    0.2349    6.6629 C   0  0  0  0  0  0  0  0  0  0  0  0
    0.9846   -1.2600    6.8705 C   0  0  0  0  0  0  0  0  0  0  0  0
    0.5525   -1.7637    7.9055 O   0  0  0  0  0  0  0  0  0  0  0  0
    1.6269   -2.0661    5.7337 C   0  0  2  0  0  0  0  0  0  0  0  0
    1.4011   -3.6134    5.8427 C   0  0  1  0  0  0  0  0  0  0  0  0
   -0.0799   -4.0202    5.8772 C   0  0  0  0  0  0  0  0  0  0  0  0
   -0.2120   -5.4692    6.3451 C   0  0  0  0  0  0  0  0  0  0  0  0
    0.5646   -6.5184    5.5186 C   0  0  1  0  0  0  0  0  0  0  0  0
    0.7627   -7.7243    6.4821 C   0  0  0  0  0  0  0  0  0  0  0  0
   -0.2665   -7.0069    4.3075 C   0  0  0  0  0  0  0  0  0  0  0  0
    0.4206   -8.1651    3.5726 C   0  0  0  0  0  0  0  0  0  0  0  0
    1.8600   -7.8620    3.1008 C   0  0  0  0  0  0  0  0  0  0  0  0
    2.5764   -9.2365    2.9781 C   0  0  0  0  0  0  0  0  0  0  0  0
    1.8342   -7.2485    1.6895 C   0  0  0  0  0  0  0  0  0  0  0  0
    2.6870   -7.0301    4.1428 C   0  0  0  0  0  0  0  0  0  0  0  0
    1.9638   -5.9927    5.0695 C   0  0  1  0  0  0  0  0  0  0  0  0
    2.1334   -4.4529    4.7529 C   0  0  1  0  0  0  0  0  0  0  0  0
    1.6341   -4.1114    3.3296 C   0  0  0  0  0  0  0  0  0  0  0  0
    3.6256   -4.0422    4.8421 C   0  0  0  0  0  0  0  0  0  0  0  0
    3.8626   -2.5337    4.6114 C   0  0  0  0  0  0  0  0  0  0  0  0
    3.1153   -1.5936    5.6121 C   0  0  1  0  0  0  0  0  0  0  0  0
    3.8505   -1.7728    6.9826 C   0  0  0  0  0  0  0  0  0  0  0  0
    4.6657    3.5379    5.4019 H   0  0  0  0  0  0  0  0  0  0  0  0
    3.1966    3.9204    6.2820 H   0  0  0  0  0  0  0  0  0  0  0  0
    3.5803    4.7759    4.7631 H   0  0  0  0  0  0  0  0  0  0  0  0
    1.2474    4.7032    3.6239 H   0  0  0  0  0  0  0  0  0  0  0  0
    0.2720    3.3920    2.9461 H   0  0  0  0  0  0  0  0  0  0  0  0
    0.9449    3.9087    5.8751 H   0  0  0  0  0  0  0  0  0  0  0  0
   -0.3168    2.8243    5.2505 H   0  0  0  0  0  0  0  0  0  0  0  0
    1.4824    1.2062    2.1141 H   0  0  0  0  0  0  0  0  0  0  0  0
    2.2716   -0.7414    3.2415 H   0  0  0  0  0  0  0  0  0  0  0  0
    3.7616    0.1058    2.9925 H   0  0  0  0  0  0  0  0  0  0  0  0
    4.8471    0.6804    6.4046 H   0  0  0  0  0  0  0  0  0  0  0  0
    4.9043    1.3091    4.7770 H   0  0  0  0  0  0  0  0  0  0  0  0
    5.3766   -0.3057    5.0562 H   0  0  0  0  0  0  0  0  0  0  0  0
    2.7395    1.3010    6.8866 H   0  0  0  0  0  0  0  0  0  0  0  0
    0.6622    0.7267    7.6055 H   0  0  0  0  0  0  0  0  0  0  0  0
    0.0295    0.3932    6.0220 H   0  0  0  0  0  0  0  0  0  0  0  0
    1.1082   -1.7348    4.8331 H   0  0  0  0  0  0  0  0  0  0  0  0
    1.8147   -3.9120    6.8089 H   0  0  0  0  0  0  0  0  0  0  0  0
   -0.6719   -3.4127    6.5505 H   0  0  0  0  0  0  0  0  0  0  0  0
   -0.5085   -3.8793    4.8939 H   0  0  0  0  0  0  0  0  0  0  0  0
    0.0952   -5.5041    7.3865 H   0  0  0  0  0  0  0  0  0  0  0  0
   -1.2761   -5.7319    6.3538 H   0  0  0  0  0  0  0  0  0  0  0  0
    1.4099   -8.4984    6.0690 H   0  0  0  0  0  0  0  0  0  0  0  0
   -0.1868   -8.2010    6.7256 H   0  0  0  0  0  0  0  0  0  0  0  0
    1.2303   -7.4205    7.4200 H   0  0  0  0  0  0  0  0  0  0  0  0
   -1.2511   -7.3302    4.6337 H   0  0  0  0  0  0  0  0  0  0  0  0
   -0.4546   -6.1950    3.6164 H   0  0  0  0  0  0  0  0  0  0  0  0
    0.3863   -9.0572    4.1920 H   0  0  0  0  0  0  0  0  0  0  0  0
   -0.1982   -8.4233    2.7056 H   0  0  0  0  0  0  0  0  0  0  0  0
    3.6148   -9.1289    2.6480 H   0  0  0  0  0  0  0  0  0  0  0  0
    2.0706   -9.9178    2.2869 H   0  0  0  0  0  0  0  0  0  0  0  0
    2.6077   -9.7473    3.9539 H   0  0  0  0  0  0  0  0  0  0  0  0
    2.8324   -7.0069    1.3337 H   0  0  0  0  0  0  0  0  0  0  0  0
    1.2314   -6.3515    1.6494 H   0  0  0  0  0  0  0  0  0  0  0  0
    1.4088   -7.9444    0.9699 H   0  0  0  0  0  0  0  0  0  0  0  0
    3.2261   -7.7063    4.7765 H   0  0  0  0  0  0  0  0  0  0  0  0
    3.4854   -6.5356    3.5784 H   0  0  0  0  0  0  0  0  0  0  0  0
    2.5700   -6.0711    5.9791 H   0  0  0  0  0  0  0  0  0  0  0  0
    2.2931   -4.5181    2.5631 H   0  0  0  0  0  0  0  0  0  0  0  0
    1.5690   -3.0375    3.1468 H   0  0  0  0  0  0  0  0  0  0  0  0
    0.6373   -4.4865    3.1284 H   0  0  0  0  0  0  0  0  0  0  0  0
    4.0239   -4.3149    5.8214 H   0  0  0  0  0  0  0  0  0  0  0  0
    4.2296   -4.5895    4.1237 H   0  0  0  0  0  0  0  0  0  0  0  0
    4.9399   -2.3695    4.6550 H   0  0  0  0  0  0  0  0  0  0  0  0
    3.6143   -2.3260    3.5750 H   0  0  0  0  0  0  0  0  0  0  0  0
    3.6231   -2.7301    7.4513 H   0  0  0  0  0  0  0  0  0  0  0  0
    3.5930   -1.0002    7.7076 H   0  0  0  0  0  0  0  0  0  0  0  0
    4.9374   -1.7471    6.8782 H   0  0  0  0  0  0  0  0  0  0  0  0
  1  2  1  0
  1 35  1  0
  1 36  1  0
  1 37  1  0
  2  6  1  0
  2  3  2  0
  3  8  1  0
  3  4  1  0
  4  5  1  0
  4 38  1  0
  4 39  1  0
  6  5  1  1
  5 40  1  0
  5 41  1  0
  6 12  1  0
  6  7  1  0
  7  8  1  0
  8  9  1  0
  8 42  1  6
  9 10  1  0
  9 43  1  0
  9 44  1  0
 10 33  1  0
 10 11  1  6
 10 12  1  0
 11 45  1  0
 11 46  1  0
 11 47  1  0
 12 13  1  0
 12 48  1  1
 13 14  1  0
 13 49  1  0
 13 50  1  0
 14 15  2  0
 14 16  1  0
 16 33  1  0
 16 17  1  0
 16 51  1  6
 17 29  1  0
 17 18  1  0
 17 52  1  1
 18 19  1  0
 18 53  1  0
 18 54  1  0
 19 20  1  0
 19 55  1  0
 19 56  1  0
 20 28  1  0
 20 21  1  1
 20 22  1  0
 21 57  1  0
 21 58  1  0
 21 59  1  0
 22 23  1  0
 22 60  1  0
 22 61  1  0
 23 24  1  0
 23 62  1  0
 23 63  1  0
 24 25  1  0
 24 26  1  0
 24 27  1  0
 25 64  1  0
 25 65  1  0
 25 66  1  0
 26 67  1  0
 26 68  1  0
 26 69  1  0
 27 28  1  0
 27 70  1  0
 27 71  1  0
 28 29  1  0
 28 72  1  1
 29 30  1  6
 29 31  1  0
 30 73  1  0
 30 74  1  0
 30 75  1  0
 31 32  1  0
 31 76  1  0
 31 77  1  0
 32 33  1  0
 32 78  1  0
 32 79  1  0
 33 34  1  1
 34 80  1  0
 34 81  1  0
 34 82  1  0
M  END
>  <i_m_ct_stereo_status>  (271) 
1

>  <s_m_source_file>  (271) 
/var/tmp/pbs.5076255.sched01/tmpy8l6melh/117u1qm2xak.sdf

>  <i_m_source_file_index>  (271) 
6

>  <i_lp_mmshare_version>  (271) 
48012

>  <i_f3d_flags>  (271) 
0

>  <s_epik_input>  (271) 
W0NIM11DMT1DKFtDSDJdW0NIMl0yKVtDQEhdKE8zKVtDSDJdW0NAQF0oW0NIM10pKFtDQEhdNEMxMjMpW0NAQF01KFtDSDNdKVtDQEhdKEMoPU8pW0NIMl00KVtDQEBIXTZbQ0BAXShbQ0gzXSkoW0NIMl1bQ0gyXTUpW0NASF03W0NAQF0oW0NIM10pKFtDSDJdW0NIMl02KVtDSDJdW0NIMl1DKFtDSDNdKShbQ0gzXSlbQ0gyXTc=

>  <s_epik_cmdline>  (271) 
J2VwaWtfcHl0aG9uJywgJy1waHQnLCAnMi4wJywgJy1waCcsICc3LjAnLCAnLXRuJywgJzgnLCAnLW1hJywgJzIwMCcsICctaW1hZScsICc8aW5maWxlLm1hZT4nLCAnLW9tYWUnLCAnPG91dGZpbGUubWFlPic=

>  <r_lp_tautomer_probability>  (271) 
1

>  <r_epik_Ionization_Penalty>  (271) 
5.10828e-12

>  <r_epik_Ionization_Penalty_Charging>  (271) 
0

>  <r_epik_Ionization_Penalty_Neutral>  (271) 
5.10828e-12

>  <r_epik_State_Penalty>  (271) 
-0

>  <r_epik_Charging_Adjusted_Penalty>  (271) 
0

>  <i_epik_Tot_Q>  (271) 
0

>  <i_epik_Tot_abs_Q>  (271) 
0

>  <s_lp_Force_Field>  (271) 
OPLS3e

>  <r_lp_Energy>  (271) 
182.786

>  <b_lp_Chiralities_Consistent>  (271) 
1

>  <s_lp_Variant>  (271) 
86:0-1

>  <s_i_glide_gridfile>  (271) 
pfpi4k_grid

>  <i_i_glide_lignum>  (271) 
6

>  <i_i_glide_rotatable_bonds>  (271) 
0

>  <r_i_docking_score>  (271) 
-1.70674

>  <r_i_glide_ligand_efficiency>  (271) 
-0.0501981

>  <r_i_glide_ligand_efficiency_sa>  (271) 
-0.162623

>  <r_i_glide_ligand_efficiency_ln>  (271) 
-0.377066

>  <r_i_glide_gscore>  (271) 
-1.70674

>  <r_i_glide_lipo>  (271) 
-0.04997

>  <r_i_glide_hbond>  (271) 
0

>  <r_i_glide_metal>  (271) 
-0

>  <r_i_glide_rewards>  (271) 
-0.24053

>  <r_i_glide_evdw>  (271) 
-25.2752

>  <r_i_glide_ecoul>  (271) 
-0.956418

>  <r_i_glide_erotb>  (271) 
0

>  <r_i_glide_esite>  (271) 
-0.00901507

>  <r_i_glide_emodel>  (271) 
-28.4368

>  <r_i_glide_energy>  (271) 
-26.2316

>  <r_i_glide_einternal>  (271) 
0

>  <r_i_glide_intrahb_reward>  (271) 
-0

>  <i_i_glide_confnum>  (271) 
1

>  <i_i_glide_posenum>  (271) 
20

>  <r_i_glide_eff_state_penalty>  (271) 
0

>  <ligand_id>  (271) 
86

>  <original_smiles>  (271) 
CC1=C2CCC13OC2CC1(C)C3CC(=O)C2C3CCC4(C)CCC(C)(C)CC4C3(C)CCC21C

>  <smiles>  (271) 
[H]C([H])([H])C1=C2C([H])([H])C([H])([H])C13OC2([H])C([H])([H])C1(C([H])([H])[H])C3([H])C([H])([H])C(=O)C2([H])C3([H])C([H])([H])C([H])([H])C4(C([H])([H])[H])C([H])([H])C([H])([H])C(C([H])([H])[H])(C([H])([H])[H])C([H])([H])C4([H])C3(C([H])([H])[H])C([H])([H])C([H])([H])C21C([H])([H])[H]

$$$$
86:0:1
     RDKit          3D

 82 88  0  0  1  0  0  0  0  0999 V2000
    6.8481    1.3365    7.7131 C   0  0  0  0  0  0  0  0  0  0  0  0
    5.8397    0.7062    6.7303 C   0  0  0  0  0  0  0  0  0  0  0  0
    5.3450    1.3068    5.7010 C   0  0  0  0  0  0  0  0  0  0  0  0
    4.3755    2.3511    6.3034 C   0  0  0  0  0  0  0  0  0  0  0  0
    3.8828    1.6562    7.6471 C   0  0  0  0  0  0  0  0  0  0  0  0
    4.5124    0.2966    7.2930 C   0  0  1  0  0  0  0  0  0  0  0  0
    3.5914    0.0278    6.2070 O   0  0  0  0  0  0  0  0  0  0  0  0
    4.4704    0.1678    5.1598 C   0  0  2  0  0  0  0  0  0  0  0  0
    4.9121   -1.3672    5.2589 C   0  0  0  0  0  0  0  0  0  0  0  0
    5.1782   -2.0266    6.7119 C   0  0  1  0  0  0  0  0  0  0  0  0
    6.7343   -2.1026    6.9137 C   0  0  0  0  0  0  0  0  0  0  0  0
    4.5416   -1.1133    7.8905 C   0  0  2  0  0  0  0  0  0  0  0  0
    3.1298   -1.4576    8.4244 C   0  0  0  0  0  0  0  0  0  0  0  0
    2.7432   -2.9061    8.2489 C   0  0  0  0  0  0  0  0  0  0  0  0
    2.2205   -3.5191    9.1759 O   0  0  0  0  0  0  0  0  0  0  0  0
    3.0921   -3.5474    6.9027 C   0  0  2  0  0  0  0  0  0  0  0  0
    2.3716   -4.9212    6.6519 C   0  0  1  0  0  0  0  0  0  0  0  0
    0.8290   -4.8432    6.7132 C   0  0  0  0  0  0  0  0  0  0  0  0
    0.2655   -6.2556    6.8376 C   0  0  0  0  0  0  0  0  0  0  0  0
    0.6514   -7.2499    5.7223 C   0  0  1  0  0  0  0  0  0  0  0  0
    0.4650   -8.6608    6.3420 C   0  0  0  0  0  0  0  0  0  0  0  0
   -0.2924   -7.1306    4.5019 C   0  0  0  0  0  0  0  0  0  0  0  0
   -0.0075   -8.2244    3.4680 C   0  0  0  0  0  0  0  0  0  0  0  0
    1.4520   -8.2669    2.9639 C   0  0  0  0  0  0  0  0  0  0  0  0
    1.6954   -9.7190    2.4639 C   0  0  0  0  0  0  0  0  0  0  0  0
    1.6215   -7.3506    1.7365 C   0  0  0  0  0  0  0  0  0  0  0  0
    2.5010   -8.0372    4.1018 C   0  0  0  0  0  0  0  0  0  0  0  0
    2.1451   -7.0850    5.2912 C   0  0  1  0  0  0  0  0  0  0  0  0
    2.7988   -5.6491    5.3421 C   0  0  1  0  0  0  0  0  0  0  0  0
    2.4259   -4.8127    4.0899 C   0  0  0  0  0  0  0  0  0  0  0  0
    4.3439   -5.7508    5.4051 C   0  0  0  0  0  0  0  0  0  0  0  0
    5.0539   -4.3861    5.5269 C   0  0  0  0  0  0  0  0  0  0  0  0
    4.6495   -3.5512    6.7815 C   0  0  1  0  0  0  0  0  0  0  0  0
    5.2879   -4.2841    8.0047 C   0  0  0  0  0  0  0  0  0  0  0  0
    7.7560    0.7313    7.6808 H   0  0  0  0  0  0  0  0  0  0  0  0
    6.4871    1.3047    8.7394 H   0  0  0  0  0  0  0  0  0  0  0  0
    7.1165    2.3581    7.4484 H   0  0  0  0  0  0  0  0  0  0  0  0
    4.8886    3.2873    6.5281 H   0  0  0  0  0  0  0  0  0  0  0  0
    3.5488    2.5795    5.6244 H   0  0  0  0  0  0  0  0  0  0  0  0
    4.3536    2.1029    8.5307 H   0  0  0  0  0  0  0  0  0  0  0  0
    2.8023    1.6497    7.7738 H   0  0  0  0  0  0  0  0  0  0  0  0
    3.9937    0.4166    4.2096 H   0  0  0  0  0  0  0  0  0  0  0  0
    4.1132   -1.9170    4.7665 H   0  0  0  0  0  0  0  0  0  0  0  0
    5.7867   -1.5136    4.6230 H   0  0  0  0  0  0  0  0  0  0  0  0
    7.0111   -2.2013    7.9601 H   0  0  0  0  0  0  0  0  0  0  0  0
    7.2685   -1.2353    6.5335 H   0  0  0  0  0  0  0  0  0  0  0  0
    7.1920   -2.9302    6.3850 H   0  0  0  0  0  0  0  0  0  0  0  0
    5.2204   -1.1052    8.7416 H   0  0  0  0  0  0  0  0  0  0  0  0
    3.0652   -1.1736    9.4717 H   0  0  0  0  0  0  0  0  0  0  0  0
    2.3586   -0.8796    7.9148 H   0  0  0  0  0  0  0  0  0  0  0  0
    2.7008   -2.8559    6.1616 H   0  0  0  0  0  0  0  0  0  0  0  0
    2.6612   -5.5660    7.4774 H   0  0  0  0  0  0  0  0  0  0  0  0
    0.4768   -4.2872    7.5776 H   0  0  0  0  0  0  0  0  0  0  0  0
    0.4157   -4.3406    5.8461 H   0  0  0  0  0  0  0  0  0  0  0  0
    0.5478   -6.6542    7.8167 H   0  0  0  0  0  0  0  0  0  0  0  0
   -0.8167   -6.1614    6.8659 H   0  0  0  0  0  0  0  0  0  0  0  0
    0.8285   -9.4665    5.7142 H   0  0  0  0  0  0  0  0  0  0  0  0
   -0.5857   -8.8781    6.5462 H   0  0  0  0  0  0  0  0  0  0  0  0
    1.0067   -8.7681    7.2862 H   0  0  0  0  0  0  0  0  0  0  0  0
   -1.3298   -7.2106    4.8251 H   0  0  0  0  0  0  0  0  0  0  0  0
   -0.2077   -6.1586    4.0395 H   0  0  0  0  0  0  0  0  0  0  0  0
   -0.3237   -9.1953    3.8468 H   0  0  0  0  0  0  0  0  0  0  0  0
   -0.6646   -8.0460    2.6188 H   0  0  0  0  0  0  0  0  0  0  0  0
    2.7134   -9.8615    2.0817 H   0  0  0  0  0  0  0  0  0  0  0  0
    1.0089  -10.0135    1.6813 H   0  0  0  0  0  0  0  0  0  0  0  0
    1.5608  -10.4373    3.2794 H   0  0  0  0  0  0  0  0  0  0  0  0
    2.6434   -7.3414    1.3635 H   0  0  0  0  0  0  0  0  0  0  0  0
    1.3337   -6.3248    1.9620 H   0  0  0  0  0  0  0  0  0  0  0  0
    0.9948   -7.6762    0.9039 H   0  0  0  0  0  0  0  0  0  0  0  0
    2.8031   -9.0025    4.5121 H   0  0  0  0  0  0  0  0  0  0  0  0
    3.3948   -7.6672    3.6027 H   0  0  0  0  0  0  0  0  0  0  0  0
    2.6960   -7.5692    6.0960 H   0  0  0  0  0  0  0  0  0  0  0  0
    2.9216   -5.2044    3.1978 H   0  0  0  0  0  0  0  0  0  0  0  0
    2.7176   -3.7699    4.1824 H   0  0  0  0  0  0  0  0  0  0  0  0
    1.3592   -4.7953    3.8917 H   0  0  0  0  0  0  0  0  0  0  0  0
    4.6340   -6.3725    6.2534 H   0  0  0  0  0  0  0  0  0  0  0  0
    4.7398   -6.2582    4.5299 H   0  0  0  0  0  0  0  0  0  0  0  0
    6.1207   -4.5833    5.5286 H   0  0  0  0  0  0  0  0  0  0  0  0
    4.8845   -3.8585    4.5978 H   0  0  0  0  0  0  0  0  0  0  0  0
    4.7672   -5.2105    8.2467 H   0  0  0  0  0  0  0  0  0  0  0  0
    5.2938   -3.6880    8.9107 H   0  0  0  0  0  0  0  0  0  0  0  0
    6.3215   -4.5739    7.8199 H   0  0  0  0  0  0  0  0  0  0  0  0
  1  2  1  0
  1 35  1  0
  1 36  1  0
  1 37  1  0
  2  6  1  0
  2  3  2  0
  3  8  1  0
  3  4  1  0
  4  5  1  0
  4 38  1  0
  4 39  1  0
  6  5  1  1
  5 40  1  0
  5 41  1  0
  6 12  1  0
  6  7  1  0
  7  8  1  0
  8  9  1  0
  8 42  1  6
  9 10  1  0
  9 43  1  0
  9 44  1  0
 10 33  1  0
 10 11  1  1
 10 12  1  0
 11 45  1  0
 11 46  1  0
 11 47  1  0
 12 13  1  0
 12 48  1  1
 13 14  1  0
 13 49  1  0
 13 50  1  0
 14 15  2  0
 14 16  1  0
 16 33  1  0
 16 17  1  0
 16 51  1  6
 17 29  1  0
 17 18  1  0
 17 52  1  1
 18 19  1  0
 18 53  1  0
 18 54  1  0
 19 20  1  0
 19 55  1  0
 19 56  1  0
 20 28  1  0
 20 21  1  1
 20 22  1  0
 21 57  1  0
 21 58  1  0
 21 59  1  0
 22 23  1  0
 22 60  1  0
 22 61  1  0
 23 24  1  0
 23 62  1  0
 23 63  1  0
 24 25  1  0
 24 26  1  0
 24 27  1  0
 25 64  1  0
 25 65  1  0
 25 66  1  0
 26 67  1  0
 26 68  1  0
 26 69  1  0
 27 28  1  0
 27 70  1  0
 27 71  1  0
 28 29  1  0
 28 72  1  1
 29 30  1  6
 29 31  1  0
 30 73  1  0
 30 74  1  0
 30 75  1  0
 31 32  1  0
 31 76  1  0
 31 77  1  0
 32 33  1  0
 32 78  1  0
 32 79  1  0
 33 34  1  1
 34 80  1  0
 34 81  1  0
 34 82  1  0
M  END
>  <i_m_ct_stereo_status>  (272) 
1

>  <s_m_source_file>  (272) 
/var/tmp/pbs.5076255.sched01/tmpy8l6melh/117u1qm2xak.sdf

>  <i_m_source_file_index>  (272) 
6

>  <i_lp_mmshare_version>  (272) 
48012

>  <i_f3d_flags>  (272) 
0

>  <s_epik_input>  (272) 
W0NIM11DMT1DKFtDSDJdW0NIMl0yKVtDQEhdKE8zKVtDSDJdW0NAQF0oW0NIM10pKFtDQEhdNEMxMjMpW0NAQF01KFtDSDNdKVtDQEhdKEMoPU8pW0NIMl00KVtDQEBIXTZbQ0BAXShbQ0gzXSkoW0NIMl1bQ0gyXTUpW0NASF03W0NAQF0oW0NIM10pKFtDSDJdW0NIMl02KVtDSDJdW0NIMl1DKFtDSDNdKShbQ0gzXSlbQ0gyXTc=

>  <s_epik_cmdline>  (272) 
J2VwaWtfcHl0aG9uJywgJy1waHQnLCAnMi4wJywgJy1waCcsICc3LjAnLCAnLXRuJywgJzgnLCAnLW1hJywgJzIwMCcsICctaW1hZScsICc8aW5maWxlLm1hZT4nLCAnLW9tYWUnLCAnPG91dGZpbGUubWFlPic=

>  <r_lp_tautomer_probability>  (272) 
1

>  <r_epik_Ionization_Penalty>  (272) 
5.10828e-12

>  <r_epik_Ionization_Penalty_Charging>  (272) 
0

>  <r_epik_Ionization_Penalty_Neutral>  (272) 
5.10828e-12

>  <r_epik_State_Penalty>  (272) 
-0

>  <r_epik_Charging_Adjusted_Penalty>  (272) 
0

>  <i_epik_Tot_Q>  (272) 
0

>  <i_epik_Tot_abs_Q>  (272) 
0

>  <s_lp_Force_Field>  (272) 
OPLS3e

>  <r_lp_Energy>  (272) 
182.786

>  <b_lp_Chiralities_Consistent>  (272) 
1

>  <s_lp_Variant>  (272) 
86:0-1

>  <s_i_glide_gridfile>  (272) 
pfpi4k_grid

>  <i_i_glide_lignum>  (272) 
6

>  <i_i_glide_rotatable_bonds>  (272) 
0

>  <r_i_docking_score>  (272) 
-1.56209

>  <r_i_glide_ligand_efficiency>  (272) 
-0.0459437

>  <r_i_glide_ligand_efficiency_sa>  (272) 
-0.14884

>  <r_i_glide_ligand_efficiency_ln>  (272) 
-0.345108

>  <r_i_glide_gscore>  (272) 
-1.56209

>  <r_i_glide_lipo>  (272) 
-0.241333

>  <r_i_glide_hbond>  (272) 
0

>  <r_i_glide_metal>  (272) 
-0

>  <r_i_glide_rewards>  (272) 
-0.24053

>  <r_i_glide_evdw>  (272) 
-21.0636

>  <r_i_glide_ecoul>  (272) 
-0.180276

>  <r_i_glide_erotb>  (272) 
0

>  <r_i_glide_esite>  (272) 
0

>  <r_i_glide_emodel>  (272) 
-23.079

>  <r_i_glide_energy>  (272) 
-21.2439

>  <r_i_glide_einternal>  (272) 
0

>  <r_i_glide_intrahb_reward>  (272) 
-0

>  <i_i_glide_confnum>  (272) 
2

>  <i_i_glide_posenum>  (272) 
8

>  <r_i_glide_eff_state_penalty>  (272) 
0

>  <ligand_id>  (272) 
86

>  <original_smiles>  (272) 
CC1=C2CCC13OC2CC1(C)C3CC(=O)C2C3CCC4(C)CCC(C)(C)CC4C3(C)CCC21C

>  <smiles>  (272) 
[H]C([H])([H])C1=C2C([H])([H])C([H])([H])C13OC2([H])C([H])([H])C1(C([H])([H])[H])C3([H])C([H])([H])C(=O)C2([H])C3([H])C([H])([H])C([H])([H])C4(C([H])([H])[H])C([H])([H])C([H])([H])C(C([H])([H])[H])(C([H])([H])[H])C([H])([H])C4([H])C3(C([H])([H])[H])C([H])([H])C([H])([H])C21C([H])([H])[H]

$$$$
86:0:2
     RDKit          3D

 82 88  0  0  1  0  0  0  0  0999 V2000
    5.4721    2.7040    7.2847 C   0  0  0  0  0  0  0  0  0  0  0  0
    4.5615    1.9104    6.3438 C   0  0  0  0  0  0  0  0  0  0  0  0
    3.9675    2.4076    5.2981 C   0  0  0  0  0  0  0  0  0  0  0  0
    2.8749    3.3297    5.8908 C   0  0  0  0  0  0  0  0  0  0  0  0
    2.4951    2.6164    7.2593 C   0  0  0  0  0  0  0  0  0  0  0  0
    3.2997    1.3448    6.9369 C   0  0  1  0  0  0  0  0  0  0  0  0
    2.4140    0.9196    5.8759 O   0  0  0  0  0  0  0  0  0  0  0  0
    3.2523    1.1494    4.8093 C   0  0  2  0  0  0  0  0  0  0  0  0
    3.9003   -0.3058    4.9420 C   0  0  0  0  0  0  0  0  0  0  0  0
    4.2683   -0.8819    6.4137 C   0  0  1  0  0  0  0  0  0  0  0  0
    5.8247   -0.7407    6.5888 C   0  0  0  0  0  0  0  0  0  0  0  0
    3.5278   -0.0290    7.5740 C   0  0  2  0  0  0  0  0  0  0  0  0
    2.1806   -0.5444    8.1368 C   0  0  0  0  0  0  0  0  0  0  0  0
    1.9940   -2.0320    8.0046 C   0  0  0  0  0  0  0  0  0  0  0  0
    1.5600   -2.6825    8.9569 O   0  0  0  0  0  0  0  0  0  0  0  0
    2.4100   -2.6660    6.6755 C   0  0  2  0  0  0  0  0  0  0  0  0
    1.8795   -4.1286    6.4752 C   0  0  1  0  0  0  0  0  0  0  0  0
    0.3434   -4.2608    6.5585 C   0  0  0  0  0  0  0  0  0  0  0  0
   -0.0288   -5.7276    6.7333 C   0  0  0  0  0  0  0  0  0  0  0  0
    0.4809   -6.7008    5.6450 C   0  0  1  0  0  0  0  0  0  0  0  0
    0.5024   -8.1027    6.3053 C   0  0  0  0  0  0  0  0  0  0  0  0
   -0.4809   -6.7555    4.4412 C   0  0  0  0  0  0  0  0  0  0  0  0
   -0.0613   -7.8262    3.4287 C   0  0  0  0  0  0  0  0  0  0  0  0
    1.3848   -7.6830    2.9048 C   0  0  0  0  0  0  0  0  0  0  0  0
    1.8158   -9.0958    2.4342 C   0  0  0  0  0  0  0  0  0  0  0  0
    1.4151   -6.7874    1.6481 C   0  0  0  0  0  0  0  0  0  0  0  0
    2.4036   -7.2811    4.0204 C   0  0  0  0  0  0  0  0  0  0  0  0
    1.9329   -6.3465    5.1848 C   0  0  1  0  0  0  0  0  0  0  0  0
    2.3862   -4.8330    5.1823 C   0  0  1  0  0  0  0  0  0  0  0  0
    1.8914   -4.0959    3.9121 C   0  0  0  0  0  0  0  0  0  0  0  0
    3.9319   -4.7223    5.2260 C   0  0  0  0  0  0  0  0  0  0  0  0
    4.4519   -3.2728    5.2994 C   0  0  0  0  0  0  0  0  0  0  0  0
    3.9538   -2.4591    6.5328 C   0  0  1  0  0  0  0  0  0  0  0  0
    4.6961   -3.0618    7.7667 C   0  0  0  0  0  0  0  0  0  0  0  0
    6.4530    2.2340    7.2628 H   0  0  0  0  0  0  0  0  0  0  0  0
    5.1302    2.6578    8.3200 H   0  0  0  0  0  0  0  0  0  0  0  0
    5.5941    3.7467    6.9899 H   0  0  0  0  0  0  0  0  0  0  0  0
    3.2618    4.3287    6.0812 H   0  0  0  0  0  0  0  0  0  0  0  0
    2.0187    3.4258    5.2102 H   0  0  0  0  0  0  0  0  0  0  0  0
    2.9070    3.1522    8.1211 H   0  0  0  0  0  0  0  0  0  0  0  0
    1.4227    2.4640    7.4001 H   0  0  0  0  0  0  0  0  0  0  0  0
    2.7324    1.3038    3.8603 H   0  0  0  0  0  0  0  0  0  0  0  0
    3.1806   -0.9788    4.4765 H   0  0  0  0  0  0  0  0  0  0  0  0
    4.7828   -0.3465    4.3054 H   0  0  0  0  0  0  0  0  0  0  0  0
    6.1218   -0.7677    7.6363 H   0  0  0  0  0  0  0  0  0  0  0  0
    6.2341    0.1778    6.1758 H   0  0  0  0  0  0  0  0  0  0  0  0
    6.3845   -1.5172    6.0833 H   0  0  0  0  0  0  0  0  0  0  0  0
    4.2090    0.0962    8.4149 H   0  0  0  0  0  0  0  0  0  0  0  0
    2.0885   -0.2369    9.1773 H   0  0  0  0  0  0  0  0  0  0  0  0
    1.3360   -0.0894    7.6216 H   0  0  0  0  0  0  0  0  0  0  0  0
    1.9238   -2.0545    5.9210 H   0  0  0  0  0  0  0  0  0  0  0  0
    2.2623   -4.7031    7.3153 H   0  0  0  0  0  0  0  0  0  0  0  0
   -0.0736   -3.7276    7.4114 H   0  0  0  0  0  0  0  0  0  0  0  0
   -0.1458   -3.8469    5.6807 H   0  0  0  0  0  0  0  0  0  0  0  0
    0.3103   -6.0569    7.7228 H   0  0  0  0  0  0  0  0  0  0  0  0
   -1.1132   -5.7594    6.7681 H   0  0  0  0  0  0  0  0  0  0  0  0
    0.9707   -8.8674    5.6916 H   0  0  0  0  0  0  0  0  0  0  0  0
   -0.5030   -8.4708    6.5205 H   0  0  0  0  0  0  0  0  0  0  0  0
    1.0587   -8.1049    7.2465 H   0  0  0  0  0  0  0  0  0  0  0  0
   -1.4981   -6.9592    4.7786 H   0  0  0  0  0  0  0  0  0  0  0  0
   -0.5238   -5.7968    3.9554 H   0  0  0  0  0  0  0  0  0  0  0  0
   -0.2387   -8.8231    3.8344 H   0  0  0  0  0  0  0  0  0  0  0  0
   -0.7444   -7.7556    2.5866 H   0  0  0  0  0  0  0  0  0  0  0  0
    2.8365   -9.1147    2.0363 H   0  0  0  0  0  0  0  0  0  0  0  0
    1.1518   -9.5136    1.6823 H   0  0  0  0  0  0  0  0  0  0  0  0
    1.7885   -9.8044    3.2664 H   0  0  0  0  0  0  0  0  0  0  0  0
    2.4229   -6.6554    1.2591 H   0  0  0  0  0  0  0  0  0  0  0  0
    0.9991   -5.8061    1.8547 H   0  0  0  0  0  0  0  0  0  0  0  0
    0.8272   -7.2214    0.8352 H   0  0  0  0  0  0  0  0  0  0  0  0
    2.8429   -8.1891    4.4535 H   0  0  0  0  0  0  0  0  0  0  0  0
    3.2255   -6.8032    3.4967 H   0  0  0  0  0  0  0  0  0  0  0  0
    2.5541   -6.7239    5.9931 H   0  0  0  0  0  0  0  0  0  0  0  0
    2.4268   -4.4432    3.0252 H   0  0  0  0  0  0  0  0  0  0  0  0
    2.0412   -3.0212    3.9699 H   0  0  0  0  0  0  0  0  0  0  0  0
    0.8300   -4.2270    3.7280 H   0  0  0  0  0  0  0  0  0  0  0  0
    4.3119   -5.2733    6.0871 H   0  0  0  0  0  0  0  0  0  0  0  0
    4.3842   -5.1993    4.3583 H   0  0  0  0  0  0  0  0  0  0  0  0
    5.5358   -3.3258    5.2938 H   0  0  0  0  0  0  0  0  0  0  0  0
    4.2061   -2.8004    4.3575 H   0  0  0  0  0  0  0  0  0  0  0  0
    4.3095   -4.0421    8.0443 H   0  0  0  0  0  0  0  0  0  0  0  0
    4.6305   -2.4433    8.6566 H   0  0  0  0  0  0  0  0  0  0  0  0
    5.7571   -3.2139    7.5777 H   0  0  0  0  0  0  0  0  0  0  0  0
  1  2  1  0
  1 35  1  0
  1 36  1  0
  1 37  1  0
  2  6  1  0
  2  3  2  0
  3  8  1  0
  3  4  1  0
  4  5  1  0
  4 38  1  0
  4 39  1  0
  6  5  1  1
  5 40  1  0
  5 41  1  0
  6 12  1  0
  6  7  1  0
  7  8  1  0
  8  9  1  0
  8 42  1  6
  9 10  1  0
  9 43  1  0
  9 44  1  0
 10 33  1  0
 10 11  1  1
 10 12  1  0
 11 45  1  0
 11 46  1  0
 11 47  1  0
 12 13  1  0
 12 48  1  1
 13 14  1  0
 13 49  1  0
 13 50  1  0
 14 15  2  0
 14 16  1  0
 16 33  1  0
 16 17  1  0
 16 51  1  6
 17 29  1  0
 17 18  1  0
 17 52  1  1
 18 19  1  0
 18 53  1  0
 18 54  1  0
 19 20  1  0
 19 55  1  0
 19 56  1  0
 20 28  1  0
 20 21  1  1
 20 22  1  0
 21 57  1  0
 21 58  1  0
 21 59  1  0
 22 23  1  0
 22 60  1  0
 22 61  1  0
 23 24  1  0
 23 62  1  0
 23 63  1  0
 24 25  1  0
 24 26  1  0
 24 27  1  0
 25 64  1  0
 25 65  1  0
 25 66  1  0
 26 67  1  0
 26 68  1  0
 26 69  1  0
 27 28  1  0
 27 70  1  0
 27 71  1  0
 28 29  1  0
 28 72  1  1
 29 30  1  6
 29 31  1  0
 30 73  1  0
 30 74  1  0
 30 75  1  0
 31 32  1  0
 31 76  1  0
 31 77  1  0
 32 33  1  0
 32 78  1  0
 32 79  1  0
 33 34  1  1
 34 80  1  0
 34 81  1  0
 34 82  1  0
M  END
>  <i_m_ct_stereo_status>  (273) 
1

>  <s_m_source_file>  (273) 
/var/tmp/pbs.5076255.sched01/tmpy8l6melh/117u1qm2xak.sdf

>  <i_m_source_file_index>  (273) 
6

>  <i_lp_mmshare_version>  (273) 
48012

>  <i_f3d_flags>  (273) 
0

>  <s_epik_input>  (273) 
W0NIM11DMT1DKFtDSDJdW0NIMl0yKVtDQEhdKE8zKVtDSDJdW0NAQF0oW0NIM10pKFtDQEhdNEMxMjMpW0NAQF01KFtDSDNdKVtDQEhdKEMoPU8pW0NIMl00KVtDQEBIXTZbQ0BAXShbQ0gzXSkoW0NIMl1bQ0gyXTUpW0NASF03W0NAQF0oW0NIM10pKFtDSDJdW0NIMl02KVtDSDJdW0NIMl1DKFtDSDNdKShbQ0gzXSlbQ0gyXTc=

>  <s_epik_cmdline>  (273) 
J2VwaWtfcHl0aG9uJywgJy1waHQnLCAnMi4wJywgJy1waCcsICc3LjAnLCAnLXRuJywgJzgnLCAnLW1hJywgJzIwMCcsICctaW1hZScsICc8aW5maWxlLm1hZT4nLCAnLW9tYWUnLCAnPG91dGZpbGUubWFlPic=

>  <r_lp_tautomer_probability>  (273) 
1

>  <r_epik_Ionization_Penalty>  (273) 
5.10828e-12

>  <r_epik_Ionization_Penalty_Charging>  (273) 
0

>  <r_epik_Ionization_Penalty_Neutral>  (273) 
5.10828e-12

>  <r_epik_State_Penalty>  (273) 
-0

>  <r_epik_Charging_Adjusted_Penalty>  (273) 
0

>  <i_epik_Tot_Q>  (273) 
0

>  <i_epik_Tot_abs_Q>  (273) 
0

>  <s_lp_Force_Field>  (273) 
OPLS3e

>  <r_lp_Energy>  (273) 
182.786

>  <b_lp_Chiralities_Consistent>  (273) 
1

>  <s_lp_Variant>  (273) 
86:0-1

>  <s_i_glide_gridfile>  (273) 
pfpi4k_grid

>  <i_i_glide_lignum>  (273) 
6

>  <i_i_glide_rotatable_bonds>  (273) 
0

>  <r_i_docking_score>  (273) 
-1.42721

>  <r_i_glide_ligand_efficiency>  (273) 
-0.0419767

>  <r_i_glide_ligand_efficiency_sa>  (273) 
-0.135988

>  <r_i_glide_ligand_efficiency_ln>  (273) 
-0.31531

>  <r_i_glide_gscore>  (273) 
-1.42721

>  <r_i_glide_lipo>  (273) 
-0.0788756

>  <r_i_glide_hbond>  (273) 
0

>  <r_i_glide_metal>  (273) 
-0

>  <r_i_glide_rewards>  (273) 
-0.24053

>  <r_i_glide_evdw>  (273) 
-21.1812

>  <r_i_glide_ecoul>  (273) 
-0.31729

>  <r_i_glide_erotb>  (273) 
0

>  <r_i_glide_esite>  (273) 
-0.00114878

>  <r_i_glide_emodel>  (273) 
-22.9934

>  <r_i_glide_energy>  (273) 
-21.4985

>  <r_i_glide_einternal>  (273) 
0

>  <r_i_glide_intrahb_reward>  (273) 
-0

>  <i_i_glide_confnum>  (273) 
2

>  <i_i_glide_posenum>  (273) 
17

>  <r_i_glide_eff_state_penalty>  (273) 
0

>  <ligand_id>  (273) 
86

>  <original_smiles>  (273) 
CC1=C2CCC13OC2CC1(C)C3CC(=O)C2C3CCC4(C)CCC(C)(C)CC4C3(C)CCC21C

>  <smiles>  (273) 
[H]C([H])([H])C1=C2C([H])([H])C([H])([H])C13OC2([H])C([H])([H])C1(C([H])([H])[H])C3([H])C([H])([H])C(=O)C2([H])C3([H])C([H])([H])C([H])([H])C4(C([H])([H])[H])C([H])([H])C([H])([H])C(C([H])([H])[H])(C([H])([H])[H])C([H])([H])C4([H])C3(C([H])([H])[H])C([H])([H])C([H])([H])C21C([H])([H])[H]

$$$$
87:0:0
     RDKit          3D

 45 48  0  0  1  0  0  0  0  0999 V2000
    2.0909   -1.5816    5.4125 C   0  0  0  0  0  0  0  0  0  0  0  0
    1.7585   -2.1799    4.0367 C   0  0  2  0  0  0  0  0  0  0  0  0
    1.9511   -3.6943    4.0098 C   0  0  0  0  0  0  0  0  0  0  0  0
    1.2327   -4.4805    4.6267 O   0  0  0  0  0  0  0  0  0  0  0  0
    2.9973   -4.0211    3.2349 O   0  0  0  0  0  0  0  0  0  0  0  0
    3.6636   -2.8990    2.6773 C   0  0  2  0  0  0  0  0  0  0  0  0
    4.9798   -2.6926    3.4566 C   0  0  0  0  0  0  0  0  0  0  0  0
    2.7236   -1.7603    2.9585 C   0  0  0  0  0  0  0  0  0  0  0  0
    2.5854   -0.7040    2.1392 C   0  0  0  0  0  0  0  0  0  0  0  0
    3.4173   -0.5123    0.8804 C   0  0  0  0  0  0  0  0  0  0  0  0
    4.3012   -1.7293    0.4841 C   0  0  2  0  0  0  0  0  0  0  0  0
    4.4922   -1.8638   -1.0556 C   0  0  2  0  0  0  0  0  0  0  0  0
    3.2390   -2.0090   -1.9030 C   0  0  0  0  0  0  0  0  0  0  0  0
    3.8092   -2.5064   -3.2273 C   0  0  1  0  0  0  0  0  0  0  0  0
    4.2106   -1.4054   -4.0117 O   0  0  0  0  0  0  0  0  0  0  0  0
    4.8960   -3.3116   -2.8776 O   0  0  0  0  0  0  0  0  0  0  0  0
    5.2860   -3.1024   -1.5131 C   0  0  1  0  0  0  0  0  0  0  0  0
    6.8050   -2.8696   -1.5034 C   0  0  0  0  0  0  0  0  0  0  0  0
    4.8692   -4.3790   -0.7422 C   0  0  0  0  0  0  0  0  0  0  0  0
    4.8208   -4.1908    0.7750 C   0  0  0  0  0  0  0  0  0  0  0  0
    3.8535   -3.0569    1.1454 C   0  0  1  0  0  0  0  0  0  0  0  0
    3.0847   -1.8727    5.7597 H   0  0  0  0  0  0  0  0  0  0  0  0
    1.3770   -1.9114    6.1701 H   0  0  0  0  0  0  0  0  0  0  0  0
    2.0605   -0.4916    5.3783 H   0  0  0  0  0  0  0  0  0  0  0  0
    0.7356   -1.9472    3.7471 H   0  0  0  0  0  0  0  0  0  0  0  0
    5.5113   -1.8005    3.1246 H   0  0  0  0  0  0  0  0  0  0  0  0
    5.6454   -3.5478    3.3558 H   0  0  0  0  0  0  0  0  0  0  0  0
    4.7900   -2.5701    4.5214 H   0  0  0  0  0  0  0  0  0  0  0  0
    1.8100    0.0265    2.3187 H   0  0  0  0  0  0  0  0  0  0  0  0
    2.6896   -0.2950    0.0986 H   0  0  0  0  0  0  0  0  0  0  0  0
    4.0316    0.3845    0.9901 H   0  0  0  0  0  0  0  0  0  0  0  0
    5.2944   -1.5195    0.8810 H   0  0  0  0  0  0  0  0  0  0  0  0
    5.0082   -0.9687   -1.4022 H   0  0  0  0  0  0  0  0  0  0  0  0
    2.5586   -2.7605   -1.5016 H   0  0  0  0  0  0  0  0  0  0  0  0
    2.6852   -1.0777   -2.0393 H   0  0  0  0  0  0  0  0  0  0  0  0
    3.0710   -3.0725   -3.8029 H   0  0  0  0  0  0  0  0  0  0  0  0
    3.5840   -0.7122   -3.8685 H   0  0  0  0  0  0  0  0  0  0  0  0
    7.1822   -2.6681   -0.5010 H   0  0  0  0  0  0  0  0  0  0  0  0
    7.0639   -2.0297   -2.1442 H   0  0  0  0  0  0  0  0  0  0  0  0
    7.3408   -3.7307   -1.8970 H   0  0  0  0  0  0  0  0  0  0  0  0
    3.8829   -4.6936   -1.0813 H   0  0  0  0  0  0  0  0  0  0  0  0
    5.5354   -5.2049   -0.9767 H   0  0  0  0  0  0  0  0  0  0  0  0
    4.4961   -5.1215    1.2410 H   0  0  0  0  0  0  0  0  0  0  0  0
    5.8254   -3.9918    1.1490 H   0  0  0  0  0  0  0  0  0  0  0  0
    2.8769   -3.3162    0.7368 H   0  0  0  0  0  0  0  0  0  0  0  0
  1  2  1  0
  1 22  1  0
  1 23  1  0
  1 24  1  0
  2  8  1  0
  2  3  1  0
  2 25  1  6
  3  4  2  0
  3  5  1  0
  5  6  1  0
  6 21  1  0
  6  7  1  1
  6  8  1  0
  7 26  1  0
  7 27  1  0
  7 28  1  0
  8  9  2  0
  9 10  1  0
  9 29  1  0
 10 11  1  0
 10 30  1  0
 10 31  1  0
 11 21  1  0
 11 12  1  0
 11 32  1  1
 12 17  1  0
 12 13  1  0
 12 33  1  6
 13 14  1  0
 13 34  1  0
 13 35  1  0
 14 15  1  0
 14 16  1  0
 14 36  1  6
 15 37  1  0
 16 17  1  0
 17 18  1  6
 17 19  1  0
 18 38  1  0
 18 39  1  0
 18 40  1  0
 19 20  1  0
 19 41  1  0
 19 42  1  0
 20 21  1  0
 20 43  1  0
 20 44  1  0
 21 45  1  6
M  END
>  <i_m_ct_stereo_status>  (274) 
1

>  <s_m_source_file>  (274) 
/var/tmp/pbs.5076255.sched01/tmpy8l6melh/117u1qm2xak.sdf

>  <i_m_source_file_index>  (274) 
7

>  <i_lp_mmshare_version>  (274) 
48012

>  <i_f3d_flags>  (274) 
0

>  <s_epik_input>  (274) 
Tz1DKE8xKVtDQEBIXShbQ0gzXSlDKFtDQEBdMTJbQ0gzXSk9W0NIXVtDSDJdW0NAQEhdM1tDQEhdNFtDQF0oW0NIM10pKE9bQ0BASF0oW0NIMl00KVtPSF0pW0NIMl1bQ0gyXVtDQEBIXTIz

>  <s_epik_cmdline>  (274) 
J2VwaWtfcHl0aG9uJywgJy1waHQnLCAnMi4wJywgJy1waCcsICc3LjAnLCAnLXRuJywgJzgnLCAnLW1hJywgJzIwMCcsICctaW1hZScsICc8aW5maWxlLm1hZT4nLCAnLW9tYWUnLCAnPG91dGZpbGUubWFlPic=

>  <r_lp_tautomer_probability>  (274) 
1

>  <r_epik_Ionization_Penalty>  (274) 
2.70789e-08

>  <r_epik_Ionization_Penalty_Charging>  (274) 
0

>  <r_epik_Ionization_Penalty_Neutral>  (274) 
2.70789e-08

>  <r_epik_State_Penalty>  (274) 
-0

>  <r_epik_Charging_Adjusted_Penalty>  (274) 
0

>  <i_epik_Tot_Q>  (274) 
0

>  <i_epik_Tot_abs_Q>  (274) 
0

>  <s_epik_Chemistry_Notes>  (274) 
This compound has an ester and may undergo hydrolysis at high or low pH. This compound contains an acetal/aminal-like group ( X-CH(R)-Y where X, Y are N, S, or O) that may be acid/base labile, releasing an aldehyde.

>  <s_lp_Force_Field>  (274) 
OPLS3e

>  <r_lp_Energy>  (274) 
16.5824

>  <b_lp_Chiralities_Consistent>  (274) 
1

>  <s_lp_Variant>  (274) 
87:0-1

>  <s_i_glide_gridfile>  (274) 
pfpi4k_grid

>  <i_i_glide_lignum>  (274) 
7

>  <i_i_glide_rotatable_bonds>  (274) 
1

>  <r_i_docking_score>  (274) 
-3.44082

>  <r_i_glide_ligand_efficiency>  (274) 
-0.163849

>  <r_i_glide_ligand_efficiency_sa>  (274) 
-0.452046

>  <r_i_glide_ligand_efficiency_ln>  (274) 
-0.850736

>  <r_i_glide_gscore>  (274) 
-3.44082

>  <r_i_glide_lipo>  (274) 
-0.156286

>  <r_i_glide_hbond>  (274) 
0

>  <r_i_glide_metal>  (274) 
-0

>  <r_i_glide_rewards>  (274) 
-1.6149

>  <r_i_glide_evdw>  (274) 
-24.2355

>  <r_i_glide_ecoul>  (274) 
-3.05241

>  <r_i_glide_erotb>  (274) 
0

>  <r_i_glide_esite>  (274) 
0

>  <r_i_glide_emodel>  (274) 
-32.6551

>  <r_i_glide_energy>  (274) 
-27.2879

>  <r_i_glide_einternal>  (274) 
1.95738

>  <r_i_glide_intrahb_reward>  (274) 
-0

>  <i_i_glide_confnum>  (274) 
1

>  <i_i_glide_posenum>  (274) 
33

>  <r_i_glide_eff_state_penalty>  (274) 
0

>  <ligand_id>  (274) 
87

>  <original_smiles>  (274) 
CC1C(=O)OC2(C)C1=CCC1C3CC(O)OC3(C)CCC12

>  <smiles>  (274) 
[H]OC1([H])OC2(C([H])([H])[H])C([H])([H])C([H])([H])C3([H])C4(C([H])([H])[H])OC(=O)C([H])(C([H])([H])[H])C4=C([H])C([H])([H])C3([H])C2([H])C1([H])[H]

$$$$
87:0:1
     RDKit          3D

 45 48  0  0  1  0  0  0  0  0999 V2000
    5.0131   -3.8049   -3.3177 C   0  0  0  0  0  0  0  0  0  0  0  0
    3.8779   -3.0578   -2.6003 C   0  0  2  0  0  0  0  0  0  0  0  0
    3.9791   -1.5522   -2.8234 C   0  0  0  0  0  0  0  0  0  0  0  0
    3.8135   -1.0149   -3.9191 O   0  0  0  0  0  0  0  0  0  0  0  0
    4.3174   -0.9310   -1.6829 O   0  0  0  0  0  0  0  0  0  0  0  0
    4.5114   -1.8136   -0.5901 C   0  0  2  0  0  0  0  0  0  0  0  0
    6.0338   -1.9277   -0.3535 C   0  0  0  0  0  0  0  0  0  0  0  0
    3.9729   -3.1213   -1.0973 C   0  0  0  0  0  0  0  0  0  0  0  0
    3.3860   -4.0310   -0.2995 C   0  0  0  0  0  0  0  0  0  0  0  0
    3.2636   -3.8733    1.2072 C   0  0  0  0  0  0  0  0  0  0  0  0
    3.6903   -2.4819    1.7482 C   0  0  2  0  0  0  0  0  0  0  0  0
    2.8886   -2.0646    3.0098 C   0  0  2  0  0  0  0  0  0  0  0  0
    1.3768   -1.9996    2.8776 C   0  0  0  0  0  0  0  0  0  0  0  0
    0.9997   -1.2019    4.1236 C   0  0  1  0  0  0  0  0  0  0  0  0
    0.8912   -2.0702    5.2295 O   0  0  0  0  0  0  0  0  0  0  0  0
    2.0314   -0.2787    4.2972 O   0  0  0  0  0  0  0  0  0  0  0  0
    3.1907   -0.6508    3.5443 C   0  0  1  0  0  0  0  0  0  0  0  0
    4.3953   -0.6220    4.5023 C   0  0  0  0  0  0  0  0  0  0  0  0
    3.2969    0.3977    2.4134 C   0  0  0  0  0  0  0  0  0  0  0  0
    4.2045   -0.0542    1.2650 C   0  0  0  0  0  0  0  0  0  0  0  0
    3.7097   -1.3755    0.6645 C   0  0  1  0  0  0  0  0  0  0  0  0
    5.9992   -3.4078   -3.0695 H   0  0  0  0  0  0  0  0  0  0  0  0
    4.8992   -3.7432   -4.4012 H   0  0  0  0  0  0  0  0  0  0  0  0
    5.0159   -4.8610   -3.0501 H   0  0  0  0  0  0  0  0  0  0  0  0
    2.9024   -3.4097   -2.9323 H   0  0  0  0  0  0  0  0  0  0  0  0
    6.2702   -2.6533    0.4256 H   0  0  0  0  0  0  0  0  0  0  0  0
    6.4679   -0.9697   -0.0715 H   0  0  0  0  0  0  0  0  0  0  0  0
    6.5450   -2.2563   -1.2569 H   0  0  0  0  0  0  0  0  0  0  0  0
    2.9167   -4.9078   -0.7195 H   0  0  0  0  0  0  0  0  0  0  0  0
    2.2203   -4.0827    1.4408 H   0  0  0  0  0  0  0  0  0  0  0  0
    3.8450   -4.6607    1.6907 H   0  0  0  0  0  0  0  0  0  0  0  0
    4.7209   -2.5936    2.0835 H   0  0  0  0  0  0  0  0  0  0  0  0
    3.1147   -2.7890    3.7928 H   0  0  0  0  0  0  0  0  0  0  0  0
    1.0664   -1.4456    1.9909 H   0  0  0  0  0  0  0  0  0  0  0  0
    0.8832   -2.9741    2.8787 H   0  0  0  0  0  0  0  0  0  0  0  0
    0.0437   -0.6882    4.0171 H   0  0  0  0  0  0  0  0  0  0  0  0
    1.6816   -2.5862    5.2656 H   0  0  0  0  0  0  0  0  0  0  0  0
    5.3172   -0.9209    4.0044 H   0  0  0  0  0  0  0  0  0  0  0  0
    4.2378   -1.2993    5.3423 H   0  0  0  0  0  0  0  0  0  0  0  0
    4.5467    0.3739    4.9188 H   0  0  0  0  0  0  0  0  0  0  0  0
    2.3061    0.6170    2.0107 H   0  0  0  0  0  0  0  0  0  0  0  0
    3.6621    1.3388    2.8229 H   0  0  0  0  0  0  0  0  0  0  0  0
    4.2164    0.7137    0.4929 H   0  0  0  0  0  0  0  0  0  0  0  0
    5.2293   -0.1449    1.6239 H   0  0  0  0  0  0  0  0  0  0  0  0
    2.6817   -1.2171    0.3405 H   0  0  0  0  0  0  0  0  0  0  0  0
  1  2  1  0
  1 22  1  0
  1 23  1  0
  1 24  1  0
  2  8  1  0
  2  3  1  0
  2 25  1  6
  3  4  2  0
  3  5  1  0
  5  6  1  0
  6 21  1  0
  6  7  1  1
  6  8  1  0
  7 26  1  0
  7 27  1  0
  7 28  1  0
  8  9  2  0
  9 10  1  0
  9 29  1  0
 10 11  1  0
 10 30  1  0
 10 31  1  0
 11 21  1  0
 11 12  1  0
 11 32  1  1
 12 17  1  0
 12 13  1  0
 12 33  1  1
 13 14  1  0
 13 34  1  0
 13 35  1  0
 14 15  1  0
 14 16  1  0
 14 36  1  6
 15 37  1  0
 16 17  1  0
 17 18  1  1
 17 19  1  0
 18 38  1  0
 18 39  1  0
 18 40  1  0
 19 20  1  0
 19 41  1  0
 19 42  1  0
 20 21  1  0
 20 43  1  0
 20 44  1  0
 21 45  1  6
M  END
>  <i_m_ct_stereo_status>  (275) 
1

>  <s_m_source_file>  (275) 
/var/tmp/pbs.5076255.sched01/tmpy8l6melh/117u1qm2xak.sdf

>  <i_m_source_file_index>  (275) 
7

>  <i_lp_mmshare_version>  (275) 
48012

>  <i_f3d_flags>  (275) 
0

>  <s_epik_input>  (275) 
Tz1DKE8xKVtDQEBIXShbQ0gzXSlDKFtDQEBdMTJbQ0gzXSk9W0NIXVtDSDJdW0NAQEhdM1tDQEhdNFtDQF0oW0NIM10pKE9bQ0BASF0oW0NIMl00KVtPSF0pW0NIMl1bQ0gyXVtDQEBIXTIz

>  <s_epik_cmdline>  (275) 
J2VwaWtfcHl0aG9uJywgJy1waHQnLCAnMi4wJywgJy1waCcsICc3LjAnLCAnLXRuJywgJzgnLCAnLW1hJywgJzIwMCcsICctaW1hZScsICc8aW5maWxlLm1hZT4nLCAnLW9tYWUnLCAnPG91dGZpbGUubWFlPic=

>  <r_lp_tautomer_probability>  (275) 
1

>  <r_epik_Ionization_Penalty>  (275) 
2.70789e-08

>  <r_epik_Ionization_Penalty_Charging>  (275) 
0

>  <r_epik_Ionization_Penalty_Neutral>  (275) 
2.70789e-08

>  <r_epik_State_Penalty>  (275) 
-0

>  <r_epik_Charging_Adjusted_Penalty>  (275) 
0

>  <i_epik_Tot_Q>  (275) 
0

>  <i_epik_Tot_abs_Q>  (275) 
0

>  <s_epik_Chemistry_Notes>  (275) 
This compound has an ester and may undergo hydrolysis at high or low pH. This compound contains an acetal/aminal-like group ( X-CH(R)-Y where X, Y are N, S, or O) that may be acid/base labile, releasing an aldehyde.

>  <s_lp_Force_Field>  (275) 
OPLS3e

>  <r_lp_Energy>  (275) 
16.5824

>  <b_lp_Chiralities_Consistent>  (275) 
1

>  <s_lp_Variant>  (275) 
87:0-1

>  <s_i_glide_gridfile>  (275) 
pfpi4k_grid

>  <i_i_glide_lignum>  (275) 
7

>  <i_i_glide_rotatable_bonds>  (275) 
1

>  <r_i_docking_score>  (275) 
-3.41729

>  <r_i_glide_ligand_efficiency>  (275) 
-0.162728

>  <r_i_glide_ligand_efficiency_sa>  (275) 
-0.448955

>  <r_i_glide_ligand_efficiency_ln>  (275) 
-0.844918

>  <r_i_glide_gscore>  (275) 
-3.41729

>  <r_i_glide_lipo>  (275) 
-0.215174

>  <r_i_glide_hbond>  (275) 
0

>  <r_i_glide_metal>  (275) 
-0

>  <r_i_glide_rewards>  (275) 
-1.41566

>  <r_i_glide_evdw>  (275) 
-27.5967

>  <r_i_glide_ecoul>  (275) 
-2.61216

>  <r_i_glide_erotb>  (275) 
0

>  <r_i_glide_esite>  (275) 
-0.0147974

>  <r_i_glide_emodel>  (275) 
-36.5119

>  <r_i_glide_energy>  (275) 
-30.2089

>  <r_i_glide_einternal>  (275) 
0.00139761

>  <r_i_glide_intrahb_reward>  (275) 
-0

>  <i_i_glide_confnum>  (275) 
1

>  <i_i_glide_posenum>  (275) 
9

>  <r_i_glide_eff_state_penalty>  (275) 
0

>  <ligand_id>  (275) 
87

>  <original_smiles>  (275) 
CC1C(=O)OC2(C)C1=CCC1C3CC(O)OC3(C)CCC12

>  <smiles>  (275) 
[H]OC1([H])OC2(C([H])([H])[H])C([H])([H])C([H])([H])C3([H])C4(C([H])([H])[H])OC(=O)C([H])(C([H])([H])[H])C4=C([H])C([H])([H])C3([H])C2([H])C1([H])[H]

$$$$
87:0:2
     RDKit          3D

 45 48  0  0  1  0  0  0  0  0999 V2000
    4.7833   -3.5852   -3.4368 C   0  0  0  0  0  0  0  0  0  0  0  0
    3.7031   -2.8123   -2.6661 C   0  0  2  0  0  0  0  0  0  0  0  0
    3.8695   -1.3069   -2.8423 C   0  0  0  0  0  0  0  0  0  0  0  0
    3.7044   -0.7220   -3.9123 O   0  0  0  0  0  0  0  0  0  0  0  0
    4.2637   -0.7423   -1.6892 O   0  0  0  0  0  0  0  0  0  0  0  0
    4.4362   -1.6711   -0.6303 C   0  0  2  0  0  0  0  0  0  0  0  0
    5.9562   -1.8593   -0.4298 C   0  0  0  0  0  0  0  0  0  0  0  0
    3.8286   -2.9357   -1.1704 C   0  0  0  0  0  0  0  0  0  0  0  0
    3.2185   -3.8448   -0.3925 C   0  0  0  0  0  0  0  0  0  0  0  0
    3.1392   -3.7403    1.1227 C   0  0  0  0  0  0  0  0  0  0  0  0
    3.6339   -2.3875    1.7025 C   0  0  2  0  0  0  0  0  0  0  0  0
    2.8712   -1.9834    2.9936 C   0  0  2  0  0  0  0  0  0  0  0  0
    1.3613   -1.8500    2.8934 C   0  0  0  0  0  0  0  0  0  0  0  0
    1.0442   -1.0842    4.1745 C   0  0  1  0  0  0  0  0  0  0  0  0
    0.9181   -1.9849    5.2487 O   0  0  0  0  0  0  0  0  0  0  0  0
    2.1194   -0.2151    4.3638 O   0  0  0  0  0  0  0  0  0  0  0  0
    3.2459   -0.6059    3.5717 C   0  0  1  0  0  0  0  0  0  0  0  0
    4.4711   -0.6615    4.5029 C   0  0  0  0  0  0  0  0  0  0  0  0
    3.3742    0.4778    2.4776 C   0  0  0  0  0  0  0  0  0  0  0  0
    4.2325    0.0324    1.2905 C   0  0  0  0  0  0  0  0  0  0  0  0
    3.6750   -1.2446    0.6564 C   0  0  1  0  0  0  0  0  0  0  0  0
    5.7933   -3.2463   -3.1933 H   0  0  0  0  0  0  0  0  0  0  0  0
    4.6512   -3.4739   -4.5138 H   0  0  0  0  0  0  0  0  0  0  0  0
    4.7325   -4.6501   -3.2110 H   0  0  0  0  0  0  0  0  0  0  0  0
    2.7068   -3.1107   -2.9895 H   0  0  0  0  0  0  0  0  0  0  0  0
    6.1754   -2.6214    0.3185 H   0  0  0  0  0  0  0  0  0  0  0  0
    6.4365   -0.9316   -0.1242 H   0  0  0  0  0  0  0  0  0  0  0  0
    6.4349   -2.1787   -1.3545 H   0  0  0  0  0  0  0  0  0  0  0  0
    2.6931   -4.6699   -0.8464 H   0  0  0  0  0  0  0  0  0  0  0  0
    2.0953   -3.9128    1.3762 H   0  0  0  0  0  0  0  0  0  0  0  0
    3.6972   -4.5675    1.5653 H   0  0  0  0  0  0  0  0  0  0  0  0
    4.6657   -2.5535    2.0130 H   0  0  0  0  0  0  0  0  0  0  0  0
    3.0749   -2.7429    3.7491 H   0  0  0  0  0  0  0  0  0  0  0  0
    1.0579   -1.2516    2.0320 H   0  0  0  0  0  0  0  0  0  0  0  0
    0.8274   -2.8020    2.8787 H   0  0  0  0  0  0  0  0  0  0  0  0
    0.1098   -0.5228    4.1026 H   0  0  0  0  0  0  0  0  0  0  0  0
    0.8096   -1.4741    6.0375 H   0  0  0  0  0  0  0  0  0  0  0  0
    5.3687   -0.9810    3.9745 H   0  0  0  0  0  0  0  0  0  0  0  0
    4.3010   -1.3620    5.3211 H   0  0  0  0  0  0  0  0  0  0  0  0
    4.6741    0.3111    4.9506 H   0  0  0  0  0  0  0  0  0  0  0  0
    2.3868    0.7545    2.1043 H   0  0  0  0  0  0  0  0  0  0  0  0
    3.7915    1.3826    2.9119 H   0  0  0  0  0  0  0  0  0  0  0  0
    4.2511    0.8272    0.5464 H   0  0  0  0  0  0  0  0  0  0  0  0
    5.2622   -0.1124    1.6205 H   0  0  0  0  0  0  0  0  0  0  0  0
    2.6470   -1.0311    0.3614 H   0  0  0  0  0  0  0  0  0  0  0  0
  1  2  1  0
  1 22  1  0
  1 23  1  0
  1 24  1  0
  2  8  1  0
  2  3  1  0
  2 25  1  6
  3  4  2  0
  3  5  1  0
  5  6  1  0
  6 21  1  0
  6  7  1  1
  6  8  1  0
  7 26  1  0
  7 27  1  0
  7 28  1  0
  8  9  2  0
  9 10  1  0
  9 29  1  0
 10 11  1  0
 10 30  1  0
 10 31  1  0
 11 21  1  0
 11 12  1  0
 11 32  1  1
 12 17  1  0
 12 13  1  0
 12 33  1  1
 13 14  1  0
 13 34  1  0
 13 35  1  0
 14 15  1  0
 14 16  1  0
 14 36  1  6
 15 37  1  0
 16 17  1  0
 17 18  1  1
 17 19  1  0
 18 38  1  0
 18 39  1  0
 18 40  1  0
 19 20  1  0
 19 41  1  0
 19 42  1  0
 20 21  1  0
 20 43  1  0
 20 44  1  0
 21 45  1  6
M  END
>  <i_m_ct_stereo_status>  (276) 
1

>  <s_m_source_file>  (276) 
/var/tmp/pbs.5076255.sched01/tmpy8l6melh/117u1qm2xak.sdf

>  <i_m_source_file_index>  (276) 
7

>  <i_lp_mmshare_version>  (276) 
48012

>  <i_f3d_flags>  (276) 
0

>  <s_epik_input>  (276) 
Tz1DKE8xKVtDQEBIXShbQ0gzXSlDKFtDQEBdMTJbQ0gzXSk9W0NIXVtDSDJdW0NAQEhdM1tDQEhdNFtDQF0oW0NIM10pKE9bQ0BASF0oW0NIMl00KVtPSF0pW0NIMl1bQ0gyXVtDQEBIXTIz

>  <s_epik_cmdline>  (276) 
J2VwaWtfcHl0aG9uJywgJy1waHQnLCAnMi4wJywgJy1waCcsICc3LjAnLCAnLXRuJywgJzgnLCAnLW1hJywgJzIwMCcsICctaW1hZScsICc8aW5maWxlLm1hZT4nLCAnLW9tYWUnLCAnPG91dGZpbGUubWFlPic=

>  <r_lp_tautomer_probability>  (276) 
1

>  <r_epik_Ionization_Penalty>  (276) 
2.70789e-08

>  <r_epik_Ionization_Penalty_Charging>  (276) 
0

>  <r_epik_Ionization_Penalty_Neutral>  (276) 
2.70789e-08

>  <r_epik_State_Penalty>  (276) 
-0

>  <r_epik_Charging_Adjusted_Penalty>  (276) 
0

>  <i_epik_Tot_Q>  (276) 
0

>  <i_epik_Tot_abs_Q>  (276) 
0

>  <s_epik_Chemistry_Notes>  (276) 
This compound has an ester and may undergo hydrolysis at high or low pH. This compound contains an acetal/aminal-like group ( X-CH(R)-Y where X, Y are N, S, or O) that may be acid/base labile, releasing an aldehyde.

>  <s_lp_Force_Field>  (276) 
OPLS3e

>  <r_lp_Energy>  (276) 
16.5824

>  <b_lp_Chiralities_Consistent>  (276) 
1

>  <s_lp_Variant>  (276) 
87:0-1

>  <s_i_glide_gridfile>  (276) 
pfpi4k_grid

>  <i_i_glide_lignum>  (276) 
7

>  <i_i_glide_rotatable_bonds>  (276) 
1

>  <r_i_docking_score>  (276) 
-3.30571

>  <r_i_glide_ligand_efficiency>  (276) 
-0.157415

>  <r_i_glide_ligand_efficiency_sa>  (276) 
-0.434295

>  <r_i_glide_ligand_efficiency_ln>  (276) 
-0.81733

>  <r_i_glide_gscore>  (276) 
-3.30571

>  <r_i_glide_lipo>  (276) 
-0.276966

>  <r_i_glide_hbond>  (276) 
0

>  <r_i_glide_metal>  (276) 
-0

>  <r_i_glide_rewards>  (276) 
-1.41566

>  <r_i_glide_evdw>  (276) 
-27.5729

>  <r_i_glide_ecoul>  (276) 
-1.41643

>  <r_i_glide_erotb>  (276) 
0

>  <r_i_glide_esite>  (276) 
-0.0219758

>  <r_i_glide_emodel>  (276) 
-34.9126

>  <r_i_glide_energy>  (276) 
-28.9893

>  <r_i_glide_einternal>  (276) 
0.334204

>  <r_i_glide_intrahb_reward>  (276) 
-0

>  <i_i_glide_confnum>  (276) 
1

>  <i_i_glide_posenum>  (276) 
10

>  <r_i_glide_eff_state_penalty>  (276) 
0

>  <ligand_id>  (276) 
87

>  <original_smiles>  (276) 
CC1C(=O)OC2(C)C1=CCC1C3CC(O)OC3(C)CCC12

>  <smiles>  (276) 
[H]OC1([H])OC2(C([H])([H])[H])C([H])([H])C([H])([H])C3([H])C4(C([H])([H])[H])OC(=O)C([H])(C([H])([H])[H])C4=C([H])C([H])([H])C3([H])C2([H])C1([H])[H]

$$$$
88:0:0
     RDKit          3D

 47 50  0  0  1  0  0  0  0  0999 V2000
    7.6126   -2.3933   -0.6251 C   0  0  0  0  0  0  0  0  0  0  0  0
    6.3222   -1.8427    0.0102 C   0  0  2  0  0  0  0  0  0  0  0  0
    6.5752   -1.5082    1.4724 C   0  0  0  0  0  0  0  0  0  0  0  0
    5.3360   -0.9584    2.1663 C   0  0  0  0  0  0  0  0  0  0  0  0
    4.2105   -2.0032    2.1694 C   0  0  2  0  0  0  0  0  0  0  0  0
    4.4890   -3.1910    3.1276 C   0  0  1  0  0  0  0  0  0  0  0  0
    4.8340   -2.7960    4.5772 C   0  0  0  0  0  0  0  0  0  0  0  0
    3.2953   -4.1297    3.0775 C   0  0  0  0  0  0  0  0  0  0  0  0
    2.6314   -4.4074    4.0816 O   0  0  0  0  0  0  0  0  0  0  0  0
    2.9532   -4.6824    1.7081 C   0  0  1  0  0  0  0  0  0  0  0  0
    1.7903   -5.7020    1.7994 C   0  0  0  0  0  0  0  0  0  0  0  0
    2.7407   -3.5146    0.6935 C   0  0  2  0  0  0  0  0  0  0  0  0
    2.5219   -4.1170   -0.6890 C   0  0  0  0  0  0  0  0  0  0  0  0
    2.5516   -3.1708   -1.9003 C   0  0  0  0  0  0  0  0  0  0  0  0
    3.8146   -2.2905   -1.9667 C   0  0  1  0  0  0  0  0  0  0  0  0
    4.0968   -1.9038   -3.4216 C   0  0  0  0  0  0  0  0  0  0  0  0
    3.7327   -1.0602   -1.2815 O   0  0  0  0  0  0  0  0  0  0  0  0
    3.2827   -1.2854    0.1506 O   0  0  0  0  0  0  0  0  0  0  0  0
    3.8791   -2.4458    0.7036 C   0  0  1  0  0  0  0  0  0  0  0  0
    5.1574   -2.8530   -0.1103 C   0  0  1  0  0  0  0  0  0  0  0  0
    4.9084   -3.0484   -1.5047 O   0  0  0  0  0  0  0  0  0  0  0  0
    7.9161   -3.3336   -0.1701 H   0  0  0  0  0  0  0  0  0  0  0  0
    8.4493   -1.7058   -0.5010 H   0  0  0  0  0  0  0  0  0  0  0  0
    7.4727   -2.5776   -1.6913 H   0  0  0  0  0  0  0  0  0  0  0  0
    6.0545   -0.9059   -0.4789 H   0  0  0  0  0  0  0  0  0  0  0  0
    6.8957   -2.4187    1.9779 H   0  0  0  0  0  0  0  0  0  0  0  0
    7.3780   -0.7786    1.5502 H   0  0  0  0  0  0  0  0  0  0  0  0
    5.5698   -0.6365    3.1804 H   0  0  0  0  0  0  0  0  0  0  0  0
    5.0064   -0.0607    1.6446 H   0  0  0  0  0  0  0  0  0  0  0  0
    3.3230   -1.4968    2.5475 H   0  0  0  0  0  0  0  0  0  0  0  0
    5.3294   -3.7648    2.7308 H   0  0  0  0  0  0  0  0  0  0  0  0
    4.9257   -3.6827    5.2103 H   0  0  0  0  0  0  0  0  0  0  0  0
    4.0788   -2.1464    5.0233 H   0  0  0  0  0  0  0  0  0  0  0  0
    5.7907   -2.2864    4.6372 H   0  0  0  0  0  0  0  0  0  0  0  0
    3.8362   -5.2424    1.3941 H   0  0  0  0  0  0  0  0  0  0  0  0
    1.9850   -6.4609    2.5540 H   0  0  0  0  0  0  0  0  0  0  0  0
    1.6259   -6.2339    0.8655 H   0  0  0  0  0  0  0  0  0  0  0  0
    0.8613   -5.2172    2.0970 H   0  0  0  0  0  0  0  0  0  0  0  0
    1.8447   -2.9706    0.9826 H   0  0  0  0  0  0  0  0  0  0  0  0
    3.3085   -4.8684   -0.7900 H   0  0  0  0  0  0  0  0  0  0  0  0
    1.5862   -4.6619   -0.7309 H   0  0  0  0  0  0  0  0  0  0  0  0
    2.5406   -3.7925   -2.8005 H   0  0  0  0  0  0  0  0  0  0  0  0
    1.6240   -2.6257   -1.9805 H   0  0  0  0  0  0  0  0  0  0  0  0
    4.9509   -1.2321   -3.4480 H   0  0  0  0  0  0  0  0  0  0  0  0
    3.2465   -1.3889   -3.8775 H   0  0  0  0  0  0  0  0  0  0  0  0
    4.3307   -2.7821   -4.0249 H   0  0  0  0  0  0  0  0  0  0  0  0
    5.4921   -3.8124    0.2759 H   0  0  0  0  0  0  0  0  0  0  0  0
  1  2  1  0
  1 22  1  0
  1 23  1  0
  1 24  1  0
  2 20  1  0
  2  3  1  0
  2 25  1  6
  3  4  1  0
  3 26  1  0
  3 27  1  0
  4  5  1  0
  4 28  1  0
  4 29  1  0
  5 19  1  0
  5  6  1  0
  5 30  1  1
  6  7  1  0
  6  8  1  0
  6 31  1  6
  7 32  1  0
  7 33  1  0
  7 34  1  0
  8  9  2  0
  8 10  1  0
 10 11  1  0
 10 12  1  0
 10 35  1  6
 11 36  1  0
 11 37  1  0
 11 38  1  0
 12 19  1  0
 12 13  1  0
 12 39  1  1
 13 14  1  0
 13 40  1  0
 13 41  1  0
 14 15  1  0
 14 42  1  0
 14 43  1  0
 15 21  1  0
 15 16  1  6
 15 17  1  0
 16 44  1  0
 16 45  1  0
 16 46  1  0
 17 18  1  0
 19 18  1  6
 19 20  1  0
 20 21  1  0
 20 47  1  1
M  END
>  <i_m_ct_stereo_status>  (277) 
1

>  <s_m_source_file>  (277) 
/var/tmp/pbs.5076255.sched01/tmpy8l6melh/117u1qm2xak.sdf

>  <i_m_source_file_index>  (277) 
8

>  <i_lp_mmshare_version>  (277) 
48012

>  <i_f3d_flags>  (277) 
0

>  <s_epik_input>  (277) 
W0NAXTEyM1tDQEBIXTRbQ0gyXVtDSDJdW0NAQEhdKFtDSDNdKVtDQEBIXTNPW0NAXShbQ0gzXSkoT08yKVtDSDJdW0NIMl1bQ0BIXTFbQ0BIXShbQ0gzXSlDKD1PKVtDQEBIXTRbQ0gzXQ==

>  <s_epik_cmdline>  (277) 
J2VwaWtfcHl0aG9uJywgJy1waHQnLCAnMi4wJywgJy1waCcsICc3LjAnLCAnLXRuJywgJzgnLCAnLW1hJywgJzIwMCcsICctaW1hZScsICc8aW5maWxlLm1hZT4nLCAnLW9tYWUnLCAnPG91dGZpbGUubWFlPic=

>  <r_lp_tautomer_probability>  (277) 
1

>  <r_epik_Ionization_Penalty>  (277) 
1.97864e-13

>  <r_epik_Ionization_Penalty_Charging>  (277) 
0

>  <r_epik_Ionization_Penalty_Neutral>  (277) 
1.97864e-13

>  <r_epik_State_Penalty>  (277) 
-0

>  <r_epik_Charging_Adjusted_Penalty>  (277) 
0

>  <i_epik_Tot_Q>  (277) 
0

>  <i_epik_Tot_abs_Q>  (277) 
0

>  <s_lp_Force_Field>  (277) 
OPLS3e

>  <r_lp_Energy>  (277) 
26.5143

>  <b_lp_Chiralities_Consistent>  (277) 
1

>  <s_lp_Variant>  (277) 
88:0-1

>  <s_i_glide_gridfile>  (277) 
pfpi4k_grid

>  <i_i_glide_lignum>  (277) 
8

>  <i_i_glide_rotatable_bonds>  (277) 
0

>  <r_i_docking_score>  (277) 
-2.8416

>  <r_i_glide_ligand_efficiency>  (277) 
-0.135314

>  <r_i_glide_ligand_efficiency_sa>  (277) 
-0.373321

>  <r_i_glide_ligand_efficiency_ln>  (277) 
-0.702579

>  <r_i_glide_gscore>  (277) 
-2.8416

>  <r_i_glide_lipo>  (277) 
-0.522259

>  <r_i_glide_hbond>  (277) 
0

>  <r_i_glide_metal>  (277) 
-0

>  <r_i_glide_rewards>  (277) 
-1.40196

>  <r_i_glide_evdw>  (277) 
-18.9356

>  <r_i_glide_ecoul>  (277) 
0.348903

>  <r_i_glide_erotb>  (277) 
0

>  <r_i_glide_esite>  (277) 
-0.0229338

>  <r_i_glide_emodel>  (277) 
-20.3223

>  <r_i_glide_energy>  (277) 
-18.5867

>  <r_i_glide_einternal>  (277) 
0

>  <r_i_glide_intrahb_reward>  (277) 
-0

>  <i_i_glide_confnum>  (277) 
2

>  <i_i_glide_posenum>  (277) 
6

>  <r_i_glide_eff_state_penalty>  (277) 
0

>  <ligand_id>  (277) 
88

>  <original_smiles>  (277) 
CC1CCC2C(C)C(=O)C(C)C3CCC4(C)OOC23C1O4

>  <smiles>  (277) 
[H]C([H])([H])C12OOC34C([H])(O1)C([H])(C([H])([H])[H])C([H])([H])C([H])([H])C3([H])C([H])(C([H])([H])[H])C(=O)C([H])(C([H])([H])[H])C4([H])C([H])([H])C2([H])[H]

$$$$
88:0:1
     RDKit          3D

 47 50  0  0  1  0  0  0  0  0999 V2000
    7.6261   -2.6337   -1.6511 C   0  0  0  0  0  0  0  0  0  0  0  0
    6.4837   -2.2565   -0.7131 C   0  0  2  0  0  0  0  0  0  0  0  0
    6.9100   -2.5708    0.7100 C   0  0  0  0  0  0  0  0  0  0  0  0
    5.8014   -2.2005    1.6850 C   0  0  0  0  0  0  0  0  0  0  0  0
    4.5181   -3.0061    1.4077 C   0  0  2  0  0  0  0  0  0  0  0  0
    4.6648   -4.5008    1.7834 C   0  0  1  0  0  0  0  0  0  0  0  0
    5.1747   -4.7889    3.2103 C   0  0  0  0  0  0  0  0  0  0  0  0
    3.3426   -5.1912    1.5211 C   0  0  0  0  0  0  0  0  0  0  0  0
    2.7296   -5.7964    2.3949 O   0  0  0  0  0  0  0  0  0  0  0  0
    2.8086   -5.0633    0.1091 C   0  0  1  0  0  0  0  0  0  0  0  0
    1.4978   -5.8562   -0.0304 C   0  0  0  0  0  0  0  0  0  0  0  0
    2.7267   -3.5859   -0.3613 C   0  0  2  0  0  0  0  0  0  0  0  0
    2.2974   -3.5272   -1.8391 C   0  0  0  0  0  0  0  0  0  0  0  0
    2.5289   -2.3239   -2.6852 C   0  0  0  0  0  0  0  0  0  0  0  0
    3.8157   -1.5650   -2.4512 C   0  0  1  0  0  0  0  0  0  0  0  0
    3.9980   -0.6456   -3.6451 C   0  0  0  0  0  0  0  0  0  0  0  0
    3.9105   -0.6852   -1.3196 O   0  0  0  0  0  0  0  0  0  0  0  0
    3.5435   -1.4309   -0.0295 O   0  0  0  0  0  0  0  0  0  0  0  0
    4.0187   -2.7725   -0.0586 C   0  0  1  0  0  0  0  0  0  0  0  0
    5.1656   -2.9474   -1.1109 C   0  0  1  0  0  0  0  0  0  0  0  0
    4.8491   -2.5224   -2.4348 O   0  0  0  0  0  0  0  0  0  0  0  0
    7.8509   -3.6942   -1.7052 H   0  0  0  0  0  0  0  0  0  0  0  0
    8.5507   -2.1061   -1.4263 H   0  0  0  0  0  0  0  0  0  0  0  0
    7.3606   -2.3128   -2.6423 H   0  0  0  0  0  0  0  0  0  0  0  0
    6.3155   -1.1807   -0.7753 H   0  0  0  0  0  0  0  0  0  0  0  0
    7.1648   -3.6243    0.8160 H   0  0  0  0  0  0  0  0  0  0  0  0
    7.8113   -2.0035    0.9347 H   0  0  0  0  0  0  0  0  0  0  0  0
    6.1394   -2.3204    2.7110 H   0  0  0  0  0  0  0  0  0  0  0  0
    5.5960   -1.1352    1.6070 H   0  0  0  0  0  0  0  0  0  0  0  0
    3.7623   -2.6043    2.0812 H   0  0  0  0  0  0  0  0  0  0  0  0
    5.3589   -4.9621    1.0911 H   0  0  0  0  0  0  0  0  0  0  0  0
    5.1857   -5.8582    3.4305 H   0  0  0  0  0  0  0  0  0  0  0  0
    4.5759   -4.2899    3.9706 H   0  0  0  0  0  0  0  0  0  0  0  0
    6.1977   -4.4538    3.3260 H   0  0  0  0  0  0  0  0  0  0  0  0
    3.5608   -5.5693   -0.4914 H   0  0  0  0  0  0  0  0  0  0  0  0
    1.5769   -6.8653    0.3496 H   0  0  0  0  0  0  0  0  0  0  0  0
    1.2353   -5.9388   -1.0710 H   0  0  0  0  0  0  0  0  0  0  0  0
    0.6425   -5.4626    0.4780 H   0  0  0  0  0  0  0  0  0  0  0  0
    1.9225   -3.1333    0.2179 H   0  0  0  0  0  0  0  0  0  0  0  0
    2.9410   -4.2578   -2.3899 H   0  0  0  0  0  0  0  0  0  0  0  0
    1.2865   -3.9096   -1.9603 H   0  0  0  0  0  0  0  0  0  0  0  0
    2.2570   -2.5084   -3.7298 H   0  0  0  0  0  0  0  0  0  0  0  0
    1.7975   -1.6851   -2.3412 H   0  0  0  0  0  0  0  0  0  0  0  0
    4.9403   -0.1551   -3.4274 H   0  0  0  0  0  0  0  0  0  0  0  0
    3.2483    0.1484   -3.7746 H   0  0  0  0  0  0  0  0  0  0  0  0
    4.1179   -1.1600   -4.5981 H   0  0  0  0  0  0  0  0  0  0  0  0
    5.3502   -4.0067   -1.2078 H   0  0  0  0  0  0  0  0  0  0  0  0
  1  2  1  0
  1 22  1  0
  1 23  1  0
  1 24  1  0
  2 20  1  0
  2  3  1  0
  2 25  1  1
  3  4  1  0
  3 26  1  0
  3 27  1  0
  4  5  1  0
  4 28  1  0
  4 29  1  0
  5 19  1  0
  5  6  1  0
  5 30  1  1
  6  7  1  0
  6  8  1  0
  6 31  1  6
  7 32  1  0
  7 33  1  0
  7 34  1  0
  8  9  2  0
  8 10  1  0
 10 11  1  0
 10 12  1  0
 10 35  1  6
 11 36  1  0
 11 37  1  0
 11 38  1  0
 12 19  1  0
 12 13  1  0
 12 39  1  1
 13 14  1  0
 13 40  1  0
 13 41  1  0
 14 15  1  0
 14 42  1  0
 14 43  1  0
 15 21  1  0
 15 16  1  6
 15 17  1  0
 16 44  1  0
 16 45  1  0
 16 46  1  0
 17 18  1  0
 19 18  1  1
 19 20  1  0
 20 21  1  0
 20 47  1  6
M  END
>  <i_m_ct_stereo_status>  (278) 
1

>  <s_m_source_file>  (278) 
/var/tmp/pbs.5076255.sched01/tmpy8l6melh/117u1qm2xak.sdf

>  <i_m_source_file_index>  (278) 
8

>  <i_lp_mmshare_version>  (278) 
48012

>  <i_f3d_flags>  (278) 
0

>  <s_epik_input>  (278) 
W0NAXTEyM1tDQEBIXTRbQ0gyXVtDSDJdW0NAQEhdKFtDSDNdKVtDQEBIXTNPW0NAXShbQ0gzXSkoT08yKVtDSDJdW0NIMl1bQ0BIXTFbQ0BIXShbQ0gzXSlDKD1PKVtDQEBIXTRbQ0gzXQ==

>  <s_epik_cmdline>  (278) 
J2VwaWtfcHl0aG9uJywgJy1waHQnLCAnMi4wJywgJy1waCcsICc3LjAnLCAnLXRuJywgJzgnLCAnLW1hJywgJzIwMCcsICctaW1hZScsICc8aW5maWxlLm1hZT4nLCAnLW9tYWUnLCAnPG91dGZpbGUubWFlPic=

>  <r_lp_tautomer_probability>  (278) 
1

>  <r_epik_Ionization_Penalty>  (278) 
1.97864e-13

>  <r_epik_Ionization_Penalty_Charging>  (278) 
0

>  <r_epik_Ionization_Penalty_Neutral>  (278) 
1.97864e-13

>  <r_epik_State_Penalty>  (278) 
-0

>  <r_epik_Charging_Adjusted_Penalty>  (278) 
0

>  <i_epik_Tot_Q>  (278) 
0

>  <i_epik_Tot_abs_Q>  (278) 
0

>  <s_lp_Force_Field>  (278) 
OPLS3e

>  <r_lp_Energy>  (278) 
26.5143

>  <b_lp_Chiralities_Consistent>  (278) 
1

>  <s_lp_Variant>  (278) 
88:0-1

>  <s_i_glide_gridfile>  (278) 
pfpi4k_grid

>  <i_i_glide_lignum>  (278) 
8

>  <i_i_glide_rotatable_bonds>  (278) 
0

>  <r_i_docking_score>  (278) 
-2.46611

>  <r_i_glide_ligand_efficiency>  (278) 
-0.117434

>  <r_i_glide_ligand_efficiency_sa>  (278) 
-0.32399

>  <r_i_glide_ligand_efficiency_ln>  (278) 
-0.60974

>  <r_i_glide_gscore>  (278) 
-2.46611

>  <r_i_glide_lipo>  (278) 
-0.627083

>  <r_i_glide_hbond>  (278) 
0

>  <r_i_glide_metal>  (278) 
-0

>  <r_i_glide_rewards>  (278) 
-1.41056

>  <r_i_glide_evdw>  (278) 
-10.1252

>  <r_i_glide_ecoul>  (278) 
0.802249

>  <r_i_glide_erotb>  (278) 
0

>  <r_i_glide_esite>  (278) 
-0.0425423

>  <r_i_glide_emodel>  (278) 
-10.204

>  <r_i_glide_energy>  (278) 
-9.32295

>  <r_i_glide_einternal>  (278) 
0

>  <r_i_glide_intrahb_reward>  (278) 
-0

>  <i_i_glide_confnum>  (278) 
1

>  <i_i_glide_posenum>  (278) 
1

>  <r_i_glide_eff_state_penalty>  (278) 
0

>  <ligand_id>  (278) 
88

>  <original_smiles>  (278) 
CC1CCC2C(C)C(=O)C(C)C3CCC4(C)OOC23C1O4

>  <smiles>  (278) 
[H]C([H])([H])C12OOC34C([H])(O1)C([H])(C([H])([H])[H])C([H])([H])C([H])([H])C3([H])C([H])(C([H])([H])[H])C(=O)C([H])(C([H])([H])[H])C4([H])C([H])([H])C2([H])[H]

$$$$
89:0:0
     RDKit          3D

 52 55  0  0  1  0  0  0  0  0999 V2000
    2.7122   -3.2621    1.5422 C   0  0  0  0  0  0  0  0  0  0  0  0
    3.7290   -4.4069    1.3365 C   0  0  1  0  0  0  0  0  0  0  0  0
    4.1387   -4.4317   -0.1424 C   0  0  0  0  0  0  0  0  0  0  0  0
    5.1749   -3.7861   -0.7001 C   0  0  0  0  0  0  0  0  0  0  0  0
    6.0487   -2.9274    0.0986 C   0  0  0  0  0  0  0  0  0  0  0  0
    6.9235   -2.2174   -0.4052 O   0  0  0  0  0  0  0  0  0  0  0  0
    5.8403   -2.8889    1.6123 C   0  0  0  0  0  0  0  0  0  0  0  0
    4.9793   -4.0355    2.1466 C   0  0  0  0  0  0  0  0  0  0  0  0
    5.3165   -4.6701    3.2802 C   0  0  0  0  0  0  0  0  0  0  0  0
    4.5234   -5.7759    3.9341 C   0  0  0  0  0  0  0  0  0  0  0  0
    3.1367   -6.0351    3.3036 C   0  0  1  0  0  0  0  0  0  0  0  0
    3.1337   -5.8073    1.7670 C   0  0  1  0  0  0  0  0  0  0  0  0
    1.6784   -6.0959    1.3091 C   0  0  1  0  0  0  0  0  0  0  0  0
    1.4042   -5.8380   -0.0468 O   0  0  0  0  0  0  0  0  0  0  0  0
    1.3114   -7.5615    1.5238 C   0  0  0  0  0  0  0  0  0  0  0  0
    1.4302   -8.0786    2.9739 C   0  0  1  0  0  0  0  0  0  0  0  0
    1.6861   -9.6094    2.8550 C   0  0  0  0  0  0  0  0  0  0  0  0
    2.6410   -7.4578    3.7391 C   0  0  2  0  0  0  0  0  0  0  0  0
    2.2297   -7.4902    5.2322 C   0  0  0  0  0  0  0  0  0  0  0  0
    0.7762   -7.9889    5.3036 C   0  0  0  0  0  0  0  0  0  0  0  0
    0.1910   -7.8132    3.8898 C   0  0  1  0  0  0  0  0  0  0  0  0
   -0.2139   -6.4582    3.8265 O   0  0  0  0  0  0  0  0  0  0  0  0
   -1.0750   -8.6936    3.6812 C   0  0  0  0  0  0  0  0  0  0  0  0
   -1.6819   -8.5168    2.4160 O   0  0  0  0  0  0  0  0  0  0  0  0
    3.1417   -2.2961    1.2677 H   0  0  0  0  0  0  0  0  0  0  0  0
    2.3969   -3.1947    2.5858 H   0  0  0  0  0  0  0  0  0  0  0  0
    1.8254   -3.3824    0.9214 H   0  0  0  0  0  0  0  0  0  0  0  0
    3.5362   -5.0377   -0.7889 H   0  0  0  0  0  0  0  0  0  0  0  0
    5.3737   -3.8671   -1.7590 H   0  0  0  0  0  0  0  0  0  0  0  0
    6.8177   -2.9187    2.0796 H   0  0  0  0  0  0  0  0  0  0  0  0
    5.3822   -1.9380    1.8725 H   0  0  0  0  0  0  0  0  0  0  0  0
    6.2047   -4.3832    3.8065 H   0  0  0  0  0  0  0  0  0  0  0  0
    5.1476   -6.6706    3.9009 H   0  0  0  0  0  0  0  0  0  0  0  0
    4.4027   -5.5116    4.9852 H   0  0  0  0  0  0  0  0  0  0  0  0
    2.4533   -5.2941    3.7225 H   0  0  0  0  0  0  0  0  0  0  0  0
    3.7774   -6.5699    1.3319 H   0  0  0  0  0  0  0  0  0  0  0  0
    0.9977   -5.4673    1.8733 H   0  0  0  0  0  0  0  0  0  0  0  0
    2.1676   -6.0690   -0.5643 H   0  0  0  0  0  0  0  0  0  0  0  0
    0.3078   -7.7201    1.1390 H   0  0  0  0  0  0  0  0  0  0  0  0
    1.9611   -8.1673    0.8869 H   0  0  0  0  0  0  0  0  0  0  0  0
    1.7777  -10.0981    3.8277 H   0  0  0  0  0  0  0  0  0  0  0  0
    2.6149   -9.8147    2.3164 H   0  0  0  0  0  0  0  0  0  0  0  0
    0.8910  -10.1126    2.3003 H   0  0  0  0  0  0  0  0  0  0  0  0
    3.4881   -8.1337    3.6080 H   0  0  0  0  0  0  0  0  0  0  0  0
    2.8834   -8.1484    5.8100 H   0  0  0  0  0  0  0  0  0  0  0  0
    2.2961   -6.5034    5.6937 H   0  0  0  0  0  0  0  0  0  0  0  0
    0.7797   -9.0453    5.5787 H   0  0  0  0  0  0  0  0  0  0  0  0
    0.1975   -7.4784    6.0761 H   0  0  0  0  0  0  0  0  0  0  0  0
    0.5430   -5.9297    4.0396 H   0  0  0  0  0  0  0  0  0  0  0  0
   -0.8448   -9.7530    3.7827 H   0  0  0  0  0  0  0  0  0  0  0  0
   -1.8181   -8.4726    4.4494 H   0  0  0  0  0  0  0  0  0  0  0  0
   -1.1199   -8.8981    1.7547 H   0  0  0  0  0  0  0  0  0  0  0  0
  2  1  1  6
  1 25  1  0
  1 26  1  0
  1 27  1  0
  2  8  1  0
  2 12  1  0
  2  3  1  0
  3  4  2  0
  3 28  1  0
  4  5  1  0
  4 29  1  0
  5  6  2  0
  5  7  1  0
  7  8  1  0
  7 30  1  0
  7 31  1  0
  8  9  2  0
  9 10  1  0
  9 32  1  0
 10 11  1  0
 10 33  1  0
 10 34  1  0
 11 18  1  0
 11 12  1  0
 11 35  1  1
 12 13  1  0
 12 36  1  6
 13 14  1  0
 13 15  1  0
 13 37  1  1
 14 38  1  0
 15 16  1  0
 15 39  1  0
 15 40  1  0
 16 21  1  0
 16 17  1  6
 16 18  1  0
 17 41  1  0
 17 42  1  0
 17 43  1  0
 18 19  1  0
 18 44  1  1
 19 20  1  0
 19 45  1  0
 19 46  1  0
 20 21  1  0
 20 47  1  0
 20 48  1  0
 21 22  1  1
 21 23  1  0
 22 49  1  0
 23 24  1  0
 23 50  1  0
 23 51  1  0
 24 52  1  0
M  END
>  <i_m_ct_stereo_status>  (279) 
1

>  <s_m_source_file>  (279) 
/var/tmp/pbs.5076255.sched01/tmpy8l6melh/117u1qm2xak.sdf

>  <i_m_source_file_index>  (279) 
9

>  <i_lp_mmshare_version>  (279) 
48012

>  <i_f3d_flags>  (279) 
0

>  <s_epik_input>  (279) 
W0NIXTE9W0NIXUMoPU8pW0NIMl1DKFtDQEBdMTJbQ0gzXSk9W0NIXVtDSDJdW0NASF0zW0NASF0yW0NAQEhdKFtPSF0pW0NIMl1bQ0BAXTQoW0NIM10pW0NAQEhdM1tDSDJdW0NIMl1bQ0BdNChbT0hdKVtDSDJdW09IXQ==

>  <s_epik_cmdline>  (279) 
J2VwaWtfcHl0aG9uJywgJy1waHQnLCAnMi4wJywgJy1waCcsICc3LjAnLCAnLXRuJywgJzgnLCAnLW1hJywgJzIwMCcsICctaW1hZScsICc8aW5maWxlLm1hZT4nLCAnLW9tYWUnLCAnPG91dGZpbGUubWFlPic=

>  <r_lp_tautomer_probability>  (279) 
1

>  <r_epik_Ionization_Penalty>  (279) 
8.09067e-07

>  <r_epik_Ionization_Penalty_Charging>  (279) 
0

>  <r_epik_Ionization_Penalty_Neutral>  (279) 
8.09067e-07

>  <r_epik_State_Penalty>  (279) 
-0

>  <r_epik_Charging_Adjusted_Penalty>  (279) 
0

>  <i_epik_Tot_Q>  (279) 
0

>  <i_epik_Tot_abs_Q>  (279) 
0

>  <s_lp_Force_Field>  (279) 
OPLS3e

>  <r_lp_Energy>  (279) 
48.3696

>  <b_lp_Chiralities_Consistent>  (279) 
1

>  <s_lp_Variant>  (279) 
89:0-1

>  <s_i_glide_gridfile>  (279) 
pfpi4k_grid

>  <i_i_glide_lignum>  (279) 
9

>  <i_i_glide_rotatable_bonds>  (279) 
4

>  <r_i_docking_score>  (279) 
-4.38162

>  <r_i_glide_ligand_efficiency>  (279) 
-0.182568

>  <r_i_glide_ligand_efficiency_sa>  (279) 
-0.526616

>  <r_i_glide_ligand_efficiency_ln>  (279) 
-1.04872

>  <r_i_glide_gscore>  (279) 
-4.38162

>  <r_i_glide_lipo>  (279) 
-0.239223

>  <r_i_glide_hbond>  (279) 
-0.592869

>  <r_i_glide_metal>  (279) 
-0

>  <r_i_glide_rewards>  (279) 
-1.21139

>  <r_i_glide_evdw>  (279) 
-19.7814

>  <r_i_glide_ecoul>  (279) 
-10.13

>  <r_i_glide_erotb>  (279) 
0.170428

>  <r_i_glide_esite>  (279) 
0

>  <r_i_glide_emodel>  (279) 
-35.9208

>  <r_i_glide_energy>  (279) 
-29.9114

>  <r_i_glide_einternal>  (279) 
5.20132

>  <r_i_glide_intrahb_reward>  (279) 
-0

>  <i_i_glide_confnum>  (279) 
5

>  <i_i_glide_posenum>  (279) 
34

>  <r_i_glide_eff_state_penalty>  (279) 
0

>  <ligand_id>  (279) 
89

>  <original_smiles>  (279) 
CC12C=CC(=O)CC1=CCC1C2C(O)CC2(C)C1CCC2(O)CO

>  <smiles>  (279) 
[H]OC([H])([H])C1(O[H])C([H])([H])C([H])([H])C2([H])C3([H])C([H])([H])C([H])=C4C([H])([H])C(=O)C([H])=C([H])C4(C([H])([H])[H])C3([H])C([H])(O[H])C([H])([H])C21C([H])([H])[H]

$$$$
89:0:1
     RDKit          3D

 52 55  0  0  1  0  0  0  0  0999 V2000
    3.0361   -3.4250    1.8127 C   0  0  0  0  0  0  0  0  0  0  0  0
    3.9272   -4.6326    1.4530 C   0  0  1  0  0  0  0  0  0  0  0  0
    4.2296   -4.5763   -0.0522 C   0  0  0  0  0  0  0  0  0  0  0  0
    5.2864   -3.9841   -0.6352 C   0  0  0  0  0  0  0  0  0  0  0  0
    6.2865   -3.2696    0.1579 C   0  0  0  0  0  0  0  0  0  0  0  0
    7.1758   -2.5875   -0.3504 O   0  0  0  0  0  0  0  0  0  0  0  0
    6.1847   -3.3283    1.6808 C   0  0  0  0  0  0  0  0  0  0  0  0
    5.2586   -4.4318    2.1957 C   0  0  0  0  0  0  0  0  0  0  0  0
    5.6172   -5.1824    3.2508 C   0  0  0  0  0  0  0  0  0  0  0  0
    4.7689   -6.2583    3.8833 C   0  0  0  0  0  0  0  0  0  0  0  0
    3.3239   -6.3469    3.3404 C   0  0  1  0  0  0  0  0  0  0  0  0
    3.2366   -6.0033    1.8276 C   0  0  1  0  0  0  0  0  0  0  0  0
    1.7335   -6.1297    1.4458 C   0  0  1  0  0  0  0  0  0  0  0  0
    1.4157   -5.7806    0.1120 O   0  0  0  0  0  0  0  0  0  0  0  0
    1.2507   -7.5713    1.6000 C   0  0  0  0  0  0  0  0  0  0  0  0
    1.4238   -8.2010    3.0008 C   0  0  1  0  0  0  0  0  0  0  0  0
    1.5375   -9.7353    2.7532 C   0  0  0  0  0  0  0  0  0  0  0  0
    2.7355   -7.7493    3.7150 C   0  0  2  0  0  0  0  0  0  0  0  0
    2.4235   -7.8638    5.2267 C   0  0  0  0  0  0  0  0  0  0  0  0
    0.9398   -8.2421    5.3727 C   0  0  0  0  0  0  0  0  0  0  0  0
    0.2781   -7.9014    4.0267 C   0  0  1  0  0  0  0  0  0  0  0  0
   -0.0136   -6.5152    4.1084 O   0  0  0  0  0  0  0  0  0  0  0  0
   -1.0722   -8.6469    3.8311 C   0  0  0  0  0  0  0  0  0  0  0  0
   -1.7873   -8.1848    2.6996 O   0  0  0  0  0  0  0  0  0  0  0  0
    3.5334   -2.4824    1.5754 H   0  0  0  0  0  0  0  0  0  0  0  0
    2.8012   -3.4099    2.8791 H   0  0  0  0  0  0  0  0  0  0  0  0
    2.1047   -3.4249    1.2511 H   0  0  0  0  0  0  0  0  0  0  0  0
    3.5358   -5.0608   -0.7132 H   0  0  0  0  0  0  0  0  0  0  0  0
    5.4068   -3.9960   -1.7083 H   0  0  0  0  0  0  0  0  0  0  0  0
    7.1817   -3.4891    2.0785 H   0  0  0  0  0  0  0  0  0  0  0  0
    5.8342   -2.3626    2.0426 H   0  0  0  0  0  0  0  0  0  0  0  0
    6.5742   -5.0264    3.7274 H   0  0  0  0  0  0  0  0  0  0  0  0
    5.3068   -7.1978    3.7458 H   0  0  0  0  0  0  0  0  0  0  0  0
    4.7456   -6.0638    4.9577 H   0  0  0  0  0  0  0  0  0  0  0  0
    2.7415   -5.5852    3.8600 H   0  0  0  0  0  0  0  0  0  0  0  0
    3.7788   -6.7837    1.2968 H   0  0  0  0  0  0  0  0  0  0  0  0
    1.1420   -5.4733    2.0850 H   0  0  0  0  0  0  0  0  0  0  0  0
    2.1473   -6.0060   -0.4494 H   0  0  0  0  0  0  0  0  0  0  0  0
    0.2110   -7.6245    1.2914 H   0  0  0  0  0  0  0  0  0  0  0  0
    1.7912   -8.1824    0.8831 H   0  0  0  0  0  0  0  0  0  0  0  0
    1.6465  -10.3078    3.6768 H   0  0  0  0  0  0  0  0  0  0  0  0
    2.4072   -9.9787    2.1379 H   0  0  0  0  0  0  0  0  0  0  0  0
    0.6721  -10.1295    2.2164 H   0  0  0  0  0  0  0  0  0  0  0  0
    3.5047   -8.4845    3.4720 H   0  0  0  0  0  0  0  0  0  0  0  0
    3.0539   -8.6144    5.7064 H   0  0  0  0  0  0  0  0  0  0  0  0
    2.6103   -6.9241    5.7488 H   0  0  0  0  0  0  0  0  0  0  0  0
    0.8661   -9.3122    5.5672 H   0  0  0  0  0  0  0  0  0  0  0  0
    0.4643   -7.7448    6.2208 H   0  0  0  0  0  0  0  0  0  0  0  0
    0.7962   -6.0658    4.3034 H   0  0  0  0  0  0  0  0  0  0  0  0
   -0.9296   -9.7199    3.7197 H   0  0  0  0  0  0  0  0  0  0  0  0
   -1.7043   -8.5269    4.7091 H   0  0  0  0  0  0  0  0  0  0  0  0
   -2.4482   -8.8274    2.4818 H   0  0  0  0  0  0  0  0  0  0  0  0
  2  1  1  1
  1 25  1  0
  1 26  1  0
  1 27  1  0
  2  8  1  0
  2 12  1  0
  2  3  1  0
  3  4  2  0
  3 28  1  0
  4  5  1  0
  4 29  1  0
  5  6  2  0
  5  7  1  0
  7  8  1  0
  7 30  1  0
  7 31  1  0
  8  9  2  0
  9 10  1  0
  9 32  1  0
 10 11  1  0
 10 33  1  0
 10 34  1  0
 11 18  1  0
 11 12  1  0
 11 35  1  1
 12 13  1  0
 12 36  1  6
 13 14  1  0
 13 15  1  0
 13 37  1  1
 14 38  1  0
 15 16  1  0
 15 39  1  0
 15 40  1  0
 16 21  1  0
 16 17  1  6
 16 18  1  0
 17 41  1  0
 17 42  1  0
 17 43  1  0
 18 19  1  0
 18 44  1  6
 19 20  1  0
 19 45  1  0
 19 46  1  0
 20 21  1  0
 20 47  1  0
 20 48  1  0
 21 22  1  1
 21 23  1  0
 22 49  1  0
 23 24  1  0
 23 50  1  0
 23 51  1  0
 24 52  1  0
M  END
>  <i_m_ct_stereo_status>  (280) 
1

>  <s_m_source_file>  (280) 
/var/tmp/pbs.5076255.sched01/tmpy8l6melh/117u1qm2xak.sdf

>  <i_m_source_file_index>  (280) 
9

>  <i_lp_mmshare_version>  (280) 
48012

>  <i_f3d_flags>  (280) 
0

>  <s_epik_input>  (280) 
W0NIXTE9W0NIXUMoPU8pW0NIMl1DKFtDQEBdMTJbQ0gzXSk9W0NIXVtDSDJdW0NASF0zW0NASF0yW0NAQEhdKFtPSF0pW0NIMl1bQ0BAXTQoW0NIM10pW0NAQEhdM1tDSDJdW0NIMl1bQ0BdNChbT0hdKVtDSDJdW09IXQ==

>  <s_epik_cmdline>  (280) 
J2VwaWtfcHl0aG9uJywgJy1waHQnLCAnMi4wJywgJy1waCcsICc3LjAnLCAnLXRuJywgJzgnLCAnLW1hJywgJzIwMCcsICctaW1hZScsICc8aW5maWxlLm1hZT4nLCAnLW9tYWUnLCAnPG91dGZpbGUubWFlPic=

>  <r_lp_tautomer_probability>  (280) 
1

>  <r_epik_Ionization_Penalty>  (280) 
8.09067e-07

>  <r_epik_Ionization_Penalty_Charging>  (280) 
0

>  <r_epik_Ionization_Penalty_Neutral>  (280) 
8.09067e-07

>  <r_epik_State_Penalty>  (280) 
-0

>  <r_epik_Charging_Adjusted_Penalty>  (280) 
0

>  <i_epik_Tot_Q>  (280) 
0

>  <i_epik_Tot_abs_Q>  (280) 
0

>  <s_lp_Force_Field>  (280) 
OPLS3e

>  <r_lp_Energy>  (280) 
48.3696

>  <b_lp_Chiralities_Consistent>  (280) 
1

>  <s_lp_Variant>  (280) 
89:0-1

>  <s_i_glide_gridfile>  (280) 
pfpi4k_grid

>  <i_i_glide_lignum>  (280) 
9

>  <i_i_glide_rotatable_bonds>  (280) 
4

>  <r_i_docking_score>  (280) 
-3.87487

>  <r_i_glide_ligand_efficiency>  (280) 
-0.161453

>  <r_i_glide_ligand_efficiency_sa>  (280) 
-0.465711

>  <r_i_glide_ligand_efficiency_ln>  (280) 
-0.927434

>  <r_i_glide_gscore>  (280) 
-3.87487

>  <r_i_glide_lipo>  (280) 
-0.265792

>  <r_i_glide_hbond>  (280) 
-0.313306

>  <r_i_glide_metal>  (280) 
-0

>  <r_i_glide_rewards>  (280) 
-1.25526

>  <r_i_glide_evdw>  (280) 
-20.6325

>  <r_i_glide_ecoul>  (280) 
-7.86208

>  <r_i_glide_erotb>  (280) 
0.170428

>  <r_i_glide_esite>  (280) 
0

>  <r_i_glide_emodel>  (280) 
-32.773

>  <r_i_glide_energy>  (280) 
-28.4945

>  <r_i_glide_einternal>  (280) 
5.87596

>  <r_i_glide_intrahb_reward>  (280) 
-0

>  <i_i_glide_confnum>  (280) 
5

>  <i_i_glide_posenum>  (280) 
1

>  <r_i_glide_eff_state_penalty>  (280) 
0

>  <ligand_id>  (280) 
89

>  <original_smiles>  (280) 
CC12C=CC(=O)CC1=CCC1C2C(O)CC2(C)C1CCC2(O)CO

>  <smiles>  (280) 
[H]OC([H])([H])C1(O[H])C([H])([H])C([H])([H])C2([H])C3([H])C([H])([H])C([H])=C4C([H])([H])C(=O)C([H])=C([H])C4(C([H])([H])[H])C3([H])C([H])(O[H])C([H])([H])C21C([H])([H])[H]

$$$$
89:0:2
     RDKit          3D

 52 55  0  0  1  0  0  0  0  0999 V2000
    3.0948   -2.1476    0.3171 C   0  0  0  0  0  0  0  0  0  0  0  0
    3.9315   -3.0206   -0.6297 C   0  0  1  0  0  0  0  0  0  0  0  0
    3.1688   -3.1644   -1.9543 C   0  0  0  0  0  0  0  0  0  0  0  0
    3.3027   -2.3934   -3.0487 C   0  0  0  0  0  0  0  0  0  0  0  0
    4.1913   -1.2490   -3.0442 C   0  0  0  0  0  0  0  0  0  0  0  0
    4.2109   -0.4516   -3.9792 O   0  0  0  0  0  0  0  0  0  0  0  0
    5.0871   -1.0116   -1.8271 C   0  0  0  0  0  0  0  0  0  0  0  0
    5.2206   -2.2336   -0.9170 C   0  0  0  0  0  0  0  0  0  0  0  0
    6.4105   -2.5816   -0.4056 C   0  0  0  0  0  0  0  0  0  0  0  0
    6.6451   -3.7351    0.5403 C   0  0  0  0  0  0  0  0  0  0  0  0
    5.3609   -4.4193    1.0604 C   0  0  1  0  0  0  0  0  0  0  0  0
    4.2239   -4.4397    0.0035 C   0  0  1  0  0  0  0  0  0  0  0  0
    3.0076   -5.1278    0.6917 C   0  0  1  0  0  0  0  0  0  0  0  0
    1.8488   -5.2113   -0.1147 O   0  0  0  0  0  0  0  0  0  0  0  0
    3.3431   -6.5801    1.0300 C   0  0  0  0  0  0  0  0  0  0  0  0
    4.5848   -6.8296    1.9140 C   0  0  1  0  0  0  0  0  0  0  0  0
    5.0984   -8.2504    1.5375 C   0  0  0  0  0  0  0  0  0  0  0  0
    5.7423   -5.8307    1.6261 C   0  0  2  0  0  0  0  0  0  0  0  0
    6.5128   -5.7334    2.9634 C   0  0  0  0  0  0  0  0  0  0  0  0
    5.7498   -6.5477    4.0168 C   0  0  0  0  0  0  0  0  0  0  0  0
    4.3375   -6.7427    3.4552 C   0  0  1  0  0  0  0  0  0  0  0  0
    3.5998   -5.5676    3.7413 O   0  0  0  0  0  0  0  0  0  0  0  0
    3.5693   -7.9298    4.0943 C   0  0  0  0  0  0  0  0  0  0  0  0
    3.5714   -7.8468    5.5059 O   0  0  0  0  0  0  0  0  0  0  0  0
    2.9446   -1.1568   -0.1141 H   0  0  0  0  0  0  0  0  0  0  0  0
    3.5895   -2.0046    1.2797 H   0  0  0  0  0  0  0  0  0  0  0  0
    2.1088   -2.5762    0.4875 H   0  0  0  0  0  0  0  0  0  0  0  0
    2.4571   -3.9645   -2.0321 H   0  0  0  0  0  0  0  0  0  0  0  0
    2.7209   -2.5760   -3.9439 H   0  0  0  0  0  0  0  0  0  0  0  0
    6.0695   -0.7312   -2.1799 H   0  0  0  0  0  0  0  0  0  0  0  0
    4.6877   -0.1787   -1.2510 H   0  0  0  0  0  0  0  0  0  0  0  0
    7.2971   -2.0131   -0.6391 H   0  0  0  0  0  0  0  0  0  0  0  0
    7.2905   -4.4412    0.0192 H   0  0  0  0  0  0  0  0  0  0  0  0
    7.2158   -3.3462    1.3856 H   0  0  0  0  0  0  0  0  0  0  0  0
    4.9869   -3.8137    1.8849 H   0  0  0  0  0  0  0  0  0  0  0  0
    4.5583   -5.0767   -0.8147 H   0  0  0  0  0  0  0  0  0  0  0  0
    2.7270   -4.5814    1.5965 H   0  0  0  0  0  0  0  0  0  0  0  0
    2.1365   -5.4558   -0.9872 H   0  0  0  0  0  0  0  0  0  0  0  0
    2.4772   -7.0617    1.4739 H   0  0  0  0  0  0  0  0  0  0  0  0
    3.5291   -7.0564    0.0787 H   0  0  0  0  0  0  0  0  0  0  0  0
    5.9672   -8.5505    2.1269 H   0  0  0  0  0  0  0  0  0  0  0  0
    5.4014   -8.2978    0.4880 H   0  0  0  0  0  0  0  0  0  0  0  0
    4.3291   -9.0166    1.6600 H   0  0  0  0  0  0  0  0  0  0  0  0
    6.3957   -6.2986    0.8846 H   0  0  0  0  0  0  0  0  0  0  0  0
    7.5355   -6.1003    2.8644 H   0  0  0  0  0  0  0  0  0  0  0  0
    6.5715   -4.7004    3.2963 H   0  0  0  0  0  0  0  0  0  0  0  0
    6.2348   -7.5143    4.1392 H   0  0  0  0  0  0  0  0  0  0  0  0
    5.7552   -6.0766    5.0028 H   0  0  0  0  0  0  0  0  0  0  0  0
    4.0928   -4.8335    3.4097 H   0  0  0  0  0  0  0  0  0  0  0  0
    2.5405   -7.9693    3.7370 H   0  0  0  0  0  0  0  0  0  0  0  0
    4.0251   -8.8889    3.8566 H   0  0  0  0  0  0  0  0  0  0  0  0
    3.1176   -8.6002    5.8538 H   0  0  0  0  0  0  0  0  0  0  0  0
  2  1  1  1
  1 25  1  0
  1 26  1  0
  1 27  1  0
  2  8  1  0
  2 12  1  0
  2  3  1  0
  3  4  2  0
  3 28  1  0
  4  5  1  0
  4 29  1  0
  5  6  2  0
  5  7  1  0
  7  8  1  0
  7 30  1  0
  7 31  1  0
  8  9  2  0
  9 10  1  0
  9 32  1  0
 10 11  1  0
 10 33  1  0
 10 34  1  0
 11 18  1  0
 11 12  1  0
 11 35  1  1
 12 13  1  0
 12 36  1  6
 13 14  1  0
 13 15  1  0
 13 37  1  1
 14 38  1  0
 15 16  1  0
 15 39  1  0
 15 40  1  0
 16 21  1  0
 16 17  1  1
 16 18  1  0
 17 41  1  0
 17 42  1  0
 17 43  1  0
 18 19  1  0
 18 44  1  6
 19 20  1  0
 19 45  1  0
 19 46  1  0
 20 21  1  0
 20 47  1  0
 20 48  1  0
 21 22  1  6
 21 23  1  0
 22 49  1  0
 23 24  1  0
 23 50  1  0
 23 51  1  0
 24 52  1  0
M  END
>  <i_m_ct_stereo_status>  (281) 
1

>  <s_m_source_file>  (281) 
/var/tmp/pbs.5076255.sched01/tmpy8l6melh/117u1qm2xak.sdf

>  <i_m_source_file_index>  (281) 
9

>  <i_lp_mmshare_version>  (281) 
48012

>  <i_f3d_flags>  (281) 
0

>  <s_epik_input>  (281) 
W0NIXTE9W0NIXUMoPU8pW0NIMl1DKFtDQEBdMTJbQ0gzXSk9W0NIXVtDSDJdW0NASF0zW0NASF0yW0NAQEhdKFtPSF0pW0NIMl1bQ0BAXTQoW0NIM10pW0NAQEhdM1tDSDJdW0NIMl1bQ0BdNChbT0hdKVtDSDJdW09IXQ==

>  <s_epik_cmdline>  (281) 
J2VwaWtfcHl0aG9uJywgJy1waHQnLCAnMi4wJywgJy1waCcsICc3LjAnLCAnLXRuJywgJzgnLCAnLW1hJywgJzIwMCcsICctaW1hZScsICc8aW5maWxlLm1hZT4nLCAnLW9tYWUnLCAnPG91dGZpbGUubWFlPic=

>  <r_lp_tautomer_probability>  (281) 
1

>  <r_epik_Ionization_Penalty>  (281) 
8.09067e-07

>  <r_epik_Ionization_Penalty_Charging>  (281) 
0

>  <r_epik_Ionization_Penalty_Neutral>  (281) 
8.09067e-07

>  <r_epik_State_Penalty>  (281) 
-0

>  <r_epik_Charging_Adjusted_Penalty>  (281) 
0

>  <i_epik_Tot_Q>  (281) 
0

>  <i_epik_Tot_abs_Q>  (281) 
0

>  <s_lp_Force_Field>  (281) 
OPLS3e

>  <r_lp_Energy>  (281) 
48.3696

>  <b_lp_Chiralities_Consistent>  (281) 
1

>  <s_lp_Variant>  (281) 
89:0-1

>  <s_i_glide_gridfile>  (281) 
pfpi4k_grid

>  <i_i_glide_lignum>  (281) 
9

>  <i_i_glide_rotatable_bonds>  (281) 
4

>  <r_i_docking_score>  (281) 
-3.71957

>  <r_i_glide_ligand_efficiency>  (281) 
-0.154982

>  <r_i_glide_ligand_efficiency_sa>  (281) 
-0.447046

>  <r_i_glide_ligand_efficiency_ln>  (281) 
-0.890264

>  <r_i_glide_gscore>  (281) 
-3.71957

>  <r_i_glide_lipo>  (281) 
-0.430252

>  <r_i_glide_hbond>  (281) 
-0.375664

>  <r_i_glide_metal>  (281) 
-0

>  <r_i_glide_rewards>  (281) 
-1.18902

>  <r_i_glide_evdw>  (281) 
-20.8771

>  <r_i_glide_ecoul>  (281) 
-5.67475

>  <r_i_glide_erotb>  (281) 
0.170428

>  <r_i_glide_esite>  (281) 
0

>  <r_i_glide_emodel>  (281) 
-31.8572

>  <r_i_glide_energy>  (281) 
-26.5518

>  <r_i_glide_einternal>  (281) 
4.12026

>  <r_i_glide_intrahb_reward>  (281) 
-0

>  <i_i_glide_confnum>  (281) 
3

>  <i_i_glide_posenum>  (281) 
32

>  <r_i_glide_eff_state_penalty>  (281) 
0

>  <ligand_id>  (281) 
89

>  <original_smiles>  (281) 
CC12C=CC(=O)CC1=CCC1C2C(O)CC2(C)C1CCC2(O)CO

>  <smiles>  (281) 
[H]OC([H])([H])C1(O[H])C([H])([H])C([H])([H])C2([H])C3([H])C([H])([H])C([H])=C4C([H])([H])C(=O)C([H])=C([H])C4(C([H])([H])[H])C3([H])C([H])(O[H])C([H])([H])C21C([H])([H])[H]

$$$$
90:0:0
     RDKit          3D

 78 82  0  0  1  0  0  0  0  0999 V2000
    0.0748   -5.4027    5.5559 C   0  0  0  0  0  0  0  0  0  0  0  0
    1.3225   -6.3109    5.5833 C   0  0  0  0  0  0  0  0  0  0  0  0
    2.3142   -5.7160    6.6043 C   0  0  0  0  0  0  0  0  0  0  0  0
    0.9009   -7.7206    6.0451 C   0  0  0  0  0  0  0  0  0  0  0  0
    0.7578   -8.5542    4.7763 C   0  0  0  0  0  0  0  0  0  0  0  0
    1.8416   -8.0291    3.8231 C   0  0  2  0  0  0  0  0  0  0  0  0
    1.4467   -8.3254    2.3601 C   0  0  0  0  0  0  0  0  0  0  0  0
    3.2044   -8.6478    4.1698 C   0  0  0  0  0  0  0  0  0  0  0  0
    4.3238   -8.0360    3.3289 C   0  0  0  0  0  0  0  0  0  0  0  0
    4.5045   -6.4855    3.4794 C   0  0  2  0  0  0  0  0  0  0  0  0
    5.3766   -6.2803    4.7471 C   0  0  0  0  0  0  0  0  0  0  0  0
    3.1604   -5.7592    3.7346 C   0  0  0  0  0  0  0  0  0  0  0  0
    3.0902   -4.4412    3.5428 C   0  0  0  0  0  0  0  0  0  0  0  0
    4.2391   -3.5631    3.1102 C   0  0  0  0  0  0  0  0  0  0  0  0
    5.4171   -4.2554    2.3479 C   0  0  2  0  0  0  0  0  0  0  0  0
    5.9613   -3.4248    1.0768 C   0  0  2  0  0  0  0  0  0  0  0  0
    7.4708   -3.7768    0.8418 C   0  0  0  0  0  0  0  0  0  0  0  0
    5.8852   -1.8590    1.3545 C   0  0  1  0  0  0  0  0  0  0  0  0
    7.0146   -1.1027    0.9401 O   0  0  0  0  0  0  0  0  0  0  0  0
    4.6589   -1.1516    0.7671 C   0  0  0  0  0  0  0  0  0  0  0  0
    4.0203   -0.3201    1.4098 O   0  0  0  0  0  0  0  0  0  0  0  0
    4.3118   -1.4778   -0.6782 C   0  0  1  0  0  0  0  0  0  0  0  0
    5.3374   -0.9966   -1.5298 O   0  0  0  0  0  0  0  0  0  0  0  0
    4.0717   -2.9929   -0.8649 C   0  0  0  0  0  0  0  0  0  0  0  0
    2.7175   -3.3780   -0.2408 C   0  0  0  0  0  0  0  0  0  0  0  0
    3.9334   -3.2237   -2.3958 C   0  0  0  0  0  0  0  0  0  0  0  0
    5.2565   -3.8416   -0.2698 C   0  0  2  0  0  0  0  0  0  0  0  0
    5.0335   -5.3624   -0.3138 C   0  0  0  0  0  0  0  0  0  0  0  0
    4.4153   -6.0346    0.9139 C   0  0  0  0  0  0  0  0  0  0  0  0
    5.2413   -5.8327    2.2072 C   0  0  2  0  0  0  0  0  0  0  0  0
    6.6285   -6.5501    2.0547 C   0  0  0  0  0  0  0  0  0  0  0  0
    1.8754   -6.5188    4.1296 C   0  0  2  0  0  0  0  0  0  0  0  0
   -0.3616   -5.2939    6.5512 H   0  0  0  0  0  0  0  0  0  0  0  0
   -0.7008   -5.8153    4.9064 H   0  0  0  0  0  0  0  0  0  0  0  0
    0.3172   -4.4012    5.1951 H   0  0  0  0  0  0  0  0  0  0  0  0
    3.1788   -6.3604    6.7523 H   0  0  0  0  0  0  0  0  0  0  0  0
    1.8392   -5.6045    7.5814 H   0  0  0  0  0  0  0  0  0  0  0  0
    2.6685   -4.7285    6.3079 H   0  0  0  0  0  0  0  0  0  0  0  0
    1.6717   -8.1713    6.6709 H   0  0  0  0  0  0  0  0  0  0  0  0
   -0.0179   -7.7297    6.6318 H   0  0  0  0  0  0  0  0  0  0  0  0
    0.8404   -9.6251    4.9691 H   0  0  0  0  0  0  0  0  0  0  0  0
   -0.2336   -8.3832    4.3545 H   0  0  0  0  0  0  0  0  0  0  0  0
    2.0918   -7.8070    1.6523 H   0  0  0  0  0  0  0  0  0  0  0  0
    0.4263   -8.0092    2.1457 H   0  0  0  0  0  0  0  0  0  0  0  0
    1.5087   -9.3934    2.1469 H   0  0  0  0  0  0  0  0  0  0  0  0
    3.4349   -8.5055    5.2241 H   0  0  0  0  0  0  0  0  0  0  0  0
    3.1755   -9.7262    4.0115 H   0  0  0  0  0  0  0  0  0  0  0  0
    5.2377   -8.5485    3.6248 H   0  0  0  0  0  0  0  0  0  0  0  0
    4.1680   -8.3378    2.2989 H   0  0  0  0  0  0  0  0  0  0  0  0
    6.3848   -6.6740    4.6314 H   0  0  0  0  0  0  0  0  0  0  0  0
    4.9541   -6.7988    5.6026 H   0  0  0  0  0  0  0  0  0  0  0  0
    5.4688   -5.2307    5.0208 H   0  0  0  0  0  0  0  0  0  0  0  0
    2.1653   -3.9160    3.7380 H   0  0  0  0  0  0  0  0  0  0  0  0
    3.7652   -2.7760    2.5484 H   0  0  0  0  0  0  0  0  0  0  0  0
    4.6324   -3.0821    4.0052 H   0  0  0  0  0  0  0  0  0  0  0  0
    6.2155   -4.1608    3.0811 H   0  0  0  0  0  0  0  0  0  0  0  0
    7.9412   -3.1489    0.0871 H   0  0  0  0  0  0  0  0  0  0  0  0
    7.6429   -4.7730    0.4622 H   0  0  0  0  0  0  0  0  0  0  0  0
    8.0696   -3.6851    1.7360 H   0  0  0  0  0  0  0  0  0  0  0  0
    5.8356   -1.7223    2.4349 H   0  0  0  0  0  0  0  0  0  0  0  0
    7.0728   -0.3059    1.4526 H   0  0  0  0  0  0  0  0  0  0  0  0
    3.4051   -0.9375   -0.9524 H   0  0  0  0  0  0  0  0  0  0  0  0
    5.3113   -0.0495   -1.4852 H   0  0  0  0  0  0  0  0  0  0  0  0
    2.3896   -4.3711   -0.5499 H   0  0  0  0  0  0  0  0  0  0  0  0
    1.9502   -2.6736   -0.5571 H   0  0  0  0  0  0  0  0  0  0  0  0
    2.7348   -3.3548    0.8430 H   0  0  0  0  0  0  0  0  0  0  0  0
    3.5906   -4.2265   -2.6164 H   0  0  0  0  0  0  0  0  0  0  0  0
    4.8759   -3.1014   -2.9321 H   0  0  0  0  0  0  0  0  0  0  0  0
    3.2086   -2.5349   -2.8392 H   0  0  0  0  0  0  0  0  0  0  0  0
    6.0131   -3.6700   -1.0345 H   0  0  0  0  0  0  0  0  0  0  0  0
    4.4048   -5.6097   -1.1428 H   0  0  0  0  0  0  0  0  0  0  0  0
    5.9856   -5.8321   -0.5327 H   0  0  0  0  0  0  0  0  0  0  0  0
    3.3980   -5.6778    1.0512 H   0  0  0  0  0  0  0  0  0  0  0  0
    4.3211   -7.0843    0.6585 H   0  0  0  0  0  0  0  0  0  0  0  0
    6.9772   -6.6514    1.0358 H   0  0  0  0  0  0  0  0  0  0  0  0
    6.6388   -7.5812    2.3925 H   0  0  0  0  0  0  0  0  0  0  0  0
    7.4116   -6.0371    2.6135 H   0  0  0  0  0  0  0  0  0  0  0  0
    1.1298   -6.0843    3.4630 H   0  0  0  0  0  0  0  0  0  0  0  0
  1  2  1  0
  1 33  1  0
  1 34  1  0
  1 35  1  0
  2 32  1  0
  2  3  1  0
  2  4  1  0
  3 36  1  0
  3 37  1  0
  3 38  1  0
  4  5  1  0
  4 39  1  0
  4 40  1  0
  5  6  1  0
  5 41  1  0
  5 42  1  0
  6 32  1  0
  6  7  1  6
  6  8  1  0
  7 43  1  0
  7 44  1  0
  7 45  1  0
  8  9  1  0
  8 46  1  0
  8 47  1  0
  9 10  1  0
  9 48  1  0
  9 49  1  0
 10 30  1  0
 10 11  1  1
 10 12  1  0
 11 50  1  0
 11 51  1  0
 11 52  1  0
 12 13  2  0
 12 32  1  0
 13 14  1  0
 13 53  1  0
 14 15  1  0
 14 54  1  0
 14 55  1  0
 15 30  1  0
 15 16  1  0
 15 56  1  1
 16 27  1  0
 16 17  1  6
 16 18  1  0
 17 57  1  0
 17 58  1  0
 17 59  1  0
 18 19  1  0
 18 20  1  0
 18 60  1  1
 19 61  1  0
 20 21  2  0
 20 22  1  0
 22 23  1  0
 22 24  1  0
 22 62  1  6
 23 63  1  0
 24 25  1  0
 24 26  1  0
 24 27  1  0
 25 64  1  0
 25 65  1  0
 25 66  1  0
 26 67  1  0
 26 68  1  0
 26 69  1  0
 27 28  1  0
 27 70  1  6
 28 29  1  0
 28 71  1  0
 28 72  1  0
 29 30  1  0
 29 73  1  0
 29 74  1  0
 30 31  1  6
 31 75  1  0
 31 76  1  0
 31 77  1  0
 32 78  1  6
M  END
>  <i_m_ct_stereo_status>  (282) 
1

>  <s_m_source_file>  (282) 
/var/tmp/pbs.5076255.sched01/tmpy8l6melh/117u1qm2xak.sdf

>  <i_m_source_file_index>  (282) 
10

>  <i_lp_mmshare_version>  (282) 
48012

>  <i_f3d_flags>  (282) 
0

>  <s_epik_input>  (282) 
W0NIMl0xW0NIMl1DKFtDSDNdKShbQ0gzXSlbQ0BIXShbQ0BdMTJbQ0gzXSlDPTNbQ0BAXShbQ0gzXSkoW0NIMl1bQ0gyXTIpW0NAXTQoW0NIM10pW0NASF0oW0NIMl1bQ0hdMylbQ0BAXTUoW0NIM10pW0NAQEhdKFtDSDJdW0NIMl00KUMoW0NIM10pKFtDSDNdKVtDQEhdKFtPSF0pQyg9TylbQ0BASF01W09IXQ==

>  <s_epik_cmdline>  (282) 
J2VwaWtfcHl0aG9uJywgJy1waHQnLCAnMi4wJywgJy1waCcsICc3LjAnLCAnLXRuJywgJzgnLCAnLW1hJywgJzIwMCcsICctaW1hZScsICc8aW5maWxlLm1hZT4nLCAnLW9tYWUnLCAnPG91dGZpbGUubWFlPic=

>  <r_lp_tautomer_probability>  (282) 
1

>  <r_epik_Ionization_Penalty>  (282) 
1.64988e-07

>  <r_epik_Ionization_Penalty_Charging>  (282) 
0

>  <r_epik_Ionization_Penalty_Neutral>  (282) 
1.64988e-07

>  <r_epik_State_Penalty>  (282) 
-0

>  <r_epik_Charging_Adjusted_Penalty>  (282) 
0

>  <i_epik_Tot_Q>  (282) 
0

>  <i_epik_Tot_abs_Q>  (282) 
0

>  <s_lp_Force_Field>  (282) 
OPLS3e

>  <r_lp_Energy>  (282) 
109.783

>  <b_lp_Chiralities_Consistent>  (282) 
1

>  <s_lp_Variant>  (282) 
90:0-1

>  <s_i_glide_gridfile>  (282) 
pfpi4k_grid

>  <i_i_glide_lignum>  (282) 
10

>  <i_i_glide_rotatable_bonds>  (282) 
2

>  <r_i_docking_score>  (282) 
-3.20173

>  <r_i_glide_ligand_efficiency>  (282) 
-0.100054

>  <r_i_glide_ligand_efficiency_sa>  (282) 
-0.317652

>  <r_i_glide_ligand_efficiency_ln>  (282) 
-0.716954

>  <r_i_glide_gscore>  (282) 
-3.20173

>  <r_i_glide_lipo>  (282) 
-0.582297

>  <r_i_glide_hbond>  (282) 
0

>  <r_i_glide_metal>  (282) 
-0

>  <r_i_glide_rewards>  (282) 
-0.449619

>  <r_i_glide_evdw>  (282) 
-25.1007

>  <r_i_glide_ecoul>  (282) 
-6.09852

>  <r_i_glide_erotb>  (282) 
0

>  <r_i_glide_esite>  (282) 
0

>  <r_i_glide_emodel>  (282) 
-35.0745

>  <r_i_glide_energy>  (282) 
-31.1992

>  <r_i_glide_einternal>  (282) 
3.54572

>  <r_i_glide_intrahb_reward>  (282) 
-0

>  <i_i_glide_confnum>  (282) 
1

>  <i_i_glide_posenum>  (282) 
6

>  <r_i_glide_eff_state_penalty>  (282) 
0

>  <ligand_id>  (282) 
90

>  <original_smiles>  (282) 
CC1(C)CCC2(C)CCC3(C)C(=CCC4C5(C)C(O)C(=O)C(O)C(C)(C)C5CCC43C)C12

>  <smiles>  (282) 
[H]OC1([H])C(=O)C([H])(O[H])C2(C([H])([H])[H])C([H])(C([H])([H])C([H])([H])C3(C([H])([H])[H])C2([H])C([H])([H])C([H])=C2C4([H])C(C([H])([H])[H])(C([H])([H])[H])C([H])([H])C([H])([H])C4(C([H])([H])[H])C([H])([H])C([H])([H])C23C([H])([H])[H])C1(C([H])([H])[H])C([H])([H])[H]

$$$$
90:0:1
     RDKit          3D

 78 82  0  0  1  0  0  0  0  0999 V2000
    0.2094   -5.1996    5.3919 C   0  0  0  0  0  0  0  0  0  0  0  0
    1.4175   -6.1607    5.4411 C   0  0  0  0  0  0  0  0  0  0  0  0
    2.4217   -5.5983    6.4686 C   0  0  0  0  0  0  0  0  0  0  0  0
    0.9320   -7.5502    5.9079 C   0  0  0  0  0  0  0  0  0  0  0  0
    0.7672   -8.3869    4.6441 C   0  0  0  0  0  0  0  0  0  0  0  0
    1.8814   -7.9114    3.7006 C   0  0  2  0  0  0  0  0  0  0  0  0
    1.4868   -8.2052    2.2341 C   0  0  0  0  0  0  0  0  0  0  0  0
    3.2135   -8.5836    4.0628 C   0  0  0  0  0  0  0  0  0  0  0  0
    4.3660   -8.0249    3.2276 C   0  0  0  0  0  0  0  0  0  0  0  0
    4.6052   -6.4808    3.3649 C   0  0  2  0  0  0  0  0  0  0  0  0
    5.4757   -6.3015    4.6405 C   0  0  0  0  0  0  0  0  0  0  0  0
    3.2937   -5.7030    3.6030 C   0  0  0  0  0  0  0  0  0  0  0  0
    3.2792   -4.3776    3.4054 C   0  0  0  0  0  0  0  0  0  0  0  0
    4.4673   -3.5561    2.9722 C   0  0  0  0  0  0  0  0  0  0  0  0
    5.6124   -4.3053    2.2172 C   0  0  2  0  0  0  0  0  0  0  0  0
    6.1998   -3.4987    0.9518 C   0  0  2  0  0  0  0  0  0  0  0  0
    7.7088   -3.9010    0.7603 C   0  0  0  0  0  0  0  0  0  0  0  0
    6.1893   -1.9301    1.2269 C   0  0  1  0  0  0  0  0  0  0  0  0
    7.3692   -1.2378    0.8419 O   0  0  0  0  0  0  0  0  0  0  0  0
    5.0015   -1.1737    0.6186 C   0  0  0  0  0  0  0  0  0  0  0  0
    4.3821   -0.3286    1.2654 O   0  0  0  0  0  0  0  0  0  0  0  0
    4.6483   -1.4984   -0.8240 C   0  0  1  0  0  0  0  0  0  0  0  0
    5.7143   -1.1211   -1.6681 O   0  0  0  0  0  0  0  0  0  0  0  0
    4.3385   -3.0002   -1.0106 C   0  0  0  0  0  0  0  0  0  0  0  0
    2.9653   -3.3307   -0.3924 C   0  0  0  0  0  0  0  0  0  0  0  0
    4.2121   -3.2452   -2.5442 C   0  0  0  0  0  0  0  0  0  0  0  0
    5.4797   -3.8891   -0.3960 C   0  0  2  0  0  0  0  0  0  0  0  0
    5.1728   -5.3875   -0.4207 C   0  0  0  0  0  0  0  0  0  0  0  0
    4.5316   -6.0469    0.8010 C   0  0  0  0  0  0  0  0  0  0  0  0
    5.3731   -5.8733    2.0906 C   0  0  2  0  0  0  0  0  0  0  0  0
    6.7358   -6.6432    1.9552 C   0  0  0  0  0  0  0  0  0  0  0  0
    1.9748   -6.4017    3.9948 C   0  0  2  0  0  0  0  0  0  0  0  0
   -0.2345   -5.0662    6.3819 H   0  0  0  0  0  0  0  0  0  0  0  0
   -0.5764   -5.5827    4.7366 H   0  0  0  0  0  0  0  0  0  0  0  0
    0.4968   -4.2115    5.0273 H   0  0  0  0  0  0  0  0  0  0  0  0
    3.2571   -6.2760    6.6304 H   0  0  0  0  0  0  0  0  0  0  0  0
    1.9407   -5.4585    7.4395 H   0  0  0  0  0  0  0  0  0  0  0  0
    2.8167   -4.6278    6.1660 H   0  0  0  0  0  0  0  0  0  0  0  0
    1.6792   -8.0262    6.5459 H   0  0  0  0  0  0  0  0  0  0  0  0
    0.0095   -7.5142    6.4898 H   0  0  0  0  0  0  0  0  0  0  0  0
    0.8058   -9.4575    4.8452 H   0  0  0  0  0  0  0  0  0  0  0  0
   -0.2123   -8.1782    4.2122 H   0  0  0  0  0  0  0  0  0  0  0  0
    2.1605   -7.7193    1.5277 H   0  0  0  0  0  0  0  0  0  0  0  0
    0.4821   -7.8484    2.0049 H   0  0  0  0  0  0  0  0  0  0  0  0
    1.5062   -9.2777    2.0291 H   0  0  0  0  0  0  0  0  0  0  0  0
    3.4402   -8.4425    5.1199 H   0  0  0  0  0  0  0  0  0  0  0  0
    3.1433   -9.6636    3.9159 H   0  0  0  0  0  0  0  0  0  0  0  0
    5.2562   -8.5730    3.5351 H   0  0  0  0  0  0  0  0  0  0  0  0
    4.2067   -8.3308    2.1987 H   0  0  0  0  0  0  0  0  0  0  0  0
    6.4705   -6.7362    4.5398 H   0  0  0  0  0  0  0  0  0  0  0  0
    5.0240   -6.7956    5.4969 H   0  0  0  0  0  0  0  0  0  0  0  0
    5.6052   -5.2539    4.9090 H   0  0  0  0  0  0  0  0  0  0  0  0
    2.3756   -3.8177    3.5881 H   0  0  0  0  0  0  0  0  0  0  0  0
    4.0283   -2.7514    2.4030 H   0  0  0  0  0  0  0  0  0  0  0  0
    4.8763   -3.0824    3.8653 H   0  0  0  0  0  0  0  0  0  0  0  0
    6.4199   -4.2601    2.9372 H   0  0  0  0  0  0  0  0  0  0  0  0
    8.2159   -3.3018    0.0014 H   0  0  0  0  0  0  0  0  0  0  0  0
    7.8510   -4.9105    0.3987 H   0  0  0  0  0  0  0  0  0  0  0  0
    8.2935   -3.8104    1.6738 H   0  0  0  0  0  0  0  0  0  0  0  0
    6.1398   -1.7786    2.3060 H   0  0  0  0  0  0  0  0  0  0  0  0
    7.3744   -0.3819    1.2555 H   0  0  0  0  0  0  0  0  0  0  0  0
    3.7838   -0.9082   -1.1177 H   0  0  0  0  0  0  0  0  0  0  0  0
    5.4350   -1.2671   -2.5575 H   0  0  0  0  0  0  0  0  0  0  0  0
    2.6173   -4.3216   -0.6898 H   0  0  0  0  0  0  0  0  0  0  0  0
    2.2134   -2.6253   -0.7261 H   0  0  0  0  0  0  0  0  0  0  0  0
    2.9819   -3.2952    0.6922 H   0  0  0  0  0  0  0  0  0  0  0  0
    3.8199   -4.2307   -2.7772 H   0  0  0  0  0  0  0  0  0  0  0  0
    5.1664   -3.1837   -3.0695 H   0  0  0  0  0  0  0  0  0  0  0  0
    3.5379   -2.5196   -3.0026 H   0  0  0  0  0  0  0  0  0  0  0  0
    6.2587   -3.7722   -1.1514 H   0  0  0  0  0  0  0  0  0  0  0  0
    4.6189   -5.6391   -1.3171 H   0  0  0  0  0  0  0  0  0  0  0  0
    6.1180   -5.8582   -0.5950 H   0  0  0  0  0  0  0  0  0  0  0  0
    3.5267   -5.6559    0.9330 H   0  0  0  0  0  0  0  0  0  0  0  0
    4.4149   -7.0961    0.5453 H   0  0  0  0  0  0  0  0  0  0  0  0
    7.0953   -6.7649    0.9405 H   0  0  0  0  0  0  0  0  0  0  0  0
    6.7026   -7.6691    2.3059 H   0  0  0  0  0  0  0  0  0  0  0  0
    7.5348   -6.1620    2.5229 H   0  0  0  0  0  0  0  0  0  0  0  0
    1.2531   -5.9456    3.3174 H   0  0  0  0  0  0  0  0  0  0  0  0
  1  2  1  0
  1 33  1  0
  1 34  1  0
  1 35  1  0
  2 32  1  0
  2  3  1  0
  2  4  1  0
  3 36  1  0
  3 37  1  0
  3 38  1  0
  4  5  1  0
  4 39  1  0
  4 40  1  0
  5  6  1  0
  5 41  1  0
  5 42  1  0
  6 32  1  0
  6  7  1  6
  6  8  1  0
  7 43  1  0
  7 44  1  0
  7 45  1  0
  8  9  1  0
  8 46  1  0
  8 47  1  0
  9 10  1  0
  9 48  1  0
  9 49  1  0
 10 30  1  0
 10 11  1  1
 10 12  1  0
 11 50  1  0
 11 51  1  0
 11 52  1  0
 12 13  2  0
 12 32  1  0
 13 14  1  0
 13 53  1  0
 14 15  1  0
 14 54  1  0
 14 55  1  0
 15 30  1  0
 15 16  1  0
 15 56  1  1
 16 27  1  0
 16 17  1  6
 16 18  1  0
 17 57  1  0
 17 58  1  0
 17 59  1  0
 18 19  1  0
 18 20  1  0
 18 60  1  1
 19 61  1  0
 20 21  2  0
 20 22  1  0
 22 23  1  0
 22 24  1  0
 22 62  1  6
 23 63  1  0
 24 25  1  0
 24 26  1  0
 24 27  1  0
 25 64  1  0
 25 65  1  0
 25 66  1  0
 26 67  1  0
 26 68  1  0
 26 69  1  0
 27 28  1  0
 27 70  1  6
 28 29  1  0
 28 71  1  0
 28 72  1  0
 29 30  1  0
 29 73  1  0
 29 74  1  0
 30 31  1  6
 31 75  1  0
 31 76  1  0
 31 77  1  0
 32 78  1  6
M  END
>  <i_m_ct_stereo_status>  (283) 
1

>  <s_m_source_file>  (283) 
/var/tmp/pbs.5076255.sched01/tmpy8l6melh/117u1qm2xak.sdf

>  <i_m_source_file_index>  (283) 
10

>  <i_lp_mmshare_version>  (283) 
48012

>  <i_f3d_flags>  (283) 
0

>  <s_epik_input>  (283) 
W0NIMl0xW0NIMl1DKFtDSDNdKShbQ0gzXSlbQ0BIXShbQ0BdMTJbQ0gzXSlDPTNbQ0BAXShbQ0gzXSkoW0NIMl1bQ0gyXTIpW0NAXTQoW0NIM10pW0NASF0oW0NIMl1bQ0hdMylbQ0BAXTUoW0NIM10pW0NAQEhdKFtDSDJdW0NIMl00KUMoW0NIM10pKFtDSDNdKVtDQEhdKFtPSF0pQyg9TylbQ0BASF01W09IXQ==

>  <s_epik_cmdline>  (283) 
J2VwaWtfcHl0aG9uJywgJy1waHQnLCAnMi4wJywgJy1waCcsICc3LjAnLCAnLXRuJywgJzgnLCAnLW1hJywgJzIwMCcsICctaW1hZScsICc8aW5maWxlLm1hZT4nLCAnLW9tYWUnLCAnPG91dGZpbGUubWFlPic=

>  <r_lp_tautomer_probability>  (283) 
1

>  <r_epik_Ionization_Penalty>  (283) 
1.64988e-07

>  <r_epik_Ionization_Penalty_Charging>  (283) 
0

>  <r_epik_Ionization_Penalty_Neutral>  (283) 
1.64988e-07

>  <r_epik_State_Penalty>  (283) 
-0

>  <r_epik_Charging_Adjusted_Penalty>  (283) 
0

>  <i_epik_Tot_Q>  (283) 
0

>  <i_epik_Tot_abs_Q>  (283) 
0

>  <s_lp_Force_Field>  (283) 
OPLS3e

>  <r_lp_Energy>  (283) 
109.783

>  <b_lp_Chiralities_Consistent>  (283) 
1

>  <s_lp_Variant>  (283) 
90:0-1

>  <s_i_glide_gridfile>  (283) 
pfpi4k_grid

>  <i_i_glide_lignum>  (283) 
10

>  <i_i_glide_rotatable_bonds>  (283) 
2

>  <r_i_docking_score>  (283) 
-3.18011

>  <r_i_glide_ligand_efficiency>  (283) 
-0.0993784

>  <r_i_glide_ligand_efficiency_sa>  (283) 
-0.315507

>  <r_i_glide_ligand_efficiency_ln>  (283) 
-0.712113

>  <r_i_glide_gscore>  (283) 
-3.18011

>  <r_i_glide_lipo>  (283) 
-0.654767

>  <r_i_glide_hbond>  (283) 
0

>  <r_i_glide_metal>  (283) 
-0

>  <r_i_glide_rewards>  (283) 
-0.497455

>  <r_i_glide_evdw>  (283) 
-23.754

>  <r_i_glide_ecoul>  (283) 
-5.60123

>  <r_i_glide_erotb>  (283) 
0

>  <r_i_glide_esite>  (283) 
0

>  <r_i_glide_emodel>  (283) 
-34.1264

>  <r_i_glide_energy>  (283) 
-29.3553

>  <r_i_glide_einternal>  (283) 
1.72224

>  <r_i_glide_intrahb_reward>  (283) 
-0

>  <i_i_glide_confnum>  (283) 
2

>  <i_i_glide_posenum>  (283) 
40

>  <r_i_glide_eff_state_penalty>  (283) 
0

>  <ligand_id>  (283) 
90

>  <original_smiles>  (283) 
CC1(C)CCC2(C)CCC3(C)C(=CCC4C5(C)C(O)C(=O)C(O)C(C)(C)C5CCC43C)C12

>  <smiles>  (283) 
[H]OC1([H])C(=O)C([H])(O[H])C2(C([H])([H])[H])C([H])(C([H])([H])C([H])([H])C3(C([H])([H])[H])C2([H])C([H])([H])C([H])=C2C4([H])C(C([H])([H])[H])(C([H])([H])[H])C([H])([H])C([H])([H])C4(C([H])([H])[H])C([H])([H])C([H])([H])C23C([H])([H])[H])C1(C([H])([H])[H])C([H])([H])[H]

$$$$
90:0:2
     RDKit          3D

 78 82  0  0  1  0  0  0  0  0999 V2000
    0.0367   -5.9775    5.6482 C   0  0  0  0  0  0  0  0  0  0  0  0
    1.2877   -6.8834    5.5771 C   0  0  0  0  0  0  0  0  0  0  0  0
    2.2838   -6.3900    6.6460 C   0  0  0  0  0  0  0  0  0  0  0  0
    0.8683   -8.3325    5.9069 C   0  0  0  0  0  0  0  0  0  0  0  0
    0.7161   -9.0403    4.5678 C   0  0  0  0  0  0  0  0  0  0  0  0
    1.7934   -8.4233    3.6625 C   0  0  2  0  0  0  0  0  0  0  0  0
    1.3895   -8.5761    2.1813 C   0  0  0  0  0  0  0  0  0  0  0  0
    3.1602   -9.0708    3.9330 C   0  0  0  0  0  0  0  0  0  0  0  0
    4.2730   -8.3776    3.1466 C   0  0  0  0  0  0  0  0  0  0  0  0
    4.4524   -6.8487    3.4459 C   0  0  2  0  0  0  0  0  0  0  0  0
    5.3347   -6.7695    4.7190 C   0  0  0  0  0  0  0  0  0  0  0  0
    3.1141   -6.1579    3.7812 C   0  0  0  0  0  0  0  0  0  0  0  0
    3.0419   -4.8211    3.7154 C   0  0  0  0  0  0  0  0  0  0  0  0
    4.1898   -3.9102    3.3613 C   0  0  0  0  0  0  0  0  0  0  0  0
    5.3658   -4.5225    2.5302 C   0  0  2  0  0  0  0  0  0  0  0  0
    5.8835   -3.5745    1.3323 C   0  0  2  0  0  0  0  0  0  0  0  0
    7.3990   -3.8951    1.0739 C   0  0  0  0  0  0  0  0  0  0  0  0
    5.7995   -2.0462    1.7527 C   0  0  1  0  0  0  0  0  0  0  0  0
    6.9102   -1.2632    1.3675 O   0  0  0  0  0  0  0  0  0  0  0  0
    4.5618   -1.2901    1.2546 C   0  0  0  0  0  0  0  0  0  0  0  0
    3.9163   -0.5401    1.9768 O   0  0  0  0  0  0  0  0  0  0  0  0
    4.2277   -1.4626   -0.2159 C   0  0  1  0  0  0  0  0  0  0  0  0
    5.2741   -0.9146   -1.0016 O   0  0  0  0  0  0  0  0  0  0  0  0
    3.9842   -2.9515   -0.5428 C   0  0  0  0  0  0  0  0  0  0  0  0
    2.6338   -3.3994    0.0570 C   0  0  0  0  0  0  0  0  0  0  0  0
    3.8174   -3.0376   -2.0829 C   0  0  0  0  0  0  0  0  0  0  0  0
    5.1733   -3.8634   -0.0482 C   0  0  2  0  0  0  0  0  0  0  0  0
    4.9375   -5.3679   -0.2596 C   0  0  0  0  0  0  0  0  0  0  0  0
    4.3511   -6.1545    0.9229 C   0  0  0  0  0  0  0  0  0  0  0  0
    5.1827   -6.0751    2.2314 C   0  0  2  0  0  0  0  0  0  0  0  0
    6.5670   -6.7762    2.0027 C   0  0  0  0  0  0  0  0  0  0  0  0
    1.8295   -6.9484    4.1092 C   0  0  2  0  0  0  0  0  0  0  0  0
   -0.3920   -5.9646    6.6548 H   0  0  0  0  0  0  0  0  0  0  0  0
   -0.7479   -6.3196    4.9690 H   0  0  0  0  0  0  0  0  0  0  0  0
    0.2772   -4.9448    5.3848 H   0  0  0  0  0  0  0  0  0  0  0  0
    3.1488   -7.0436    6.7251 H   0  0  0  0  0  0  0  0  0  0  0  0
    1.8166   -6.3739    7.6339 H   0  0  0  0  0  0  0  0  0  0  0  0
    2.6350   -5.3773    6.4434 H   0  0  0  0  0  0  0  0  0  0  0  0
    1.6439   -8.8407    6.4836 H   0  0  0  0  0  0  0  0  0  0  0  0
   -0.0468   -8.4001    6.4973 H   0  0  0  0  0  0  0  0  0  0  0  0
    0.8043  -10.1246    4.6554 H   0  0  0  0  0  0  0  0  0  0  0  0
   -0.2796   -8.8302    4.1719 H   0  0  0  0  0  0  0  0  0  0  0  0
    2.0301   -7.9914    1.5199 H   0  0  0  0  0  0  0  0  0  0  0  0
    0.3667   -8.2421    2.0027 H   0  0  0  0  0  0  0  0  0  0  0  0
    1.4489   -9.6201    1.8657 H   0  0  0  0  0  0  0  0  0  0  0  0
    3.3963   -9.0329    4.9942 H   0  0  0  0  0  0  0  0  0  0  0  0
    3.1299  -10.1312    3.6719 H   0  0  0  0  0  0  0  0  0  0  0  0
    5.1885   -8.9162    3.3846 H   0  0  0  0  0  0  0  0  0  0  0  0
    4.1090   -8.5800    2.0945 H   0  0  0  0  0  0  0  0  0  0  0  0
    6.3432   -7.1478    4.5577 H   0  0  0  0  0  0  0  0  0  0  0  0
    4.9182   -7.3685    5.5233 H   0  0  0  0  0  0  0  0  0  0  0  0
    5.4261   -5.7520    5.0922 H   0  0  0  0  0  0  0  0  0  0  0  0
    2.1225   -4.3197    3.9698 H   0  0  0  0  0  0  0  0  0  0  0  0
    3.7115   -3.0734    2.8836 H   0  0  0  0  0  0  0  0  0  0  0  0
    4.5854   -3.5165    4.2966 H   0  0  0  0  0  0  0  0  0  0  0  0
    6.1820   -4.4864    3.2553 H   0  0  0  0  0  0  0  0  0  0  0  0
    7.8792   -3.1969    0.3875 H   0  0  0  0  0  0  0  0  0  0  0  0
    7.5691   -4.8499    0.5999 H   0  0  0  0  0  0  0  0  0  0  0  0
    7.9883   -3.8967    1.9869 H   0  0  0  0  0  0  0  0  0  0  0  0
    5.7754   -1.9903    2.8436 H   0  0  0  0  0  0  0  0  0  0  0  0
    6.9456   -1.2592    0.4223 H   0  0  0  0  0  0  0  0  0  0  0  0
    3.3219   -0.8970   -0.4372 H   0  0  0  0  0  0  0  0  0  0  0  0
    5.2033    0.0318   -0.9376 H   0  0  0  0  0  0  0  0  0  0  0  0
    2.3064   -4.3616   -0.3403 H   0  0  0  0  0  0  0  0  0  0  0  0
    1.8575   -2.6670   -0.1695 H   0  0  0  0  0  0  0  0  0  0  0  0
    2.6617   -3.4855    1.1374 H   0  0  0  0  0  0  0  0  0  0  0  0
    3.4371   -3.9992   -2.4051 H   0  0  0  0  0  0  0  0  0  0  0  0
    4.7546   -2.8755   -2.6157 H   0  0  0  0  0  0  0  0  0  0  0  0
    3.1025   -2.2954   -2.4444 H   0  0  0  0  0  0  0  0  0  0  0  0
    5.9280   -3.6156   -0.7937 H   0  0  0  0  0  0  0  0  0  0  0  0
    4.2861   -5.5070   -1.1124 H   0  0  0  0  0  0  0  0  0  0  0  0
    5.8722   -5.8254   -0.5560 H   0  0  0  0  0  0  0  0  0  0  0  0
    3.3390   -5.8106    1.1081 H   0  0  0  0  0  0  0  0  0  0  0  0
    4.2516   -7.1798    0.5822 H   0  0  0  0  0  0  0  0  0  0  0  0
    6.9033   -6.7708    0.9727 H   0  0  0  0  0  0  0  0  0  0  0  0
    6.5745   -7.8354    2.2385 H   0  0  0  0  0  0  0  0  0  0  0  0
    7.3551   -6.3226    2.6063 H   0  0  0  0  0  0  0  0  0  0  0  0
    1.0785   -6.4549    3.4933 H   0  0  0  0  0  0  0  0  0  0  0  0
  1  2  1  0
  1 33  1  0
  1 34  1  0
  1 35  1  0
  2 32  1  0
  2  3  1  0
  2  4  1  0
  3 36  1  0
  3 37  1  0
  3 38  1  0
  4  5  1  0
  4 39  1  0
  4 40  1  0
  5  6  1  0
  5 41  1  0
  5 42  1  0
  6 32  1  0
  6  7  1  6
  6  8  1  0
  7 43  1  0
  7 44  1  0
  7 45  1  0
  8  9  1  0
  8 46  1  0
  8 47  1  0
  9 10  1  0
  9 48  1  0
  9 49  1  0
 10 30  1  0
 10 11  1  1
 10 12  1  0
 11 50  1  0
 11 51  1  0
 11 52  1  0
 12 13  2  0
 12 32  1  0
 13 14  1  0
 13 53  1  0
 14 15  1  0
 14 54  1  0
 14 55  1  0
 15 30  1  0
 15 16  1  0
 15 56  1  1
 16 27  1  0
 16 17  1  6
 16 18  1  0
 17 57  1  0
 17 58  1  0
 17 59  1  0
 18 19  1  0
 18 20  1  0
 18 60  1  1
 19 61  1  0
 20 21  2  0
 20 22  1  0
 22 23  1  0
 22 24  1  0
 22 62  1  1
 23 63  1  0
 24 25  1  0
 24 26  1  0
 24 27  1  0
 25 64  1  0
 25 65  1  0
 25 66  1  0
 26 67  1  0
 26 68  1  0
 26 69  1  0
 27 28  1  0
 27 70  1  6
 28 29  1  0
 28 71  1  0
 28 72  1  0
 29 30  1  0
 29 73  1  0
 29 74  1  0
 30 31  1  6
 31 75  1  0
 31 76  1  0
 31 77  1  0
 32 78  1  6
M  END
>  <i_m_ct_stereo_status>  (284) 
1

>  <s_m_source_file>  (284) 
/var/tmp/pbs.5076255.sched01/tmpy8l6melh/117u1qm2xak.sdf

>  <i_m_source_file_index>  (284) 
10

>  <i_lp_mmshare_version>  (284) 
48012

>  <i_f3d_flags>  (284) 
0

>  <s_epik_input>  (284) 
W0NIMl0xW0NIMl1DKFtDSDNdKShbQ0gzXSlbQ0BIXShbQ0BdMTJbQ0gzXSlDPTNbQ0BAXShbQ0gzXSkoW0NIMl1bQ0gyXTIpW0NAXTQoW0NIM10pW0NASF0oW0NIMl1bQ0hdMylbQ0BAXTUoW0NIM10pW0NAQEhdKFtDSDJdW0NIMl00KUMoW0NIM10pKFtDSDNdKVtDQEhdKFtPSF0pQyg9TylbQ0BASF01W09IXQ==

>  <s_epik_cmdline>  (284) 
J2VwaWtfcHl0aG9uJywgJy1waHQnLCAnMi4wJywgJy1waCcsICc3LjAnLCAnLXRuJywgJzgnLCAnLW1hJywgJzIwMCcsICctaW1hZScsICc8aW5maWxlLm1hZT4nLCAnLW9tYWUnLCAnPG91dGZpbGUubWFlPic=

>  <r_lp_tautomer_probability>  (284) 
1

>  <r_epik_Ionization_Penalty>  (284) 
1.64988e-07

>  <r_epik_Ionization_Penalty_Charging>  (284) 
0

>  <r_epik_Ionization_Penalty_Neutral>  (284) 
1.64988e-07

>  <r_epik_State_Penalty>  (284) 
-0

>  <r_epik_Charging_Adjusted_Penalty>  (284) 
0

>  <i_epik_Tot_Q>  (284) 
0

>  <i_epik_Tot_abs_Q>  (284) 
0

>  <s_lp_Force_Field>  (284) 
OPLS3e

>  <r_lp_Energy>  (284) 
109.783

>  <b_lp_Chiralities_Consistent>  (284) 
1

>  <s_lp_Variant>  (284) 
90:0-1

>  <s_i_glide_gridfile>  (284) 
pfpi4k_grid

>  <i_i_glide_lignum>  (284) 
10

>  <i_i_glide_rotatable_bonds>  (284) 
2

>  <r_i_docking_score>  (284) 
-2.98764

>  <r_i_glide_ligand_efficiency>  (284) 
-0.0933636

>  <r_i_glide_ligand_efficiency_sa>  (284) 
-0.296411

>  <r_i_glide_ligand_efficiency_ln>  (284) 
-0.669013

>  <r_i_glide_gscore>  (284) 
-2.98764

>  <r_i_glide_lipo>  (284) 
-0.509804

>  <r_i_glide_hbond>  (284) 
0

>  <r_i_glide_metal>  (284) 
-0

>  <r_i_glide_rewards>  (284) 
-0.93119

>  <r_i_glide_evdw>  (284) 
-24.07

>  <r_i_glide_ecoul>  (284) 
-2.28761

>  <r_i_glide_erotb>  (284) 
0

>  <r_i_glide_esite>  (284) 
0

>  <r_i_glide_emodel>  (284) 
-35.1249

>  <r_i_glide_energy>  (284) 
-26.3576

>  <r_i_glide_einternal>  (284) 
2.98813

>  <r_i_glide_intrahb_reward>  (284) 
-0.5

>  <i_i_glide_confnum>  (284) 
2

>  <i_i_glide_posenum>  (284) 
38

>  <r_i_glide_eff_state_penalty>  (284) 
0

>  <ligand_id>  (284) 
90

>  <original_smiles>  (284) 
CC1(C)CCC2(C)CCC3(C)C(=CCC4C5(C)C(O)C(=O)C(O)C(C)(C)C5CCC43C)C12

>  <smiles>  (284) 
[H]OC1([H])C(=O)C([H])(O[H])C2(C([H])([H])[H])C([H])(C([H])([H])C([H])([H])C3(C([H])([H])[H])C2([H])C([H])([H])C([H])=C2C4([H])C(C([H])([H])[H])(C([H])([H])[H])C([H])([H])C([H])([H])C4(C([H])([H])[H])C([H])([H])C([H])([H])C23C([H])([H])[H])C1(C([H])([H])[H])C([H])([H])[H]

$$$$
91:0:0
     RDKit          3D

 81 88  0  0  1  0  0  0  0  0999 V2000
    3.0182   -2.5271   -0.0920 C   0  0  0  0  0  0  0  0  0  0  0  0
    3.7595   -1.7617    0.7373 C   0  0  0  0  0  0  0  0  0  0  0  0
    4.8705   -1.2105    0.1625 O   0  0  0  0  0  0  0  0  0  0  0  0
    6.0457   -1.2342    0.7872 C   0  0  0  0  0  0  0  0  0  0  0  0
    7.1311   -1.2943    0.2265 O   0  0  0  0  0  0  0  0  0  0  0  0
    5.9955   -1.0325    2.2861 C   0  0  0  0  0  0  0  0  0  0  0  0
    4.8752   -1.8130    2.9789 C   0  0  1  0  0  0  0  0  0  0  0  0
    4.8080   -1.4796    4.4863 C   0  0  0  0  0  0  0  0  0  0  0  0
    4.3206   -0.0448    4.7305 C   0  0  0  0  0  0  0  0  0  0  0  0
    2.9544    0.2285    4.0536 C   0  0  1  0  0  0  0  0  0  0  0  0
    2.4275    1.6626    4.2201 C   0  0  0  0  0  0  0  0  0  0  0  0
    3.2256    2.6652    4.6641 C   0  0  0  0  0  0  0  0  0  0  0  0
    2.9937    4.0100    4.7411 O   0  0  0  0  0  0  0  0  0  0  0  0
    2.0399    4.6695    3.9668 C   0  0  1  0  0  0  0  0  0  0  0  0
    2.2144    4.4972    2.5754 O   0  0  0  0  0  0  0  0  0  0  0  0
    0.6053    4.3927    4.4900 C   0  0  1  0  0  0  0  0  0  0  0  0
    0.0439    2.9032    4.3330 C   0  0  2  0  0  0  0  0  0  0  0  0
   -1.2312    3.0419    3.4460 C   0  0  0  0  0  0  0  0  0  0  0  0
   -0.5206    2.3310    5.7096 C   0  0  0  0  0  0  0  0  0  0  0  0
   -0.9474    3.4013    6.7569 C   0  0  2  0  0  0  0  0  0  0  0  0
   -2.2745    3.2966    7.4989 C   0  0  0  0  0  0  0  0  0  0  0  0
   -2.1693    4.4392    8.5322 C   0  0  0  0  0  0  0  0  0  0  0  0
   -0.6558    4.7239    8.7621 C   0  0  2  0  0  0  0  0  0  0  0  0
   -0.2674    4.4609   10.2306 C   0  0  0  0  0  0  0  0  0  0  0  0
   -0.3780    6.1401    8.6055 O   0  0  0  0  0  0  0  0  0  0  0  0
   -0.2892    6.9563    7.4882 C   0  0  0  0  0  0  0  0  0  0  0  0
   -0.5761    8.1562    7.5634 O   0  0  0  0  0  0  0  0  0  0  0  0
    0.3054    6.4725    6.1453 C   0  0  0  0  0  0  0  0  0  0  0  0
    0.4117    4.9635    5.9229 C   0  0  1  0  0  0  0  0  0  0  0  0
   -0.9467    4.6084    6.0654 O   0  0  0  0  0  0  0  0  0  0  0  0
    1.2115    4.2333    7.0216 C   0  0  1  0  0  0  0  0  0  0  0  0
    2.3783    4.9487    7.7335 C   0  0  0  0  0  0  0  0  0  0  0  0
    0.0751    3.7155    7.8456 C   0  0  2  0  0  0  0  0  0  0  0  0
    0.9897    1.7971    3.7112 C   0  0  1  0  0  0  0  0  0  0  0  0
    1.0239    1.5577    2.1849 C   0  0  0  0  0  0  0  0  0  0  0  0
    1.6455    0.1847    1.8645 C   0  0  0  0  0  0  0  0  0  0  0  0
    3.0006   -0.1306    2.5445 C   0  0  2  0  0  0  0  0  0  0  0  0
    3.5203   -1.5876    2.2628 C   0  0  1  0  0  0  0  0  0  0  0  0
    2.5259   -2.6615    2.7856 C   0  0  0  0  0  0  0  0  0  0  0  0
    2.1168   -3.0216    0.2102 H   0  0  0  0  0  0  0  0  0  0  0  0
    3.2851   -2.5844   -1.1438 H   0  0  0  0  0  0  0  0  0  0  0  0
    6.9682   -1.3322    2.6571 H   0  0  0  0  0  0  0  0  0  0  0  0
    5.9334    0.0363    2.4832 H   0  0  0  0  0  0  0  0  0  0  0  0
    5.1416   -2.8698    2.8996 H   0  0  0  0  0  0  0  0  0  0  0  0
    4.1481   -2.1778    4.9996 H   0  0  0  0  0  0  0  0  0  0  0  0
    5.7845   -1.6242    4.9535 H   0  0  0  0  0  0  0  0  0  0  0  0
    4.2498    0.1330    5.8059 H   0  0  0  0  0  0  0  0  0  0  0  0
    5.0861    0.6386    4.3619 H   0  0  0  0  0  0  0  0  0  0  0  0
    2.2317   -0.4145    4.5560 H   0  0  0  0  0  0  0  0  0  0  0  0
    4.2441    2.4881    4.9660 H   0  0  0  0  0  0  0  0  0  0  0  0
    2.2657    5.7251    4.1431 H   0  0  0  0  0  0  0  0  0  0  0  0
    1.3471    4.5266    2.1462 H   0  0  0  0  0  0  0  0  0  0  0  0
   -0.0037    5.0392    3.8529 H   0  0  0  0  0  0  0  0  0  0  0  0
   -1.7241    2.0877    3.2470 H   0  0  0  0  0  0  0  0  0  0  0  0
   -0.9937    3.4837    2.4813 H   0  0  0  0  0  0  0  0  0  0  0  0
   -1.9813    3.6938    3.9002 H   0  0  0  0  0  0  0  0  0  0  0  0
   -1.3812    1.6959    5.5055 H   0  0  0  0  0  0  0  0  0  0  0  0
    0.2077    1.6582    6.1705 H   0  0  0  0  0  0  0  0  0  0  0  0
   -3.1378    3.4179    6.8439 H   0  0  0  0  0  0  0  0  0  0  0  0
   -2.3569    2.3380    8.0111 H   0  0  0  0  0  0  0  0  0  0  0  0
   -2.6541    5.3334    8.1386 H   0  0  0  0  0  0  0  0  0  0  0  0
   -2.6997    4.1998    9.4553 H   0  0  0  0  0  0  0  0  0  0  0  0
   -0.4731    3.4345   10.5339 H   0  0  0  0  0  0  0  0  0  0  0  0
   -0.8138    5.1145   10.9090 H   0  0  0  0  0  0  0  0  0  0  0  0
    0.7939    4.6439   10.3931 H   0  0  0  0  0  0  0  0  0  0  0  0
   -0.3168    6.8931    5.3553 H   0  0  0  0  0  0  0  0  0  0  0  0
    1.2883    6.9308    6.0267 H   0  0  0  0  0  0  0  0  0  0  0  0
    1.6679    3.3437    6.6053 H   0  0  0  0  0  0  0  0  0  0  0  0
    2.0872    5.8227    8.3113 H   0  0  0  0  0  0  0  0  0  0  0  0
    3.1258    5.2775    7.0116 H   0  0  0  0  0  0  0  0  0  0  0  0
    2.8786    4.2665    8.4228 H   0  0  0  0  0  0  0  0  0  0  0  0
    0.3466    2.8066    8.3874 H   0  0  0  0  0  0  0  0  0  0  0  0
    0.5076    0.8829    4.0560 H   0  0  0  0  0  0  0  0  0  0  0  0
    0.0289    1.5704    1.7422 H   0  0  0  0  0  0  0  0  0  0  0  0
    1.5885    2.3289    1.6733 H   0  0  0  0  0  0  0  0  0  0  0  0
    0.9051   -0.5781    2.0973 H   0  0  0  0  0  0  0  0  0  0  0  0
    1.8153    0.1581    0.7956 H   0  0  0  0  0  0  0  0  0  0  0  0
    3.7184    0.5550    2.0926 H   0  0  0  0  0  0  0  0  0  0  0  0
    2.3094   -2.5581    3.8460 H   0  0  0  0  0  0  0  0  0  0  0  0
    2.9166   -3.6696    2.6397 H   0  0  0  0  0  0  0  0  0  0  0  0
    1.5625   -2.6258    2.2819 H   0  0  0  0  0  0  0  0  0  0  0  0
  1  2  2  0
  1 40  1  0
  1 41  1  0
  2 38  1  0
  2  3  1  0
  3  4  1  0
  4  5  2  0
  4  6  1  0
  6  7  1  0
  6 42  1  0
  6 43  1  0
  7 38  1  0
  7  8  1  0
  7 44  1  1
  8  9  1  0
  8 45  1  0
  8 46  1  0
  9 10  1  0
  9 47  1  0
  9 48  1  0
 10 37  1  0
 10 11  1  0
 10 49  1  1
 11 34  1  0
 11 12  2  0
 12 13  1  0
 12 50  1  0
 13 14  1  0
 14 15  1  0
 14 16  1  0
 14 51  1  6
 15 52  1  0
 16 29  1  0
 16 17  1  0
 16 53  1  6
 17 18  1  6
 17 19  1  0
 17 34  1  0
 18 54  1  0
 18 55  1  0
 18 56  1  0
 20 19  1  6
 19 57  1  0
 19 58  1  0
 20 30  1  0
 20 33  1  0
 20 21  1  0
 21 22  1  0
 21 59  1  0
 21 60  1  0
 22 23  1  0
 22 61  1  0
 22 62  1  0
 23 33  1  0
 23 24  1  1
 23 25  1  0
 24 63  1  0
 24 64  1  0
 24 65  1  0
 25 26  1  0
 26 27  2  0
 26 28  1  0
 29 28  1  6
 28 66  1  0
 28 67  1  0
 29 30  1  0
 29 31  1  0
 31 32  1  0
 31 33  1  0
 31 68  1  6
 32 69  1  0
 32 70  1  0
 32 71  1  0
 33 72  1  1
 34 35  1  0
 34 73  1  1
 35 36  1  0
 35 74  1  0
 35 75  1  0
 36 37  1  0
 36 76  1  0
 36 77  1  0
 37 38  1  0
 37 78  1  6
 38 39  1  1
 39 79  1  0
 39 80  1  0
 39 81  1  0
M  END
>  <i_m_ct_stereo_status>  (285) 
1

>  <s_m_source_file>  (285) 
/var/tmp/pbs.5076255.sched01/tmpy8l6melh/117u1qm2xak.sdf

>  <i_m_source_file_index>  (285) 
11

>  <i_lp_mmshare_version>  (285) 
48012

>  <i_f3d_flags>  (285) 
0

>  <s_epik_input>  (285) 
W0NIMl09QzFPQyg9TylbQ0gyXVtDQEBIXShbQ0gyXVtDSDJdMilbQ0BAXTEoW0NIM10pW0NAQEhdKFtDSDJdW0NIMl0zKVtDQEBIXTJDKD1bQ0hdT1tDQEhdNFtPSF0pW0NASF0zW0NAQF0oW0NIM10pKFtDSDJdNSlbQ0BIXTRbQ0BAXShPNikoW0NASF03W0NIM10pW0NIMl1DKD1PKU9bQ0BdKFtDSDNdKShbQ0BIXTdbQ0BdNTY4KVtDSDJdW0NIMl04

>  <s_epik_cmdline>  (285) 
J2VwaWtfcHl0aG9uJywgJy1waHQnLCAnMi4wJywgJy1waCcsICc3LjAnLCAnLXRuJywgJzgnLCAnLW1hJywgJzIwMCcsICctaW1hZScsICc8aW5maWxlLm1hZT4nLCAnLW9tYWUnLCAnPG91dGZpbGUubWFlPic=

>  <r_lp_tautomer_probability>  (285) 
1

>  <r_epik_Ionization_Penalty>  (285) 
1.7065e-07

>  <r_epik_Ionization_Penalty_Charging>  (285) 
0

>  <r_epik_Ionization_Penalty_Neutral>  (285) 
1.7065e-07

>  <r_epik_State_Penalty>  (285) 
-0

>  <r_epik_Charging_Adjusted_Penalty>  (285) 
0

>  <i_epik_Tot_Q>  (285) 
0

>  <i_epik_Tot_abs_Q>  (285) 
0

>  <s_epik_Chemistry_Notes>  (285) 
This compound has an ester and may undergo hydrolysis at high or low pH. This compound contains an acetal/aminal-like group ( X-CH(R)-Y where X, Y are N, S, or O) that may be acid/base labile, releasing an aldehyde.

>  <s_lp_Force_Field>  (285) 
OPLS3e

>  <r_lp_Energy>  (285) 
110.175

>  <b_lp_Chiralities_Consistent>  (285) 
1

>  <s_lp_Variant>  (285) 
91:0-1

>  <s_i_glide_gridfile>  (285) 
pfpi4k_grid

>  <i_i_glide_lignum>  (285) 
11

>  <i_i_glide_rotatable_bonds>  (285) 
1

>  <r_i_docking_score>  (285) 
-2.91035

>  <r_i_glide_ligand_efficiency>  (285) 
-0.0746243

>  <r_i_glide_ligand_efficiency_sa>  (285) 
-0.253067

>  <r_i_glide_ligand_efficiency_ln>  (285) 
-0.624061

>  <r_i_glide_gscore>  (285) 
-2.91035

>  <r_i_glide_lipo>  (285) 
-0.304906

>  <r_i_glide_hbond>  (285) 
-0.0678675

>  <r_i_glide_metal>  (285) 
-0

>  <r_i_glide_rewards>  (285) 
-0.189068

>  <r_i_glide_evdw>  (285) 
-31.7905

>  <r_i_glide_ecoul>  (285) 
-4.78503

>  <r_i_glide_erotb>  (285) 
0

>  <r_i_glide_esite>  (285) 
-0.0412287

>  <r_i_glide_emodel>  (285) 
-41.4938

>  <r_i_glide_energy>  (285) 
-36.5755

>  <r_i_glide_einternal>  (285) 
2.44314

>  <r_i_glide_intrahb_reward>  (285) 
-0

>  <i_i_glide_confnum>  (285) 
1

>  <i_i_glide_posenum>  (285) 
1

>  <r_i_glide_eff_state_penalty>  (285) 
0

>  <ligand_id>  (285) 
91

>  <original_smiles>  (285) 
C=C1OC(=O)CC2CCC3C4=COC(O)C5C(C)(CC67CCC8(C)OC(=O)CC5(O6)C(C)C87)C4CCC3C12C

>  <smiles>  (285) 
[H]OC1([H])OC([H])=C2C3([H])C([H])([H])C([H])([H])C4([H])C([H])([H])C(=O)OC(=C([H])[H])C4(C([H])([H])[H])C3([H])C([H])([H])C([H])([H])C2([H])C2(C([H])([H])[H])C([H])([H])C34OC5(C([H])([H])C(=O)OC(C([H])([H])[H])(C([H])([H])C3([H])[H])C4([H])C5([H])C([H])([H])[H])C12[H]

$$$$
91:0:1
     RDKit          3D

 81 88  0  0  1  0  0  0  0  0999 V2000
   -0.9608    1.1086    7.7187 C   0  0  0  0  0  0  0  0  0  0  0  0
   -0.4443    1.7236    6.6526 C   0  0  0  0  0  0  0  0  0  0  0  0
    0.0883    2.9711    6.9137 O   0  0  0  0  0  0  0  0  0  0  0  0
   -0.0862    3.9974    6.0599 C   0  0  0  0  0  0  0  0  0  0  0  0
   -0.0984    5.1827    6.4057 O   0  0  0  0  0  0  0  0  0  0  0  0
   -0.1127    3.6602    4.5850 C   0  0  0  0  0  0  0  0  0  0  0  0
   -0.8953    2.3754    4.2754 C   0  0  1  0  0  0  0  0  0  0  0  0
   -0.7707    2.0110    2.7823 C   0  0  0  0  0  0  0  0  0  0  0  0
    0.6446    1.5213    2.4308 C   0  0  0  0  0  0  0  0  0  0  0  0
    1.0756    0.3246    3.3130 C   0  0  1  0  0  0  0  0  0  0  0  0
    2.4979   -0.2020    3.0433 C   0  0  0  0  0  0  0  0  0  0  0  0
    3.3567    0.4795    2.2894 C   0  0  0  0  0  0  0  0  0  0  0  0
    4.6797    0.1853    2.0300 O   0  0  0  0  0  0  0  0  0  0  0  0
    5.5089   -0.4865    2.8814 C   0  0  1  0  0  0  0  0  0  0  0  0
    5.5236   -0.0156    4.2213 O   0  0  0  0  0  0  0  0  0  0  0  0
    5.2777   -1.9767    2.7283 C   0  0  1  0  0  0  0  0  0  0  0  0
    3.8522   -2.5111    3.1964 C   0  0  2  0  0  0  0  0  0  0  0  0
    4.1939   -3.5608    4.2860 C   0  0  0  0  0  0  0  0  0  0  0  0
    3.1302   -3.3362    2.0471 C   0  0  0  0  0  0  0  0  0  0  0  0
    4.0678   -3.9111    0.9493 C   0  0  2  0  0  0  0  0  0  0  0  0
    3.9621   -5.3558    0.5068 C   0  0  0  0  0  0  0  0  0  0  0  0
    4.9759   -5.3902   -0.6487 C   0  0  0  0  0  0  0  0  0  0  0  0
    5.0907   -3.9474   -1.2433 C   0  0  2  0  0  0  0  0  0  0  0  0
    4.6257   -3.8476   -2.7083 C   0  0  0  0  0  0  0  0  0  0  0  0
    6.4598   -3.4884   -1.3825 O   0  0  0  0  0  0  0  0  0  0  0  0
    7.4458   -3.2894   -0.4390 C   0  0  0  0  0  0  0  0  0  0  0  0
    8.6001   -3.6160   -0.6236 O   0  0  0  0  0  0  0  0  0  0  0  0
    7.1119   -2.4870    0.8341 C   0  0  0  0  0  0  0  0  0  0  0  0
    5.6527   -2.3923    1.2704 C   0  0  1  0  0  0  0  0  0  0  0  0
    5.3604   -3.7578    1.4411 O   0  0  0  0  0  0  0  0  0  0  0  0
    4.7134   -1.8448    0.1623 C   0  0  1  0  0  0  0  0  0  0  0  0
    5.2621   -0.8290   -0.8471 C   0  0  0  0  0  0  0  0  0  0  0  0
    4.1543   -3.1162   -0.3471 C   0  0  2  0  0  0  0  0  0  0  0  0
    2.7767   -1.4988    3.7922 C   0  0  1  0  0  0  0  0  0  0  0  0
    2.7574   -1.1591    5.3034 C   0  0  0  0  0  0  0  0  0  0  0  0
    1.4028   -0.5356    5.7050 C   0  0  0  0  0  0  0  0  0  0  0  0
    0.9356    0.6564    4.8209 C   0  0  2  0  0  0  0  0  0  0  0  0
   -0.4882    1.1985    5.2018 C   0  0  1  0  0  0  0  0  0  0  0  0
   -1.5654    0.0763    5.0396 C   0  0  0  0  0  0  0  0  0  0  0  0
   -1.4035    0.1466    7.6286 H   0  0  0  0  0  0  0  0  0  0  0  0
   -0.9509    1.5689    8.6985 H   0  0  0  0  0  0  0  0  0  0  0  0
   -0.5547    4.5018    4.0485 H   0  0  0  0  0  0  0  0  0  0  0  0
    0.9263    3.5775    4.2645 H   0  0  0  0  0  0  0  0  0  0  0  0
   -1.9494    2.6046    4.4584 H   0  0  0  0  0  0  0  0  0  0  0  0
   -1.4991    1.2469    2.5041 H   0  0  0  0  0  0  0  0  0  0  0  0
   -1.0258    2.8788    2.1673 H   0  0  0  0  0  0  0  0  0  0  0  0
    0.6681    1.2499    1.3741 H   0  0  0  0  0  0  0  0  0  0  0  0
    1.3255    2.3667    2.5341 H   0  0  0  0  0  0  0  0  0  0  0  0
    0.4028   -0.4918    3.0543 H   0  0  0  0  0  0  0  0  0  0  0  0
    3.1304    1.4309    1.8316 H   0  0  0  0  0  0  0  0  0  0  0  0
    6.5084   -0.2608    2.5182 H   0  0  0  0  0  0  0  0  0  0  0  0
    4.6880   -0.1780    4.6040 H   0  0  0  0  0  0  0  0  0  0  0  0
    6.0467   -2.4280    3.3501 H   0  0  0  0  0  0  0  0  0  0  0  0
    3.3052   -4.0360    4.6996 H   0  0  0  0  0  0  0  0  0  0  0  0
    4.7534   -3.1206    5.1145 H   0  0  0  0  0  0  0  0  0  0  0  0
    4.8251   -4.3565    3.8845 H   0  0  0  0  0  0  0  0  0  0  0  0
    2.5841   -4.1622    2.4970 H   0  0  0  0  0  0  0  0  0  0  0  0
    2.3638   -2.7285    1.5593 H   0  0  0  0  0  0  0  0  0  0  0  0
    4.2056   -6.0813    1.2859 H   0  0  0  0  0  0  0  0  0  0  0  0
    2.9576   -5.5734    0.1435 H   0  0  0  0  0  0  0  0  0  0  0  0
    5.9364   -5.7585   -0.2963 H   0  0  0  0  0  0  0  0  0  0  0  0
    4.6400   -6.1100   -1.3854 H   0  0  0  0  0  0  0  0  0  0  0  0
    3.5770   -4.0884   -2.8283 H   0  0  0  0  0  0  0  0  0  0  0  0
    5.2011   -4.5079   -3.3505 H   0  0  0  0  0  0  0  0  0  0  0  0
    4.7433   -2.8305   -3.0926 H   0  0  0  0  0  0  0  0  0  0  0  0
    7.6665   -3.0560    1.5618 H   0  0  0  0  0  0  0  0  0  0  0  0
    7.5539   -1.4986    0.7331 H   0  0  0  0  0  0  0  0  0  0  0  0
    3.8491   -1.3531    0.5858 H   0  0  0  0  0  0  0  0  0  0  0  0
    6.0618   -1.1800   -1.4882 H   0  0  0  0  0  0  0  0  0  0  0  0
    5.6626    0.0206   -0.2997 H   0  0  0  0  0  0  0  0  0  0  0  0
    4.4751   -0.4672   -1.5059 H   0  0  0  0  0  0  0  0  0  0  0  0
    3.1716   -2.9886   -0.7922 H   0  0  0  0  0  0  0  0  0  0  0  0
    1.8557   -2.0649    3.6745 H   0  0  0  0  0  0  0  0  0  0  0  0
    2.8950   -2.0523    5.9087 H   0  0  0  0  0  0  0  0  0  0  0  0
    3.5526   -0.4747    5.5920 H   0  0  0  0  0  0  0  0  0  0  0  0
    0.6686   -1.3364    5.6833 H   0  0  0  0  0  0  0  0  0  0  0  0
    1.4868   -0.2139    6.7404 H   0  0  0  0  0  0  0  0  0  0  0  0
    1.6348    1.4715    5.0162 H   0  0  0  0  0  0  0  0  0  0  0  0
   -1.5958   -0.3305    4.0337 H   0  0  0  0  0  0  0  0  0  0  0  0
   -2.5642    0.4520    5.2440 H   0  0  0  0  0  0  0  0  0  0  0  0
   -1.4073   -0.7766    5.6923 H   0  0  0  0  0  0  0  0  0  0  0  0
  1  2  2  0
  1 40  1  0
  1 41  1  0
  2 38  1  0
  2  3  1  0
  3  4  1  0
  4  5  2  0
  4  6  1  0
  6  7  1  0
  6 42  1  0
  6 43  1  0
  7 38  1  0
  7  8  1  0
  7 44  1  1
  8  9  1  0
  8 45  1  0
  8 46  1  0
  9 10  1  0
  9 47  1  0
  9 48  1  0
 10 37  1  0
 10 11  1  0
 10 49  1  6
 11 34  1  0
 11 12  2  0
 12 13  1  0
 12 50  1  0
 13 14  1  0
 14 15  1  0
 14 16  1  0
 14 51  1  6
 15 52  1  0
 16 29  1  0
 16 17  1  0
 16 53  1  1
 17 18  1  1
 17 19  1  0
 17 34  1  0
 18 54  1  0
 18 55  1  0
 18 56  1  0
 20 19  1  1
 19 57  1  0
 19 58  1  0
 20 30  1  0
 20 33  1  0
 20 21  1  0
 21 22  1  0
 21 59  1  0
 21 60  1  0
 22 23  1  0
 22 61  1  0
 22 62  1  0
 23 33  1  0
 23 24  1  6
 23 25  1  0
 24 63  1  0
 24 64  1  0
 24 65  1  0
 25 26  1  0
 26 27  2  0
 26 28  1  0
 29 28  1  6
 28 66  1  0
 28 67  1  0
 29 30  1  0
 29 31  1  0
 31 32  1  0
 31 33  1  0
 31 68  1  1
 32 69  1  0
 32 70  1  0
 32 71  1  0
 33 72  1  6
 34 35  1  0
 34 73  1  1
 35 36  1  0
 35 74  1  0
 35 75  1  0
 36 37  1  0
 36 76  1  0
 36 77  1  0
 37 38  1  0
 37 78  1  1
 38 39  1  1
 39 79  1  0
 39 80  1  0
 39 81  1  0
M  END
>  <i_m_ct_stereo_status>  (286) 
1

>  <s_m_source_file>  (286) 
/var/tmp/pbs.5076255.sched01/tmpy8l6melh/117u1qm2xak.sdf

>  <i_m_source_file_index>  (286) 
11

>  <i_lp_mmshare_version>  (286) 
48012

>  <i_f3d_flags>  (286) 
0

>  <s_epik_input>  (286) 
W0NIMl09QzFPQyg9TylbQ0gyXVtDQEBIXShbQ0gyXVtDSDJdMilbQ0BAXTEoW0NIM10pW0NAQEhdKFtDSDJdW0NIMl0zKVtDQEBIXTJDKD1bQ0hdT1tDQEhdNFtPSF0pW0NASF0zW0NAQF0oW0NIM10pKFtDSDJdNSlbQ0BIXTRbQ0BAXShPNikoW0NASF03W0NIM10pW0NIMl1DKD1PKU9bQ0BdKFtDSDNdKShbQ0BIXTdbQ0BdNTY4KVtDSDJdW0NIMl04

>  <s_epik_cmdline>  (286) 
J2VwaWtfcHl0aG9uJywgJy1waHQnLCAnMi4wJywgJy1waCcsICc3LjAnLCAnLXRuJywgJzgnLCAnLW1hJywgJzIwMCcsICctaW1hZScsICc8aW5maWxlLm1hZT4nLCAnLW9tYWUnLCAnPG91dGZpbGUubWFlPic=

>  <r_lp_tautomer_probability>  (286) 
1

>  <r_epik_Ionization_Penalty>  (286) 
1.7065e-07

>  <r_epik_Ionization_Penalty_Charging>  (286) 
0

>  <r_epik_Ionization_Penalty_Neutral>  (286) 
1.7065e-07

>  <r_epik_State_Penalty>  (286) 
-0

>  <r_epik_Charging_Adjusted_Penalty>  (286) 
0

>  <i_epik_Tot_Q>  (286) 
0

>  <i_epik_Tot_abs_Q>  (286) 
0

>  <s_epik_Chemistry_Notes>  (286) 
This compound has an ester and may undergo hydrolysis at high or low pH. This compound contains an acetal/aminal-like group ( X-CH(R)-Y where X, Y are N, S, or O) that may be acid/base labile, releasing an aldehyde.

>  <s_lp_Force_Field>  (286) 
OPLS3e

>  <r_lp_Energy>  (286) 
110.175

>  <b_lp_Chiralities_Consistent>  (286) 
1

>  <s_lp_Variant>  (286) 
91:0-1

>  <s_i_glide_gridfile>  (286) 
pfpi4k_grid

>  <i_i_glide_lignum>  (286) 
11

>  <i_i_glide_rotatable_bonds>  (286) 
1

>  <r_i_docking_score>  (286) 
-2.59138

>  <r_i_glide_ligand_efficiency>  (286) 
-0.0664456

>  <r_i_glide_ligand_efficiency_sa>  (286) 
-0.225331

>  <r_i_glide_ligand_efficiency_ln>  (286) 
-0.555665

>  <r_i_glide_gscore>  (286) 
-2.59138

>  <r_i_glide_lipo>  (286) 
-0.344102

>  <r_i_glide_hbond>  (286) 
-0.104471

>  <r_i_glide_metal>  (286) 
-0

>  <r_i_glide_rewards>  (286) 
-0.382999

>  <r_i_glide_evdw>  (286) 
-29.2571

>  <r_i_glide_ecoul>  (286) 
-1.94931

>  <r_i_glide_erotb>  (286) 
0

>  <r_i_glide_esite>  (286) 
-0.0045568

>  <r_i_glide_emodel>  (286) 
-36.1657

>  <r_i_glide_energy>  (286) 
-31.2064

>  <r_i_glide_einternal>  (286) 
0.0061788

>  <r_i_glide_intrahb_reward>  (286) 
-0

>  <i_i_glide_confnum>  (286) 
1

>  <i_i_glide_posenum>  (286) 
21

>  <r_i_glide_eff_state_penalty>  (286) 
0

>  <ligand_id>  (286) 
91

>  <original_smiles>  (286) 
C=C1OC(=O)CC2CCC3C4=COC(O)C5C(C)(CC67CCC8(C)OC(=O)CC5(O6)C(C)C87)C4CCC3C12C

>  <smiles>  (286) 
[H]OC1([H])OC([H])=C2C3([H])C([H])([H])C([H])([H])C4([H])C([H])([H])C(=O)OC(=C([H])[H])C4(C([H])([H])[H])C3([H])C([H])([H])C([H])([H])C2([H])C2(C([H])([H])[H])C([H])([H])C34OC5(C([H])([H])C(=O)OC(C([H])([H])[H])(C([H])([H])C3([H])[H])C4([H])C5([H])C([H])([H])[H])C12[H]

$$$$
91:0:2
     RDKit          3D

 81 88  0  0  1  0  0  0  0  0999 V2000
    3.1019   -2.2970   -0.4246 C   0  0  0  0  0  0  0  0  0  0  0  0
    3.8061   -1.6362    0.5182 C   0  0  0  0  0  0  0  0  0  0  0  0
    4.9512   -1.0403    0.0617 O   0  0  0  0  0  0  0  0  0  0  0  0
    6.0898   -1.1183    0.7555 C   0  0  0  0  0  0  0  0  0  0  0  0
    7.2032   -1.1432    0.2528 O   0  0  0  0  0  0  0  0  0  0  0  0
    5.9583   -1.0531    2.2600 C   0  0  0  0  0  0  0  0  0  0  0  0
    4.8100   -1.9045    2.8027 C   0  0  1  0  0  0  0  0  0  0  0  0
    4.6580   -1.7308    4.3293 C   0  0  0  0  0  0  0  0  0  0  0  0
    4.1572   -0.3252    4.6896 C   0  0  0  0  0  0  0  0  0  0  0  0
    2.8316    0.0219    3.9676 C   0  0  1  0  0  0  0  0  0  0  0  0
    2.2960    1.4376    4.2486 C   0  0  0  0  0  0  0  0  0  0  0  0
    3.0715    2.3781    4.8376 C   0  0  0  0  0  0  0  0  0  0  0  0
    2.8422    3.7141    5.0437 O   0  0  0  0  0  0  0  0  0  0  0  0
    1.9283    4.4484    4.2981 C   0  0  1  0  0  0  0  0  0  0  0  0
    2.1602    4.4145    2.9125 O   0  0  0  0  0  0  0  0  0  0  0  0
    0.4626    4.1264    4.6949 C   0  0  1  0  0  0  0  0  0  0  0  0
   -0.0923    2.6650    4.3523 C   0  0  2  0  0  0  0  0  0  0  0  0
   -1.3127    2.8986    3.4095 C   0  0  0  0  0  0  0  0  0  0  0  0
   -0.7358    1.9605    5.6311 C   0  0  0  0  0  0  0  0  0  0  0  0
   -1.2137    2.9182    6.7635 C   0  0  2  0  0  0  0  0  0  0  0  0
   -2.5802    2.7508    7.4191 C   0  0  0  0  0  0  0  0  0  0  0  0
   -2.5347    3.7831    8.5663 C   0  0  0  0  0  0  0  0  0  0  0  0
   -1.0356    4.0323    8.9061 C   0  0  2  0  0  0  0  0  0  0  0  0
   -0.7292    3.6203   10.3597 C   0  0  0  0  0  0  0  0  0  0  0  0
   -0.7493    5.4556    8.9117 O   0  0  0  0  0  0  0  0  0  0  0  0
   -0.5920    6.3820    7.8883 C   0  0  0  0  0  0  0  0  0  0  0  0
   -0.8851    7.5649    8.0693 O   0  0  0  0  0  0  0  0  0  0  0  0
    0.0662    6.0305    6.5311 C   0  0  0  0  0  0  0  0  0  0  0  0
    0.1848    4.5515    6.1643 C   0  0  1  0  0  0  0  0  0  0  0  0
   -1.1799    4.1891    6.1998 O   0  0  0  0  0  0  0  0  0  0  0  0
    0.9246    3.7099    7.2282 C   0  0  1  0  0  0  0  0  0  0  0  0
    2.0494    4.3465    8.0708 C   0  0  0  0  0  0  0  0  0  0  0  0
   -0.2543    3.1170    7.9323 C   0  0  2  0  0  0  0  0  0  0  0  0
    0.8877    1.6207    3.6763 C   0  0  1  0  0  0  0  0  0  0  0  0
    1.0052    1.5369    2.1358 C   0  0  0  0  0  0  0  0  0  0  0  0
    1.6401    0.1986    1.7098 C   0  0  0  0  0  0  0  0  0  0  0  0
    2.9567   -0.1854    2.4323 C   0  0  2  0  0  0  0  0  0  0  0  0
    3.4945   -1.6099    2.0368 C   0  0  1  0  0  0  0  0  0  0  0  0
    2.4779   -2.7277    2.4008 C   0  0  0  0  0  0  0  0  0  0  0  0
    2.1882   -2.8291   -0.2215 H   0  0  0  0  0  0  0  0  0  0  0  0
    3.4288   -2.2596   -1.4580 H   0  0  0  0  0  0  0  0  0  0  0  0
    6.9011   -1.4240    2.6429 H   0  0  0  0  0  0  0  0  0  0  0  0
    5.8899   -0.0087    2.5610 H   0  0  0  0  0  0  0  0  0  0  0  0
    5.0830   -2.9494    2.6277 H   0  0  0  0  0  0  0  0  0  0  0  0
    3.9739   -2.4770    4.7339 H   0  0  0  0  0  0  0  0  0  0  0  0
    5.6102   -1.9267    4.8275 H   0  0  0  0  0  0  0  0  0  0  0  0
    4.0285   -0.2585    5.7719 H   0  0  0  0  0  0  0  0  0  0  0  0
    4.9424    0.3862    4.4333 H   0  0  0  0  0  0  0  0  0  0  0  0
    2.0848   -0.6673    4.3620 H   0  0  0  0  0  0  0  0  0  0  0  0
    4.0718    2.1663    5.1770 H   0  0  0  0  0  0  0  0  0  0  0  0
    2.1302    5.4816    4.5922 H   0  0  0  0  0  0  0  0  0  0  0  0
    2.9378    4.9252    2.7225 H   0  0  0  0  0  0  0  0  0  0  0  0
   -0.1085    4.8365    4.0893 H   0  0  0  0  0  0  0  0  0  0  0  0
   -1.7956    1.9717    3.0960 H   0  0  0  0  0  0  0  0  0  0  0  0
   -1.0258    3.4273    2.4979 H   0  0  0  0  0  0  0  0  0  0  0  0
   -2.0853    3.5075    3.8820 H   0  0  0  0  0  0  0  0  0  0  0  0
   -1.5818    1.3466    5.3202 H   0  0  0  0  0  0  0  0  0  0  0  0
   -0.0336    1.2448    6.0622 H   0  0  0  0  0  0  0  0  0  0  0  0
   -3.4075    2.9370    6.7344 H   0  0  0  0  0  0  0  0  0  0  0  0
   -2.6898    1.7461    7.8228 H   0  0  0  0  0  0  0  0  0  0  0  0
   -2.9956    4.7131    8.2313 H   0  0  0  0  0  0  0  0  0  0  0  0
   -3.1151    3.4512    9.4283 H   0  0  0  0  0  0  0  0  0  0  0  0
   -0.9503    2.5694   10.5465 H   0  0  0  0  0  0  0  0  0  0  0  0
   -1.3133    4.2048   11.0695 H   0  0  0  0  0  0  0  0  0  0  0  0
    0.3224    3.7821   10.5961 H   0  0  0  0  0  0  0  0  0  0  0  0
   -0.5216    6.5293    5.7613 H   0  0  0  0  0  0  0  0  0  0  0  0
    1.0512    6.4945    6.5103 H   0  0  0  0  0  0  0  0  0  0  0  0
    1.4042    2.8650    6.7496 H   0  0  0  0  0  0  0  0  0  0  0  0
    1.7263    5.1586    8.7166 H   0  0  0  0  0  0  0  0  0  0  0  0
    2.8342    4.7439    7.4269 H   0  0  0  0  0  0  0  0  0  0  0  0
    2.5117    3.5973    8.7131 H   0  0  0  0  0  0  0  0  0  0  0  0
   -0.0118    2.1590    8.3938 H   0  0  0  0  0  0  0  0  0  0  0  0
    0.3875    0.6784    3.9029 H   0  0  0  0  0  0  0  0  0  0  0  0
    0.0346    1.5965    1.6470 H   0  0  0  0  0  0  0  0  0  0  0  0
    1.5908    2.3589    1.7326 H   0  0  0  0  0  0  0  0  0  0  0  0
    0.8904   -0.5768    1.8463 H   0  0  0  0  0  0  0  0  0  0  0  0
    1.8292    0.2567    0.6430 H   0  0  0  0  0  0  0  0  0  0  0  0
    3.6979    0.5398    2.0936 H   0  0  0  0  0  0  0  0  0  0  0  0
    2.2062   -2.7298    3.4531 H   0  0  0  0  0  0  0  0  0  0  0  0
    2.8785   -3.7160    2.1721 H   0  0  0  0  0  0  0  0  0  0  0  0
    1.5440   -2.6312    1.8534 H   0  0  0  0  0  0  0  0  0  0  0  0
  1  2  2  0
  1 40  1  0
  1 41  1  0
  2 38  1  0
  2  3  1  0
  3  4  1  0
  4  5  2  0
  4  6  1  0
  6  7  1  0
  6 42  1  0
  6 43  1  0
  7 38  1  0
  7  8  1  0
  7 44  1  1
  8  9  1  0
  8 45  1  0
  8 46  1  0
  9 10  1  0
  9 47  1  0
  9 48  1  0
 10 37  1  0
 10 11  1  0
 10 49  1  1
 11 34  1  0
 11 12  2  0
 12 13  1  0
 12 50  1  0
 13 14  1  0
 14 15  1  0
 14 16  1  0
 14 51  1  1
 15 52  1  0
 16 29  1  0
 16 17  1  0
 16 53  1  6
 17 18  1  6
 17 19  1  0
 17 34  1  0
 18 54  1  0
 18 55  1  0
 18 56  1  0
 20 19  1  6
 19 57  1  0
 19 58  1  0
 20 30  1  0
 20 33  1  0
 20 21  1  0
 21 22  1  0
 21 59  1  0
 21 60  1  0
 22 23  1  0
 22 61  1  0
 22 62  1  0
 23 33  1  0
 23 24  1  1
 23 25  1  0
 24 63  1  0
 24 64  1  0
 24 65  1  0
 25 26  1  0
 26 27  2  0
 26 28  1  0
 29 28  1  6
 28 66  1  0
 28 67  1  0
 29 30  1  0
 29 31  1  0
 31 32  1  0
 31 33  1  0
 31 68  1  6
 32 69  1  0
 32 70  1  0
 32 71  1  0
 33 72  1  1
 34 35  1  0
 34 73  1  1
 35 36  1  0
 35 74  1  0
 35 75  1  0
 36 37  1  0
 36 76  1  0
 36 77  1  0
 37 38  1  0
 37 78  1  6
 38 39  1  6
 39 79  1  0
 39 80  1  0
 39 81  1  0
M  END
>  <i_m_ct_stereo_status>  (287) 
1

>  <s_m_source_file>  (287) 
/var/tmp/pbs.5076255.sched01/tmpy8l6melh/117u1qm2xak.sdf

>  <i_m_source_file_index>  (287) 
11

>  <i_lp_mmshare_version>  (287) 
48012

>  <i_f3d_flags>  (287) 
0

>  <s_epik_input>  (287) 
W0NIMl09QzFPQyg9TylbQ0gyXVtDQEBIXShbQ0gyXVtDSDJdMilbQ0BAXTEoW0NIM10pW0NAQEhdKFtDSDJdW0NIMl0zKVtDQEBIXTJDKD1bQ0hdT1tDQEhdNFtPSF0pW0NASF0zW0NAQF0oW0NIM10pKFtDSDJdNSlbQ0BIXTRbQ0BAXShPNikoW0NASF03W0NIM10pW0NIMl1DKD1PKU9bQ0BdKFtDSDNdKShbQ0BIXTdbQ0BdNTY4KVtDSDJdW0NIMl04

>  <s_epik_cmdline>  (287) 
J2VwaWtfcHl0aG9uJywgJy1waHQnLCAnMi4wJywgJy1waCcsICc3LjAnLCAnLXRuJywgJzgnLCAnLW1hJywgJzIwMCcsICctaW1hZScsICc8aW5maWxlLm1hZT4nLCAnLW9tYWUnLCAnPG91dGZpbGUubWFlPic=

>  <r_lp_tautomer_probability>  (287) 
1

>  <r_epik_Ionization_Penalty>  (287) 
1.7065e-07

>  <r_epik_Ionization_Penalty_Charging>  (287) 
0

>  <r_epik_Ionization_Penalty_Neutral>  (287) 
1.7065e-07

>  <r_epik_State_Penalty>  (287) 
-0

>  <r_epik_Charging_Adjusted_Penalty>  (287) 
0

>  <i_epik_Tot_Q>  (287) 
0

>  <i_epik_Tot_abs_Q>  (287) 
0

>  <s_epik_Chemistry_Notes>  (287) 
This compound has an ester and may undergo hydrolysis at high or low pH. This compound contains an acetal/aminal-like group ( X-CH(R)-Y where X, Y are N, S, or O) that may be acid/base labile, releasing an aldehyde.

>  <s_lp_Force_Field>  (287) 
OPLS3e

>  <r_lp_Energy>  (287) 
110.175

>  <b_lp_Chiralities_Consistent>  (287) 
1

>  <s_lp_Variant>  (287) 
91:0-1

>  <s_i_glide_gridfile>  (287) 
pfpi4k_grid

>  <i_i_glide_lignum>  (287) 
11

>  <i_i_glide_rotatable_bonds>  (287) 
1

>  <r_i_docking_score>  (287) 
-2.42902

>  <r_i_glide_ligand_efficiency>  (287) 
-0.0622827

>  <r_i_glide_ligand_efficiency_sa>  (287) 
-0.211214

>  <r_i_glide_ligand_efficiency_ln>  (287) 
-0.520852

>  <r_i_glide_gscore>  (287) 
-2.42902

>  <r_i_glide_lipo>  (287) 
-0.402904

>  <r_i_glide_hbond>  (287) 
-0.0645603

>  <r_i_glide_metal>  (287) 
-0

>  <r_i_glide_rewards>  (287) 
-0.178005

>  <r_i_glide_evdw>  (287) 
-31.4981

>  <r_i_glide_ecoul>  (287) 
-1.19829

>  <r_i_glide_erotb>  (287) 
0

>  <r_i_glide_esite>  (287) 
-0.0289079

>  <r_i_glide_emodel>  (287) 
-37.489

>  <r_i_glide_energy>  (287) 
-32.6964

>  <r_i_glide_einternal>  (287) 
0.502436

>  <r_i_glide_intrahb_reward>  (287) 
-0

>  <i_i_glide_confnum>  (287) 
1

>  <i_i_glide_posenum>  (287) 
27

>  <r_i_glide_eff_state_penalty>  (287) 
0

>  <ligand_id>  (287) 
91

>  <original_smiles>  (287) 
C=C1OC(=O)CC2CCC3C4=COC(O)C5C(C)(CC67CCC8(C)OC(=O)CC5(O6)C(C)C87)C4CCC3C12C

>  <smiles>  (287) 
[H]OC1([H])OC([H])=C2C3([H])C([H])([H])C([H])([H])C4([H])C([H])([H])C(=O)OC(=C([H])[H])C4(C([H])([H])[H])C3([H])C([H])([H])C([H])([H])C2([H])C2(C([H])([H])[H])C([H])([H])C34OC5(C([H])([H])C(=O)OC(C([H])([H])[H])(C([H])([H])C3([H])[H])C4([H])C5([H])C([H])([H])[H])C12[H]

$$$$
92:0:0
     RDKit          3D

 44 48  0  0  1  0  0  0  0  0999 V2000
    5.9584   -3.1740   -1.6282 C   0  0  0  0  0  0  0  0  0  0  0  0
    4.5605   -3.1286   -1.0361 C   0  0  0  0  0  0  0  0  0  0  0  0
    3.6798   -2.1986   -1.8489 C   0  0  0  0  0  0  0  0  0  0  0  0
    3.9887   -4.3836   -0.4241 C   0  0  1  0  0  0  0  0  0  0  0  0
    4.5536   -5.7617    0.0437 C   0  0  0  0  0  0  0  0  0  0  0  0
    4.0157   -6.3034    1.4383 C   0  0  2  0  0  0  0  0  0  0  0  0
    2.6857   -6.9503    1.4602 O   0  0  0  0  0  0  0  0  0  0  0  0
    1.6111   -6.4215    2.3259 C   0  0  2  0  0  0  0  0  0  0  0  0
    0.9718   -7.4561    3.2359 C   0  0  0  0  0  0  0  0  0  0  0  0
   -0.1277   -7.3942    2.2172 C   0  0  0  0  0  0  0  0  0  0  0  0
   -1.1936   -7.9777    2.0288 O   0  0  0  0  0  0  0  0  0  0  0  0
    0.3358   -6.2910    1.6136 O   0  0  0  0  0  0  0  0  0  0  0  0
    2.0427   -5.0557    2.9626 C   0  0  2  0  0  0  0  0  0  0  0  0
    2.8216   -4.2342    1.9333 C   0  0  1  0  0  0  0  0  0  0  0  0
    3.2233   -2.8349    1.4741 C   0  0  0  0  0  0  0  0  0  0  0  0
    4.3664   -3.1588    0.4687 C   0  0  2  0  0  0  0  0  0  0  0  0
    3.9589   -5.1315    2.3858 C   0  0  1  0  0  0  0  0  0  0  0  0
    3.3309   -5.1968    3.7926 C   0  0  0  0  0  0  0  0  0  0  0  0
    3.6194   -4.0605    4.7823 C   0  0  0  0  0  0  0  0  0  0  0  0
    3.5955   -6.4952    4.5664 C   0  0  0  0  0  0  0  0  0  0  0  0
    5.9313   -3.5630   -2.6480 H   0  0  0  0  0  0  0  0  0  0  0  0
    6.5951   -3.8289   -1.0305 H   0  0  0  0  0  0  0  0  0  0  0  0
    6.4079   -2.1825   -1.6419 H   0  0  0  0  0  0  0  0  0  0  0  0
    2.6779   -2.1782   -1.4242 H   0  0  0  0  0  0  0  0  0  0  0  0
    3.6026   -2.5361   -2.8831 H   0  0  0  0  0  0  0  0  0  0  0  0
    4.0761   -1.1798   -1.8313 H   0  0  0  0  0  0  0  0  0  0  0  0
    2.9777   -4.5038   -0.7972 H   0  0  0  0  0  0  0  0  0  0  0  0
    4.3547   -6.5086   -0.7250 H   0  0  0  0  0  0  0  0  0  0  0  0
    5.6336   -5.6732    0.0991 H   0  0  0  0  0  0  0  0  0  0  0  0
    4.7306   -7.0490    1.8037 H   0  0  0  0  0  0  0  0  0  0  0  0
    1.5238   -8.3815    3.3562 H   0  0  0  0  0  0  0  0  0  0  0  0
    0.6767   -7.0065    4.1795 H   0  0  0  0  0  0  0  0  0  0  0  0
    1.2515   -4.4911    3.4418 H   0  0  0  0  0  0  0  0  0  0  0  0
    2.2223   -4.5838    1.1022 H   0  0  0  0  0  0  0  0  0  0  0  0
    2.4036   -2.3061    0.9854 H   0  0  0  0  0  0  0  0  0  0  0  0
    3.6161   -2.2084    2.2756 H   0  0  0  0  0  0  0  0  0  0  0  0
    5.3258   -3.1683    0.9676 H   0  0  0  0  0  0  0  0  0  0  0  0
    4.9111   -4.6295    2.5027 H   0  0  0  0  0  0  0  0  0  0  0  0
    4.6729   -4.0478    5.0641 H   0  0  0  0  0  0  0  0  0  0  0  0
    3.0398   -4.1853    5.6982 H   0  0  0  0  0  0  0  0  0  0  0  0
    3.3702   -3.0791    4.3825 H   0  0  0  0  0  0  0  0  0  0  0  0
    4.5909   -6.5044    5.0137 H   0  0  0  0  0  0  0  0  0  0  0  0
    3.5676   -7.3755    3.9177 H   0  0  0  0  0  0  0  0  0  0  0  0
    2.8654   -6.6570    5.3644 H   0  0  0  0  0  0  0  0  0  0  0  0
  1  2  1  0
  1 21  1  0
  1 22  1  0
  1 23  1  0
  2 16  1  0
  2  3  1  0
  2  4  1  0
  3 24  1  0
  3 25  1  0
  3 26  1  0
  4 16  1  0
  4  5  1  0
  4 27  1  6
  5  6  1  0
  5 28  1  0
  5 29  1  0
  6 17  1  0
  6  7  1  0
  6 30  1  1
  7  8  1  0
  8 12  1  6
  8  9  1  0
  8 13  1  0
  9 10  1  0
  9 31  1  0
  9 32  1  0
 10 11  2  0
 10 12  1  0
 13 18  1  0
 13 14  1  0
 13 33  1  1
 14 15  1  0
 14 17  1  0
 14 34  1  6
 15 16  1  0
 15 35  1  0
 15 36  1  0
 16 37  1  1
 17 18  1  0
 17 38  1  1
 18 19  1  0
 18 20  1  0
 19 39  1  0
 19 40  1  0
 19 41  1  0
 20 42  1  0
 20 43  1  0
 20 44  1  0
M  END
>  <i_m_ct_stereo_status>  (288) 
1

>  <s_m_source_file>  (288) 
/var/tmp/pbs.5076255.sched01/tmpy8l6melh/117u1qm2xak.sdf

>  <i_m_source_file_index>  (288) 
12

>  <i_lp_mmshare_version>  (288) 
48012

>  <i_f3d_flags>  (288) 
0

>  <s_epik_input>  (288) 
W0NIM11DMShbQ0gzXSlbQ0BASF0oW0NIMl0yKVtDQEBIXTFbQ0gyXVtDQEhdKE8zKVtDQEhdKEM0KFtDSDNdKVtDSDNdKVtDQEhdMltDQEhdNFtDQF0zNVtDSDJdQyg9TylPNQ==

>  <s_epik_cmdline>  (288) 
J2VwaWtfcHl0aG9uJywgJy1waHQnLCAnMi4wJywgJy1waCcsICc3LjAnLCAnLXRuJywgJzgnLCAnLW1hJywgJzIwMCcsICctaW1hZScsICc8aW5maWxlLm1hZT4nLCAnLW9tYWUnLCAnPG91dGZpbGUubWFlPic=

>  <r_lp_tautomer_probability>  (288) 
1

>  <r_epik_Ionization_Penalty>  (288) 
6.80156e-14

>  <r_epik_Ionization_Penalty_Charging>  (288) 
0

>  <r_epik_Ionization_Penalty_Neutral>  (288) 
6.80156e-14

>  <r_epik_State_Penalty>  (288) 
-0

>  <r_epik_Charging_Adjusted_Penalty>  (288) 
0

>  <i_epik_Tot_Q>  (288) 
0

>  <i_epik_Tot_abs_Q>  (288) 
0

>  <s_epik_Chemistry_Notes>  (288) 
This compound has an ester and may undergo hydrolysis at high or low pH.

>  <s_lp_Force_Field>  (288) 
OPLS3e

>  <r_lp_Energy>  (288) 
113.909

>  <b_lp_Chiralities_Consistent>  (288) 
1

>  <s_lp_Variant>  (288) 
92:0-1

>  <s_i_glide_gridfile>  (288) 
pfpi4k_grid

>  <i_i_glide_lignum>  (288) 
12

>  <i_i_glide_rotatable_bonds>  (288) 
0

>  <r_i_docking_score>  (288) 
-3.20064

>  <r_i_glide_ligand_efficiency>  (288) 
-0.160032

>  <r_i_glide_ligand_efficiency_sa>  (288) 
-0.434393

>  <r_i_glide_ligand_efficiency_ln>  (288) 
-0.801014

>  <r_i_glide_gscore>  (288) 
-3.20064

>  <r_i_glide_lipo>  (288) 
-0.215271

>  <r_i_glide_hbond>  (288) 
-0.223109

>  <r_i_glide_metal>  (288) 
-0

>  <r_i_glide_rewards>  (288) 
-1.52475

>  <r_i_glide_evdw>  (288) 
-16.4051

>  <r_i_glide_ecoul>  (288) 
-2.09543

>  <r_i_glide_erotb>  (288) 
0

>  <r_i_glide_esite>  (288) 
-0.10294

>  <r_i_glide_emodel>  (288) 
-21.7193

>  <r_i_glide_energy>  (288) 
-18.5005

>  <r_i_glide_einternal>  (288) 
0

>  <r_i_glide_intrahb_reward>  (288) 
-0

>  <i_i_glide_confnum>  (288) 
2

>  <i_i_glide_posenum>  (288) 
13

>  <r_i_glide_eff_state_penalty>  (288) 
0

>  <ligand_id>  (288) 
92

>  <original_smiles>  (288) 
CC1(C)C2CC3OC4(CC(=O)O4)C4C(CC21)C3C4(C)C

>  <smiles>  (288) 
[H]C([H])([H])C1(C([H])([H])[H])C2([H])C([H])([H])C3([H])OC4(OC(=O)C4([H])[H])C4([H])C([H])(C([H])([H])C21[H])C3([H])C4(C([H])([H])[H])C([H])([H])[H]

$$$$
92:0:1
     RDKit          3D

 44 48  0  0  1  0  0  0  0  0999 V2000
    4.8525   -2.0134   -3.8088 C   0  0  0  0  0  0  0  0  0  0  0  0
    3.8943   -2.1581   -2.6886 C   0  0  0  0  0  0  0  0  0  0  0  0
    2.6062   -1.5476   -3.1254 C   0  0  0  0  0  0  0  0  0  0  0  0
    3.9308   -3.4003   -1.8570 C   0  0  1  0  0  0  0  0  0  0  0  0
    4.9825   -4.5213   -1.5984 C   0  0  0  0  0  0  0  0  0  0  0  0
    5.1468   -5.0002   -0.0959 C   0  0  2  0  0  0  0  0  0  0  0  0
    4.1219   -5.9002    0.4777 O   0  0  0  0  0  0  0  0  0  0  0  0
    3.3676   -5.4795    1.6848 C   0  0  2  0  0  0  0  0  0  0  0  0
    3.3805   -6.4922    2.8264 C   0  0  0  0  0  0  0  0  0  0  0  0
    1.9727   -6.7884    2.3202 C   0  0  0  0  0  0  0  0  0  0  0  0
    1.1030   -7.6226    2.5734 O   0  0  0  0  0  0  0  0  0  0  0  0
    1.9278   -5.6928    1.5030 O   0  0  0  0  0  0  0  0  0  0  0  0
    3.6704   -3.9869    2.0408 C   0  0  2  0  0  0  0  0  0  0  0  0
    3.7708   -3.1781    0.7509 C   0  0  1  0  0  0  0  0  0  0  0  0
    3.6580   -1.7934    0.1294 C   0  0  0  0  0  0  0  0  0  0  0  0
    4.3287   -2.0020   -1.2505 C   0  0  2  0  0  0  0  0  0  0  0  0
    5.1804   -3.7527    0.7439 C   0  0  1  0  0  0  0  0  0  0  0  0
    5.1608   -3.7630    2.2751 C   0  0  0  0  0  0  0  0  0  0  0  0
    5.5194   -2.4611    2.9910 C   0  0  0  0  0  0  0  0  0  0  0  0
    5.9956   -4.8855    2.8931 C   0  0  0  0  0  0  0  0  0  0  0  0
    4.5198   -2.5911   -4.6701 H   0  0  0  0  0  0  0  0  0  0  0  0
    5.7960   -2.4101   -3.4684 H   0  0  0  0  0  0  0  0  0  0  0  0
    4.9627   -0.9621   -4.0691 H   0  0  0  0  0  0  0  0  0  0  0  0
    1.8822   -1.7348   -2.3364 H   0  0  0  0  0  0  0  0  0  0  0  0
    2.2340   -2.0204   -4.0399 H   0  0  0  0  0  0  0  0  0  0  0  0
    2.7149   -0.4703   -3.2980 H   0  0  0  0  0  0  0  0  0  0  0  0
    2.9138   -3.7940   -1.8016 H   0  0  0  0  0  0  0  0  0  0  0  0
    4.7620   -5.3913   -2.1903 H   0  0  0  0  0  0  0  0  0  0  0  0
    5.9365   -4.1796   -1.9937 H   0  0  0  0  0  0  0  0  0  0  0  0
    6.1012   -5.5298   -0.0285 H   0  0  0  0  0  0  0  0  0  0  0  0
    4.1475   -7.2634    2.7430 H   0  0  0  0  0  0  0  0  0  0  0  0
    3.3926   -5.9829    3.7847 H   0  0  0  0  0  0  0  0  0  0  0  0
    3.0127   -3.5369    2.7777 H   0  0  0  0  0  0  0  0  0  0  0  0
    2.9901   -3.7340    0.2407 H   0  0  0  0  0  0  0  0  0  0  0  0
    2.6175   -1.4866    0.0058 H   0  0  0  0  0  0  0  0  0  0  0  0
    4.1809   -1.0062    0.6669 H   0  0  0  0  0  0  0  0  0  0  0  0
    5.3863   -1.7536   -1.2094 H   0  0  0  0  0  0  0  0  0  0  0  0
    5.9537   -3.0574    0.4288 H   0  0  0  0  0  0  0  0  0  0  0  0
    6.5356   -2.1656    2.7443 H   0  0  0  0  0  0  0  0  0  0  0  0
    5.4324   -2.5729    4.0742 H   0  0  0  0  0  0  0  0  0  0  0  0
    4.8949   -1.6153    2.7058 H   0  0  0  0  0  0  0  0  0  0  0  0
    7.0484   -4.6620    2.8035 H   0  0  0  0  0  0  0  0  0  0  0  0
    5.8969   -5.8332    2.3643 H   0  0  0  0  0  0  0  0  0  0  0  0
    5.7519   -5.0527    3.9443 H   0  0  0  0  0  0  0  0  0  0  0  0
  1  2  1  0
  1 21  1  0
  1 22  1  0
  1 23  1  0
  2 16  1  0
  2  3  1  0
  2  4  1  0
  3 24  1  0
  3 25  1  0
  3 26  1  0
  4 16  1  0
  4  5  1  0
  4 27  1  1
  5  6  1  0
  5 28  1  0
  5 29  1  0
  6 17  1  0
  6  7  1  0
  6 30  1  6
  7  8  1  0
  8 12  1  6
  8  9  1  0
  8 13  1  0
  9 10  1  0
  9 31  1  0
  9 32  1  0
 10 11  2  0
 10 12  1  0
 13 18  1  0
 13 14  1  0
 13 33  1  1
 14 15  1  0
 14 17  1  0
 14 34  1  6
 15 16  1  0
 15 35  1  0
 15 36  1  0
 16 37  1  6
 17 18  1  0
 17 38  1  1
 18 19  1  0
 18 20  1  0
 19 39  1  0
 19 40  1  0
 19 41  1  0
 20 42  1  0
 20 43  1  0
 20 44  1  0
M  END
>  <i_m_ct_stereo_status>  (289) 
1

>  <s_m_source_file>  (289) 
/var/tmp/pbs.5076255.sched01/tmpy8l6melh/117u1qm2xak.sdf

>  <i_m_source_file_index>  (289) 
12

>  <i_lp_mmshare_version>  (289) 
48012

>  <i_f3d_flags>  (289) 
0

>  <s_epik_input>  (289) 
W0NIM11DMShbQ0gzXSlbQ0BASF0oW0NIMl0yKVtDQEBIXTFbQ0gyXVtDQEhdKE8zKVtDQEhdKEM0KFtDSDNdKVtDSDNdKVtDQEhdMltDQEhdNFtDQF0zNVtDSDJdQyg9TylPNQ==

>  <s_epik_cmdline>  (289) 
J2VwaWtfcHl0aG9uJywgJy1waHQnLCAnMi4wJywgJy1waCcsICc3LjAnLCAnLXRuJywgJzgnLCAnLW1hJywgJzIwMCcsICctaW1hZScsICc8aW5maWxlLm1hZT4nLCAnLW9tYWUnLCAnPG91dGZpbGUubWFlPic=

>  <r_lp_tautomer_probability>  (289) 
1

>  <r_epik_Ionization_Penalty>  (289) 
6.80156e-14

>  <r_epik_Ionization_Penalty_Charging>  (289) 
0

>  <r_epik_Ionization_Penalty_Neutral>  (289) 
6.80156e-14

>  <r_epik_State_Penalty>  (289) 
-0

>  <r_epik_Charging_Adjusted_Penalty>  (289) 
0

>  <i_epik_Tot_Q>  (289) 
0

>  <i_epik_Tot_abs_Q>  (289) 
0

>  <s_epik_Chemistry_Notes>  (289) 
This compound has an ester and may undergo hydrolysis at high or low pH.

>  <s_lp_Force_Field>  (289) 
OPLS3e

>  <r_lp_Energy>  (289) 
113.909

>  <b_lp_Chiralities_Consistent>  (289) 
1

>  <s_lp_Variant>  (289) 
92:0-1

>  <s_i_glide_gridfile>  (289) 
pfpi4k_grid

>  <i_i_glide_lignum>  (289) 
12

>  <i_i_glide_rotatable_bonds>  (289) 
0

>  <r_i_docking_score>  (289) 
-2.18216

>  <r_i_glide_ligand_efficiency>  (289) 
-0.109108

>  <r_i_glide_ligand_efficiency_sa>  (289) 
-0.296164

>  <r_i_glide_ligand_efficiency_ln>  (289) 
-0.546122

>  <r_i_glide_gscore>  (289) 
-2.18216

>  <r_i_glide_lipo>  (289) 
-0.194113

>  <r_i_glide_hbond>  (289) 
-0.0138031

>  <r_i_glide_metal>  (289) 
-0

>  <r_i_glide_rewards>  (289) 
-1.53849

>  <r_i_glide_evdw>  (289) 
-6.65694

>  <r_i_glide_ecoul>  (289) 
-0.577412

>  <r_i_glide_erotb>  (289) 
0

>  <r_i_glide_esite>  (289) 
-0.0162953

>  <r_i_glide_emodel>  (289) 
-9.04132

>  <r_i_glide_energy>  (289) 
-7.23435

>  <r_i_glide_einternal>  (289) 
0

>  <r_i_glide_intrahb_reward>  (289) 
-0

>  <i_i_glide_confnum>  (289) 
2

>  <i_i_glide_posenum>  (289) 
17

>  <r_i_glide_eff_state_penalty>  (289) 
0

>  <ligand_id>  (289) 
92

>  <original_smiles>  (289) 
CC1(C)C2CC3OC4(CC(=O)O4)C4C(CC21)C3C4(C)C

>  <smiles>  (289) 
[H]C([H])([H])C1(C([H])([H])[H])C2([H])C([H])([H])C3([H])OC4(OC(=O)C4([H])[H])C4([H])C([H])(C([H])([H])C21[H])C3([H])C4(C([H])([H])[H])C([H])([H])[H]

$$$$
93:0:0
     RDKit          3D

 53 58  0  0  1  0  0  0  0  0999 V2000
   -0.3628    3.1191    8.5718 C   0  0  0  0  0  0  0  0  0  0  0  0
    1.0422    3.1119    7.9517 C   0  0  0  0  0  0  0  0  0  0  0  0
    1.0288    3.4798    6.4688 C   0  0  0  0  0  0  0  0  0  0  0  0
    1.3869    2.6410    5.4706 C   0  0  0  0  0  0  0  0  0  0  0  0
    2.5956    1.7675    5.6882 C   0  0  0  0  0  0  0  0  0  0  0  0
    3.4845    2.1438    4.4776 C   0  0  1  0  0  0  0  0  0  0  0  0
    3.3956    0.9458    3.5422 C   0  0  0  0  0  0  0  0  0  0  0  0
    4.4629    0.0377    3.3849 C   0  0  0  0  0  0  0  0  0  0  0  0
    4.2889   -1.1040    2.5746 C   0  0  0  0  0  0  0  0  0  0  0  0
    3.0486   -1.3421    1.9456 C   0  0  0  0  0  0  0  0  0  0  0  0
    1.9842   -0.4307    2.0997 C   0  0  0  0  0  0  0  0  0  0  0  0
    2.1566    0.7198    2.8979 C   0  0  0  0  0  0  0  0  0  0  0  0
    1.1008    1.8229    2.9709 C   0  0  1  0  0  0  0  0  0  0  0  0
   -0.3722    1.5000    3.1436 C   0  0  0  0  0  0  0  0  0  0  0  0
   -0.9021    2.9032    3.4946 C   0  0  0  0  0  0  0  0  0  0  0  0
    0.2187    3.8060    3.5963 N   0  0  0  0  0  0  0  0  0  0  0  0
    1.3613    2.9761    3.9781 C   0  0  1  0  0  0  0  0  0  0  0  0
    2.7997    3.4037    3.8345 C   0  0  1  0  0  0  0  0  0  0  0  0
    3.1108    4.7355    4.5202 C   0  0  0  0  0  0  0  0  0  0  0  0
    2.4080    5.4296    5.4650 C   0  0  0  0  0  0  0  0  0  0  0  0
    2.7793    6.7115    5.8012 O   0  0  0  0  0  0  0  0  0  0  0  0
    2.8493    7.6352    4.7166 C   0  0  0  0  0  0  0  0  0  0  0  0
    1.2127    4.9397    6.2363 C   0  0  0  0  0  0  0  0  0  0  0  0
    0.4383    5.7476    6.7575 O   0  0  0  0  0  0  0  0  0  0  0  0
   -1.7840    3.2853    2.4886 O   0  0  0  0  0  0  0  0  0  0  0  0
   -2.9189    3.8231    3.1106 C   0  0  0  0  0  0  0  0  0  0  0  0
   -2.9583    2.9613    4.3513 C   0  0  0  0  0  0  0  0  0  0  0  0
   -1.6013    2.8437    4.6954 O   0  0  0  0  0  0  0  0  0  0  0  0
   -0.3213    2.8067    9.6143 H   0  0  0  0  0  0  0  0  0  0  0  0
   -1.0341    2.4379    8.0491 H   0  0  0  0  0  0  0  0  0  0  0  0
   -0.8192    4.1099    8.5531 H   0  0  0  0  0  0  0  0  0  0  0  0
    1.6935    3.7932    8.4995 H   0  0  0  0  0  0  0  0  0  0  0  0
    1.4537    2.1138    8.0891 H   0  0  0  0  0  0  0  0  0  0  0  0
    3.1072    2.0108    6.6208 H   0  0  0  0  0  0  0  0  0  0  0  0
    2.3154    0.7123    5.7160 H   0  0  0  0  0  0  0  0  0  0  0  0
    4.5204    2.3281    4.7709 H   0  0  0  0  0  0  0  0  0  0  0  0
    5.4128    0.2194    3.8673 H   0  0  0  0  0  0  0  0  0  0  0  0
    5.1054   -1.7960    2.4391 H   0  0  0  0  0  0  0  0  0  0  0  0
    2.9167   -2.2189    1.3336 H   0  0  0  0  0  0  0  0  0  0  0  0
    1.0546   -0.5945    1.5799 H   0  0  0  0  0  0  0  0  0  0  0  0
    1.1816    2.2663    1.9738 H   0  0  0  0  0  0  0  0  0  0  0  0
   -0.8191    1.1136    2.2311 H   0  0  0  0  0  0  0  0  0  0  0  0
   -0.5478    0.8123    3.9624 H   0  0  0  0  0  0  0  0  0  0  0  0
    0.3921    4.1887    2.6643 H   0  0  0  0  0  0  0  0  0  0  0  0
    3.0945    3.5271    2.7975 H   0  0  0  0  0  0  0  0  0  0  0  0
    3.9936    5.2041    4.1112 H   0  0  0  0  0  0  0  0  0  0  0  0
    3.1398    8.6206    5.0853 H   0  0  0  0  0  0  0  0  0  0  0  0
    1.8678    7.7326    4.2487 H   0  0  0  0  0  0  0  0  0  0  0  0
    3.5729    7.3553    3.9499 H   0  0  0  0  0  0  0  0  0  0  0  0
   -2.7351    4.8670    3.3438 H   0  0  0  0  0  0  0  0  0  0  0  0
   -3.8131    3.7353    2.4902 H   0  0  0  0  0  0  0  0  0  0  0  0
   -3.5512    3.3515    5.1718 H   0  0  0  0  0  0  0  0  0  0  0  0
   -3.3246    1.9905    4.0658 H   0  0  0  0  0  0  0  0  0  0  0  0
  1  2  1  0
  1 29  1  0
  1 30  1  0
  1 31  1  0
  2  3  1  0
  2 32  1  0
  2 33  1  0
  3 23  1  0
  3  4  2  0
  4 17  1  0
  4  5  1  0
  5  6  1  0
  5 34  1  0
  5 35  1  0
  6 18  1  0
  6  7  1  0
  6 36  1  1
  7 12  2  0
  7  8  1  0
  8  9  2  0
  8 37  1  0
  9 10  1  0
  9 38  1  0
 10 11  2  0
 10 39  1  0
 11 12  1  0
 11 40  1  0
 12 13  1  0
 13 17  1  0
 13 14  1  0
 13 41  1  6
 14 15  1  0
 14 42  1  0
 14 43  1  0
 15 28  1  0
 15 16  1  0
 15 25  1  0
 17 16  1  1
 16 44  1  0
 17 18  1  0
 18 19  1  0
 18 45  1  6
 19 20  2  0
 19 46  1  0
 20 21  1  0
 20 23  1  0
 21 22  1  0
 22 47  1  0
 22 48  1  0
 22 49  1  0
 23 24  2  0
 25 26  1  0
 26 27  1  0
 26 50  1  0
 26 51  1  0
 27 28  1  0
 27 52  1  0
 27 53  1  0
M  END
>  <i_m_ct_stereo_status>  (290) 
1

>  <s_m_source_file>  (290) 
/var/tmp/pbs.5076255.sched01/tmpy8l6melh/117u1qm2xak.sdf

>  <i_m_source_file_index>  (290) 
13

>  <i_lp_mmshare_version>  (290) 
48012

>  <i_f3d_flags>  (290) 
0

>  <s_epik_input>  (290) 
TzFbQ0gyXVtDSDJdT0MxMltDSDJdW0NASF0zW0NAQF00KFtOSF0yKUM1PUMoW0NIMl1bQ0gzXSlDKD1PKUMoT1tDSDNdKT1bQ0hdW0NASF00W0NAQEhdKFtDSDJdNSljNmMzW2NIXVtjSF1bY0hdW2NIXTY=

>  <s_epik_cmdline>  (290) 
J2VwaWtfcHl0aG9uJywgJy1waHQnLCAnMi4wJywgJy1waCcsICc3LjAnLCAnLXRuJywgJzgnLCAnLW1hJywgJzIwMCcsICctaW1hZScsICc8aW5maWxlLm1hZT4nLCAnLW9tYWUnLCAnPG91dGZpbGUubWFlPic=

>  <r_lp_tautomer_probability>  (290) 
1

>  <r_epik_Ionization_Penalty>  (290) 
2.37191e-07

>  <r_epik_Ionization_Penalty_Charging>  (290) 
0

>  <r_epik_Ionization_Penalty_Neutral>  (290) 
2.37191e-07

>  <r_epik_State_Penalty>  (290) 
-0

>  <r_epik_Charging_Adjusted_Penalty>  (290) 
0

>  <i_epik_Tot_Q>  (290) 
0

>  <i_epik_Tot_abs_Q>  (290) 
0

>  <s_lp_Force_Field>  (290) 
OPLS3e

>  <r_lp_Energy>  (290) 
78.4224

>  <b_lp_Chiralities_Consistent>  (290) 
1

>  <s_lp_Variant>  (290) 
93:0-1

>  <s_i_glide_gridfile>  (290) 
pfpi4k_grid

>  <i_i_glide_lignum>  (290) 
13

>  <i_i_glide_rotatable_bonds>  (290) 
2

>  <r_i_docking_score>  (290) 
-2.55771

>  <r_i_glide_ligand_efficiency>  (290) 
-0.0913467

>  <r_i_glide_ligand_efficiency_sa>  (290) 
-0.277382

>  <r_i_glide_ligand_efficiency_ln>  (290) 
-0.590394

>  <r_i_glide_gscore>  (290) 
-2.55771

>  <r_i_glide_lipo>  (290) 
-0.0653181

>  <r_i_glide_hbond>  (290) 
-0.16

>  <r_i_glide_metal>  (290) 
-0

>  <r_i_glide_rewards>  (290) 
-0.821939

>  <r_i_glide_evdw>  (290) 
-18.7188

>  <r_i_glide_ecoul>  (290) 
-3.40187

>  <r_i_glide_erotb>  (290) 
0

>  <r_i_glide_esite>  (290) 
-0.064227

>  <r_i_glide_emodel>  (290) 
-25.3321

>  <r_i_glide_energy>  (290) 
-22.1207

>  <r_i_glide_einternal>  (290) 
0.016241

>  <r_i_glide_intrahb_reward>  (290) 
-0

>  <i_i_glide_confnum>  (290) 
5

>  <i_i_glide_posenum>  (290) 
22

>  <r_i_glide_eff_state_penalty>  (290) 
0

>  <ligand_id>  (290) 
93

>  <original_smiles>  (290) 
CCC1=C2CC3c4ccccc4C4CC5(NC24C3C=C(OC)C1=O)OCCO5

>  <smiles>  (290) 
[H]C1=C(OC([H])([H])[H])C(=O)C(C([H])([H])C([H])([H])[H])=C2C([H])([H])C3([H])c4c([H])c([H])c([H])c([H])c4C4([H])C([H])([H])C5(OC([H])([H])C([H])([H])O5)N([H])C24C13[H]

$$$$
93:0:1
     RDKit          3D

 53 58  0  0  1  0  0  0  0  0999 V2000
   -1.3047   -3.4782    7.1826 C   0  0  0  0  0  0  0  0  0  0  0  0
   -1.2325   -2.3823    6.0842 C   0  0  0  0  0  0  0  0  0  0  0  0
    0.1681   -1.9262    5.7087 C   0  0  0  0  0  0  0  0  0  0  0  0
    0.8960   -2.4228    4.6671 C   0  0  0  0  0  0  0  0  0  0  0  0
    0.8977   -3.9090    4.4581 C   0  0  0  0  0  0  0  0  0  0  0  0
    2.4002   -4.2448    4.5943 C   0  0  1  0  0  0  0  0  0  0  0  0
    2.8295   -4.5793    3.1822 C   0  0  0  0  0  0  0  0  0  0  0  0
    3.0755   -5.9054    2.7690 C   0  0  0  0  0  0  0  0  0  0  0  0
    3.3476   -6.1586    1.4109 C   0  0  0  0  0  0  0  0  0  0  0  0
    3.3580   -5.0979    0.4793 C   0  0  0  0  0  0  0  0  0  0  0  0
    3.1081   -3.7730    0.8938 C   0  0  0  0  0  0  0  0  0  0  0  0
    2.8460   -3.5166    2.2560 C   0  0  0  0  0  0  0  0  0  0  0  0
    2.7170   -2.0970    2.7959 C   0  0  1  0  0  0  0  0  0  0  0  0
    1.9140   -1.0597    2.0569 C   0  0  0  0  0  0  0  0  0  0  0  0
    1.8449    0.0376    3.1522 C   0  0  0  0  0  0  0  0  0  0  0  0
    2.4499   -0.4844    4.3588 N   0  0  0  0  0  0  0  0  0  0  0  0
    2.2883   -1.9376    4.2774 C   0  0  1  0  0  0  0  0  0  0  0  0
    3.0915   -2.9236    5.0894 C   0  0  1  0  0  0  0  0  0  0  0  0
    3.0165   -2.6661    6.5968 C   0  0  0  0  0  0  0  0  0  0  0  0
    2.1540   -1.8999    7.3287 C   0  0  0  0  0  0  0  0  0  0  0  0
    2.3891   -1.6600    8.6648 O   0  0  0  0  0  0  0  0  0  0  0  0
    3.6549   -1.0797    8.9642 C   0  0  0  0  0  0  0  0  0  0  0  0
    0.8809   -1.2818    6.8308 C   0  0  0  0  0  0  0  0  0  0  0  0
    0.3441   -0.3601    7.4506 O   0  0  0  0  0  0  0  0  0  0  0  0
    2.5094    1.1671    2.7024 O   0  0  0  0  0  0  0  0  0  0  0  0
    1.5683    1.8169    1.8723 C   0  0  0  0  0  0  0  0  0  0  0  0
    0.2368    1.4990    2.5516 C   0  0  0  0  0  0  0  0  0  0  0  0
    0.5133    0.3702    3.3579 O   0  0  0  0  0  0  0  0  0  0  0  0
   -2.3373   -3.7372    7.4103 H   0  0  0  0  0  0  0  0  0  0  0  0
   -0.8127   -3.1538    8.0991 H   0  0  0  0  0  0  0  0  0  0  0  0
   -0.8293   -4.4108    6.9065 H   0  0  0  0  0  0  0  0  0  0  0  0
   -1.7528   -2.6550    5.1834 H   0  0  0  0  0  0  0  0  0  0  0  0
   -1.7662   -1.4874    6.4078 H   0  0  0  0  0  0  0  0  0  0  0  0
    0.3640   -4.4614    5.2096 H   0  0  0  0  0  0  0  0  0  0  0  0
    0.4674   -4.1609    3.4876 H   0  0  0  0  0  0  0  0  0  0  0  0
    2.5770   -5.0822    5.2651 H   0  0  0  0  0  0  0  0  0  0  0  0
    3.0515   -6.7199    3.4794 H   0  0  0  0  0  0  0  0  0  0  0  0
    3.5509   -7.1679    1.0802 H   0  0  0  0  0  0  0  0  0  0  0  0
    3.5726   -5.2959   -0.5595 H   0  0  0  0  0  0  0  0  0  0  0  0
    3.1473   -2.9620    0.1793 H   0  0  0  0  0  0  0  0  0  0  0  0
    3.7497   -1.7546    2.7429 H   0  0  0  0  0  0  0  0  0  0  0  0
    2.4385   -0.7320    1.1590 H   0  0  0  0  0  0  0  0  0  0  0  0
    0.9136   -1.4051    1.7954 H   0  0  0  0  0  0  0  0  0  0  0  0
    3.4350   -0.2671    4.3509 H   0  0  0  0  0  0  0  0  0  0  0  0
    4.1511   -2.9102    4.8394 H   0  0  0  0  0  0  0  0  0  0  0  0
    3.8371   -3.1378    7.1151 H   0  0  0  0  0  0  0  0  0  0  0  0
    3.7472   -0.9181   10.0360 H   0  0  0  0  0  0  0  0  0  0  0  0
    3.7324   -0.1134    8.4681 H   0  0  0  0  0  0  0  0  0  0  0  0
    4.4988   -1.6957    8.6578 H   0  0  0  0  0  0  0  0  0  0  0  0
    1.7593    2.8865    1.7751 H   0  0  0  0  0  0  0  0  0  0  0  0
    1.5879    1.3615    0.8852 H   0  0  0  0  0  0  0  0  0  0  0  0
   -0.1068    2.3202    3.1850 H   0  0  0  0  0  0  0  0  0  0  0  0
   -0.5402    1.2760    1.8224 H   0  0  0  0  0  0  0  0  0  0  0  0
  1  2  1  0
  1 29  1  0
  1 30  1  0
  1 31  1  0
  2  3  1  0
  2 32  1  0
  2 33  1  0
  3 23  1  0
  3  4  2  0
  4 17  1  0
  4  5  1  0
  5  6  1  0
  5 34  1  0
  5 35  1  0
  6 18  1  0
  6  7  1  0
  6 36  1  1
  7 12  2  0
  7  8  1  0
  8  9  2  0
  8 37  1  0
  9 10  1  0
  9 38  1  0
 10 11  2  0
 10 39  1  0
 11 12  1  0
 11 40  1  0
 12 13  1  0
 13 17  1  0
 13 14  1  0
 13 41  1  1
 14 15  1  0
 14 42  1  0
 14 43  1  0
 15 28  1  0
 15 16  1  0
 15 25  1  0
 17 16  1  1
 16 44  1  0
 17 18  1  0
 18 19  1  0
 18 45  1  6
 19 20  2  0
 19 46  1  0
 20 21  1  0
 20 23  1  0
 21 22  1  0
 22 47  1  0
 22 48  1  0
 22 49  1  0
 23 24  2  0
 25 26  1  0
 26 27  1  0
 26 50  1  0
 26 51  1  0
 27 28  1  0
 27 52  1  0
 27 53  1  0
M  END
>  <i_m_ct_stereo_status>  (291) 
1

>  <s_m_source_file>  (291) 
/var/tmp/pbs.5076255.sched01/tmpy8l6melh/117u1qm2xak.sdf

>  <i_m_source_file_index>  (291) 
13

>  <i_lp_mmshare_version>  (291) 
48012

>  <i_f3d_flags>  (291) 
0

>  <s_epik_input>  (291) 
TzFbQ0gyXVtDSDJdT0MxMltDSDJdW0NASF0zW0NAQF00KFtOSF0yKUM1PUMoW0NIMl1bQ0gzXSlDKD1PKUMoT1tDSDNdKT1bQ0hdW0NASF00W0NAQEhdKFtDSDJdNSljNmMzW2NIXVtjSF1bY0hdW2NIXTY=

>  <s_epik_cmdline>  (291) 
J2VwaWtfcHl0aG9uJywgJy1waHQnLCAnMi4wJywgJy1waCcsICc3LjAnLCAnLXRuJywgJzgnLCAnLW1hJywgJzIwMCcsICctaW1hZScsICc8aW5maWxlLm1hZT4nLCAnLW9tYWUnLCAnPG91dGZpbGUubWFlPic=

>  <r_lp_tautomer_probability>  (291) 
1

>  <r_epik_Ionization_Penalty>  (291) 
2.37191e-07

>  <r_epik_Ionization_Penalty_Charging>  (291) 
0

>  <r_epik_Ionization_Penalty_Neutral>  (291) 
2.37191e-07

>  <r_epik_State_Penalty>  (291) 
-0

>  <r_epik_Charging_Adjusted_Penalty>  (291) 
0

>  <i_epik_Tot_Q>  (291) 
0

>  <i_epik_Tot_abs_Q>  (291) 
0

>  <s_lp_Force_Field>  (291) 
OPLS3e

>  <r_lp_Energy>  (291) 
78.4224

>  <b_lp_Chiralities_Consistent>  (291) 
1

>  <s_lp_Variant>  (291) 
93:0-1

>  <s_i_glide_gridfile>  (291) 
pfpi4k_grid

>  <i_i_glide_lignum>  (291) 
13

>  <i_i_glide_rotatable_bonds>  (291) 
2

>  <r_i_docking_score>  (291) 
-2.06088

>  <r_i_glide_ligand_efficiency>  (291) 
-0.0736027

>  <r_i_glide_ligand_efficiency_sa>  (291) 
-0.223501

>  <r_i_glide_ligand_efficiency_ln>  (291) 
-0.475711

>  <r_i_glide_gscore>  (291) 
-2.06088

>  <r_i_glide_lipo>  (291) 
-0.0681603

>  <r_i_glide_hbond>  (291) 
0

>  <r_i_glide_metal>  (291) 
-0

>  <r_i_glide_rewards>  (291) 
-0.821939

>  <r_i_glide_evdw>  (291) 
-17.6534

>  <r_i_glide_ecoul>  (291) 
-1.771

>  <r_i_glide_erotb>  (291) 
0

>  <r_i_glide_esite>  (291) 
-0.0224579

>  <r_i_glide_emodel>  (291) 
-20.8669

>  <r_i_glide_energy>  (291) 
-19.4244

>  <r_i_glide_einternal>  (291) 
1.49061

>  <r_i_glide_intrahb_reward>  (291) 
-0

>  <i_i_glide_confnum>  (291) 
6

>  <i_i_glide_posenum>  (291) 
36

>  <r_i_glide_eff_state_penalty>  (291) 
0

>  <ligand_id>  (291) 
93

>  <original_smiles>  (291) 
CCC1=C2CC3c4ccccc4C4CC5(NC24C3C=C(OC)C1=O)OCCO5

>  <smiles>  (291) 
[H]C1=C(OC([H])([H])[H])C(=O)C(C([H])([H])C([H])([H])[H])=C2C([H])([H])C3([H])c4c([H])c([H])c([H])c([H])c4C4([H])C([H])([H])C5(OC([H])([H])C([H])([H])O5)N([H])C24C13[H]

$$$$
93:0:2
     RDKit          3D

 53 58  0  0  1  0  0  0  0  0999 V2000
   -0.4998    0.3551    5.5366 C   0  0  0  0  0  0  0  0  0  0  0  0
   -0.1456   -1.0532    6.0373 C   0  0  0  0  0  0  0  0  0  0  0  0
    1.2080   -1.5390    5.5143 C   0  0  0  0  0  0  0  0  0  0  0  0
    1.3590   -2.6118    4.6956 C   0  0  0  0  0  0  0  0  0  0  0  0
    0.5397   -3.8406    4.9818 C   0  0  0  0  0  0  0  0  0  0  0  0
    1.6264   -4.9307    5.1397 C   0  0  1  0  0  0  0  0  0  0  0  0
    1.5431   -5.7616    3.8681 C   0  0  0  0  0  0  0  0  0  0  0  0
    0.9828   -7.0538    3.8502 C   0  0  0  0  0  0  0  0  0  0  0  0
    0.8284   -7.7266    2.6243 C   0  0  0  0  0  0  0  0  0  0  0  0
    1.2213   -7.1085    1.4196 C   0  0  0  0  0  0  0  0  0  0  0  0
    1.8113   -5.8301    1.4382 C   0  0  0  0  0  0  0  0  0  0  0  0
    1.9616   -5.1490    2.6644 C   0  0  0  0  0  0  0  0  0  0  0  0
    2.7044   -3.8199    2.7675 C   0  0  1  0  0  0  0  0  0  0  0  0
    2.4582   -2.7120    1.7717 C   0  0  0  0  0  0  0  0  0  0  0  0
    3.1776   -1.5486    2.4924 C   0  0  0  0  0  0  0  0  0  0  0  0
    3.6187   -2.0322    3.7859 N   0  0  0  0  0  0  0  0  0  0  0  0
    2.6978   -3.1122    4.1446 C   0  0  1  0  0  0  0  0  0  0  0  0
    2.9863   -4.1533    5.1993 C   0  0  1  0  0  0  0  0  0  0  0  0
    3.3405   -3.5596    6.5627 C   0  0  0  0  0  0  0  0  0  0  0  0
    3.1472   -2.2972    7.0541 C   0  0  0  0  0  0  0  0  0  0  0  0
    3.7238   -1.9306    8.2488 O   0  0  0  0  0  0  0  0  0  0  0  0
    5.1369   -2.1120    8.3347 C   0  0  0  0  0  0  0  0  0  0  0  0
    2.3309   -1.2003    6.4266 C   0  0  0  0  0  0  0  0  0  0  0  0
    2.5205   -0.0293    6.7592 O   0  0  0  0  0  0  0  0  0  0  0  0
    4.2405   -1.1227    1.7122 O   0  0  0  0  0  0  0  0  0  0  0  0
    3.6482   -0.2684    0.7531 C   0  0  0  0  0  0  0  0  0  0  0  0
    2.4970    0.3707    1.5272 C   0  0  0  0  0  0  0  0  0  0  0  0
    2.2861   -0.4936    2.6256 O   0  0  0  0  0  0  0  0  0  0  0  0
   -1.4866    0.6524    5.8828 H   0  0  0  0  0  0  0  0  0  0  0  0
   -0.5043    0.3983    4.4480 H   0  0  0  0  0  0  0  0  0  0  0  0
    0.2072    1.1048    5.8900 H   0  0  0  0  0  0  0  0  0  0  0  0
   -0.1503   -1.0725    7.1273 H   0  0  0  0  0  0  0  0  0  0  0  0
   -0.9396   -1.7235    5.7111 H   0  0  0  0  0  0  0  0  0  0  0  0
   -0.0295   -3.7395    5.9048 H   0  0  0  0  0  0  0  0  0  0  0  0
   -0.1559   -4.0290    4.1665 H   0  0  0  0  0  0  0  0  0  0  0  0
    1.4658   -5.5558    6.0178 H   0  0  0  0  0  0  0  0  0  0  0  0
    0.6710   -7.5336    4.7696 H   0  0  0  0  0  0  0  0  0  0  0  0
    0.4097   -8.7226    2.6002 H   0  0  0  0  0  0  0  0  0  0  0  0
    1.0829   -7.6368    0.4878 H   0  0  0  0  0  0  0  0  0  0  0  0
    2.1570   -5.3791    0.5172 H   0  0  0  0  0  0  0  0  0  0  0  0
    3.7316   -4.1393    2.5906 H   0  0  0  0  0  0  0  0  0  0  0  0
    2.8978   -2.9454    0.8001 H   0  0  0  0  0  0  0  0  0  0  0  0
    1.4099   -2.4713    1.6604 H   0  0  0  0  0  0  0  0  0  0  0  0
    4.5474   -2.4158    3.7002 H   0  0  0  0  0  0  0  0  0  0  0  0
    3.8240   -4.7908    4.9272 H   0  0  0  0  0  0  0  0  0  0  0  0
    3.8857   -4.2608    7.1761 H   0  0  0  0  0  0  0  0  0  0  0  0
    5.4984   -1.7832    9.3078 H   0  0  0  0  0  0  0  0  0  0  0  0
    5.6328   -1.5080    7.5753 H   0  0  0  0  0  0  0  0  0  0  0  0
    5.4512   -3.1478    8.2125 H   0  0  0  0  0  0  0  0  0  0  0  0
    4.3447    0.4647    0.3534 H   0  0  0  0  0  0  0  0  0  0  0  0
    3.2644   -0.8548   -0.0825 H   0  0  0  0  0  0  0  0  0  0  0  0
    2.7659    1.3578    1.8977 H   0  0  0  0  0  0  0  0  0  0  0  0
    1.5980    0.4680    0.9194 H   0  0  0  0  0  0  0  0  0  0  0  0
  1  2  1  0
  1 29  1  0
  1 30  1  0
  1 31  1  0
  2  3  1  0
  2 32  1  0
  2 33  1  0
  3 23  1  0
  3  4  2  0
  4 17  1  0
  4  5  1  0
  5  6  1  0
  5 34  1  0
  5 35  1  0
  6 18  1  0
  6  7  1  0
  6 36  1  1
  7 12  2  0
  7  8  1  0
  8  9  2  0
  8 37  1  0
  9 10  1  0
  9 38  1  0
 10 11  2  0
 10 39  1  0
 11 12  1  0
 11 40  1  0
 12 13  1  0
 13 17  1  0
 13 14  1  0
 13 41  1  6
 14 15  1  0
 14 42  1  0
 14 43  1  0
 15 28  1  0
 15 16  1  0
 15 25  1  0
 17 16  1  6
 16 44  1  0
 17 18  1  0
 18 19  1  0
 18 45  1  6
 19 20  2  0
 19 46  1  0
 20 21  1  0
 20 23  1  0
 21 22  1  0
 22 47  1  0
 22 48  1  0
 22 49  1  0
 23 24  2  0
 25 26  1  0
 26 27  1  0
 26 50  1  0
 26 51  1  0
 27 28  1  0
 27 52  1  0
 27 53  1  0
M  END
>  <i_m_ct_stereo_status>  (292) 
1

>  <s_m_source_file>  (292) 
/var/tmp/pbs.5076255.sched01/tmpy8l6melh/117u1qm2xak.sdf

>  <i_m_source_file_index>  (292) 
13

>  <i_lp_mmshare_version>  (292) 
48012

>  <i_f3d_flags>  (292) 
0

>  <s_epik_input>  (292) 
TzFbQ0gyXVtDSDJdT0MxMltDSDJdW0NASF0zW0NAQF00KFtOSF0yKUM1PUMoW0NIMl1bQ0gzXSlDKD1PKUMoT1tDSDNdKT1bQ0hdW0NASF00W0NAQEhdKFtDSDJdNSljNmMzW2NIXVtjSF1bY0hdW2NIXTY=

>  <s_epik_cmdline>  (292) 
J2VwaWtfcHl0aG9uJywgJy1waHQnLCAnMi4wJywgJy1waCcsICc3LjAnLCAnLXRuJywgJzgnLCAnLW1hJywgJzIwMCcsICctaW1hZScsICc8aW5maWxlLm1hZT4nLCAnLW9tYWUnLCAnPG91dGZpbGUubWFlPic=

>  <r_lp_tautomer_probability>  (292) 
1

>  <r_epik_Ionization_Penalty>  (292) 
2.37191e-07

>  <r_epik_Ionization_Penalty_Charging>  (292) 
0

>  <r_epik_Ionization_Penalty_Neutral>  (292) 
2.37191e-07

>  <r_epik_State_Penalty>  (292) 
-0

>  <r_epik_Charging_Adjusted_Penalty>  (292) 
0

>  <i_epik_Tot_Q>  (292) 
0

>  <i_epik_Tot_abs_Q>  (292) 
0

>  <s_lp_Force_Field>  (292) 
OPLS3e

>  <r_lp_Energy>  (292) 
78.4224

>  <b_lp_Chiralities_Consistent>  (292) 
1

>  <s_lp_Variant>  (292) 
93:0-1

>  <s_i_glide_gridfile>  (292) 
pfpi4k_grid

>  <i_i_glide_lignum>  (292) 
13

>  <i_i_glide_rotatable_bonds>  (292) 
2

>  <r_i_docking_score>  (292) 
-1.90018

>  <r_i_glide_ligand_efficiency>  (292) 
-0.0678635

>  <r_i_glide_ligand_efficiency_sa>  (292) 
-0.206074

>  <r_i_glide_ligand_efficiency_ln>  (292) 
-0.438617

>  <r_i_glide_gscore>  (292) 
-1.90018

>  <r_i_glide_lipo>  (292) 
-0.00367253

>  <r_i_glide_hbond>  (292) 
0

>  <r_i_glide_metal>  (292) 
-0

>  <r_i_glide_rewards>  (292) 
-0.821939

>  <r_i_glide_evdw>  (292) 
-17.6181

>  <r_i_glide_ecoul>  (292) 
-1.27379

>  <r_i_glide_erotb>  (292) 
0

>  <r_i_glide_esite>  (292) 
-0.00259601

>  <r_i_glide_emodel>  (292) 
-21.1483

>  <r_i_glide_energy>  (292) 
-18.8918

>  <r_i_glide_einternal>  (292) 
0.00740117

>  <r_i_glide_intrahb_reward>  (292) 
-0

>  <i_i_glide_confnum>  (292) 
6

>  <i_i_glide_posenum>  (292) 
8

>  <r_i_glide_eff_state_penalty>  (292) 
0

>  <ligand_id>  (292) 
93

>  <original_smiles>  (292) 
CCC1=C2CC3c4ccccc4C4CC5(NC24C3C=C(OC)C1=O)OCCO5

>  <smiles>  (292) 
[H]C1=C(OC([H])([H])[H])C(=O)C(C([H])([H])C([H])([H])[H])=C2C([H])([H])C3([H])c4c([H])c([H])c([H])c([H])c4C4([H])C([H])([H])C5(OC([H])([H])C([H])([H])O5)N([H])C24C13[H]

$$$$
94:0:0
     RDKit          3D

 52 56  0  0  1  0  0  0  0  0999 V2000
    5.0075   -4.0768   -4.1362 C   0  0  0  0  0  0  0  0  0  0  0  0
    5.8223   -3.5602   -3.0969 O   0  0  0  0  0  0  0  0  0  0  0  0
    5.1685   -3.1505   -1.9653 C   0  0  0  0  0  0  0  0  0  0  0  0
    5.4686   -3.8023   -0.7525 C   0  0  0  0  0  0  0  0  0  0  0  0
    4.8431   -3.3974    0.4411 C   0  0  0  0  0  0  0  0  0  0  0  0
    5.1130   -4.0506    1.6010 N   0  0  0  0  0  0  0  0  0  0  0  0
    4.4826   -3.6760    2.7207 C   0  0  0  0  0  0  0  0  0  0  0  0
    3.5909   -2.6895    2.7572 N   0  0  0  0  0  0  0  0  0  0  0  0
    3.3116   -1.9900    1.6437 C   0  0  0  0  0  0  0  0  0  0  0  0
    2.3814   -0.9465    1.7172 N   0  0  0  0  0  0  0  0  0  0  0  0
    1.6656   -0.5797    2.9387 C   0  0  2  0  0  0  0  0  0  0  0  0
    0.4383    0.2852    2.5774 C   0  0  1  0  0  0  0  0  0  0  0  0
   -0.3757    0.6150    3.8480 C   0  0  0  0  0  0  0  0  0  0  0  0
    0.5079    1.4120    4.8261 C   0  0  1  0  0  0  0  0  0  0  0  0
    1.7375    0.5560    5.2002 C   0  0  0  0  0  0  0  0  0  0  0  0
    2.5508    0.2244    3.9299 C   0  0  2  0  0  0  0  0  0  0  0  0
    3.0127    1.5450    3.2697 C   0  0  0  0  0  0  0  0  0  0  0  0
    1.7779    2.3936    2.8839 C   0  0  2  0  0  0  0  0  0  0  0  0
    2.2147    3.5904    2.2781 O   0  0  0  0  0  0  0  0  0  0  0  0
    0.9677    2.7255    4.1552 C   0  0  0  0  0  0  0  0  0  0  0  0
    0.8922    1.5881    1.9029 C   0  0  0  0  0  0  0  0  0  0  0  0
    3.9362   -2.3166    0.4227 C   0  0  0  0  0  0  0  0  0  0  0  0
    3.6801   -1.6296   -0.7876 C   0  0  0  0  0  0  0  0  0  0  0  0
    4.3035   -2.0347   -1.9952 C   0  0  0  0  0  0  0  0  0  0  0  0
    4.1413   -1.4151   -3.2147 O   0  0  0  0  0  0  0  0  0  0  0  0
    3.4658   -0.1750   -3.2542 C   0  0  0  0  0  0  0  0  0  0  0  0
    2.2432   -0.3608    0.9057 H   0  0  0  0  0  0  0  0  0  0  0  0
    5.6228   -4.2547   -5.0120 H   0  0  0  0  0  0  0  0  0  0  0  0
    4.1901   -3.4215   -4.4423 H   0  0  0  0  0  0  0  0  0  0  0  0
    4.6097   -5.0420   -3.8334 H   0  0  0  0  0  0  0  0  0  0  0  0
    6.1748   -4.6195   -0.7552 H   0  0  0  0  0  0  0  0  0  0  0  0
    4.7103   -4.2091    3.6334 H   0  0  0  0  0  0  0  0  0  0  0  0
    1.3027   -1.4895    3.4249 H   0  0  0  0  0  0  0  0  0  0  0  0
   -0.1766   -0.2577    1.8647 H   0  0  0  0  0  0  0  0  0  0  0  0
   -1.2640    1.1906    3.5934 H   0  0  0  0  0  0  0  0  0  0  0  0
   -0.7246   -0.3041    4.3170 H   0  0  0  0  0  0  0  0  0  0  0  0
   -0.0646    1.6529    5.7211 H   0  0  0  0  0  0  0  0  0  0  0  0
    2.3655    1.0925    5.9088 H   0  0  0  0  0  0  0  0  0  0  0  0
    1.4247   -0.3616    5.6990 H   0  0  0  0  0  0  0  0  0  0  0  0
    3.4247   -0.3606    4.2205 H   0  0  0  0  0  0  0  0  0  0  0  0
    3.6657    2.0975    3.9455 H   0  0  0  0  0  0  0  0  0  0  0  0
    3.6038    1.3342    2.3792 H   0  0  0  0  0  0  0  0  0  0  0  0
    1.4872    3.9477    1.7652 H   0  0  0  0  0  0  0  0  0  0  0  0
    0.1064    3.3472    3.9037 H   0  0  0  0  0  0  0  0  0  0  0  0
    1.5817    3.3033    4.8472 H   0  0  0  0  0  0  0  0  0  0  0  0
    1.4390    1.3574    0.9902 H   0  0  0  0  0  0  0  0  0  0  0  0
    0.0006    2.1341    1.5985 H   0  0  0  0  0  0  0  0  0  0  0  0
    3.0004   -0.7975   -0.7818 H   0  0  0  0  0  0  0  0  0  0  0  0
    3.3890    0.1516   -4.2897 H   0  0  0  0  0  0  0  0  0  0  0  0
    4.0524    0.5718   -2.7238 H   0  0  0  0  0  0  0  0  0  0  0  0
    2.4537   -0.2339   -2.8472 H   0  0  0  0  0  0  0  0  0  0  0  0
    5.7728   -4.8309    1.6109 H   0  0  0  0  0  0  0  0  0  0  0  0
  1  2  1  0
  1 28  1  0
  1 29  1  0
  1 30  1  0
  2  3  1  0
  3 24  2  0
  3  4  1  0
  4 31  1  0
  4  5  2  0
  5 22  1  0
  5  6  1  0
  6  7  2  0
  6 52  1  0
  7 32  1  0
  7  8  1  0
  8  9  2  0
  9 10  1  0
  9 22  1  0
 10 11  1  0
 10 27  1  0
 11 16  1  0
 11 12  1  0
 11 33  1  1
 12 21  1  0
 12 13  1  0
 12 34  1  6
 13 14  1  0
 13 35  1  0
 13 36  1  0
 14 20  1  0
 14 15  1  0
 14 37  1  1
 15 16  1  0
 15 38  1  0
 15 39  1  0
 16 17  1  0
 16 40  1  1
 17 18  1  0
 17 41  1  0
 17 42  1  0
 18 19  1  6
 18 20  1  0
 18 21  1  0
 19 43  1  0
 20 44  1  0
 20 45  1  0
 21 46  1  0
 21 47  1  0
 22 23  2  0
 23 48  1  0
 23 24  1  0
 24 25  1  0
 25 26  1  0
 26 49  1  0
 26 50  1  0
 26 51  1  0
M  CHG  1   6   1
M  END
>  <i_m_ct_stereo_status>  (293) 
1

>  <s_m_source_file>  (293) 
/var/tmp/pbs.5076255.sched01/tmpy8l6melh/117u1qm2xak.sdf

>  <i_m_source_file_index>  (293) 
14

>  <i_lp_mmshare_version>  (293) 
48012

>  <i_f3d_flags>  (293) 
0

>  <s_epik_input>  (293) 
W0NIM11PYyhbY0hdMSljKE9bQ0gzXSlbY0hdYyhjMTIpYyhcbltjSF1bbkhdMik9TlxbQ0BIXShbQ0BIXShbQ0gyXTMpW0NIMl1bQ0BASF0oW0NIMl00KVtDSDJdNSlbQ0BIXTRbQ0gyXVtDQEBdMzVbT0hd

>  <s_epik_cmdline>  (293) 
J2VwaWtfcHl0aG9uJywgJy1waHQnLCAnMi4wJywgJy1waCcsICc3LjAnLCAnLXRuJywgJzgnLCAnLW1hJywgJzIwMCcsICctaW1hZScsICc8aW5maWxlLm1hZT4nLCAnLW9tYWUnLCAnPG91dGZpbGUubWFlPic=

>  <r_lp_tautomer_probability>  (293) 
1

>  <r_epik_Ionization_Penalty>  (293) 
7.19432e-05

>  <r_epik_Ionization_Penalty_Charging>  (293) 
6.3317e-05

>  <r_epik_Ionization_Penalty_Neutral>  (293) 
8.62624e-06

>  <r_epik_State_Penalty>  (293) 
-0

>  <r_epik_Charging_Adjusted_Penalty>  (293) 
6.3317e-05

>  <i_epik_Tot_Q>  (293) 
1

>  <i_epik_Tot_abs_Q>  (293) 
1

>  <s_lp_Force_Field>  (293) 
OPLS3e

>  <r_lp_Energy>  (293) 
26.7375

>  <b_lp_Chiralities_Consistent>  (293) 
1

>  <s_lp_Variant>  (293) 
94:0-1

>  <s_i_glide_gridfile>  (293) 
pfpi4k_grid

>  <i_i_glide_lignum>  (293) 
14

>  <i_i_glide_rotatable_bonds>  (293) 
5

>  <r_i_docking_score>  (293) 
-3.3028

>  <r_i_glide_ligand_efficiency>  (293) 
-0.127031

>  <r_i_glide_ligand_efficiency_sa>  (293) 
-0.376328

>  <r_i_glide_ligand_efficiency_ln>  (293) 
-0.775652

>  <r_i_glide_gscore>  (293) 
-3.3028

>  <r_i_glide_lipo>  (293) 
-0.290152

>  <r_i_glide_hbond>  (293) 
-0.172782

>  <r_i_glide_metal>  (293) 
-0

>  <r_i_glide_rewards>  (293) 
-1.00009

>  <r_i_glide_evdw>  (293) 
-24.5575

>  <r_i_glide_ecoul>  (293) 
-5.67465

>  <r_i_glide_erotb>  (293) 
0.301182

>  <r_i_glide_esite>  (293) 
-0.0618889

>  <r_i_glide_emodel>  (293) 
-33.4558

>  <r_i_glide_energy>  (293) 
-30.2322

>  <r_i_glide_einternal>  (293) 
7.37724

>  <r_i_glide_intrahb_reward>  (293) 
-0

>  <i_i_glide_confnum>  (293) 
1

>  <i_i_glide_posenum>  (293) 
4

>  <r_i_glide_eff_state_penalty>  (293) 
0

>  <ligand_id>  (293) 
94

>  <original_smiles>  (293) 
COc1cc2[nH]cnc(=NC3C4CC5CC3CC(O)(C5)C4)c2cc1OC

>  <smiles>  (293) 
[H]OC12C([H])([H])C3([H])C([H])([H])C([H])(C1([H])[H])C([H])(N([H])c1nc([H])[n+]([H])c4c([H])c(OC([H])([H])[H])c(OC([H])([H])[H])c([H])c14)C([H])(C3([H])[H])C2([H])[H]

$$$$
94:0:1
     RDKit          3D

 52 56  0  0  1  0  0  0  0  0999 V2000
    3.9185    0.2643   -3.8969 C   0  0  0  0  0  0  0  0  0  0  0  0
    4.5551   -0.9960   -3.7844 O   0  0  0  0  0  0  0  0  0  0  0  0
    4.4438   -1.6745   -2.5915 C   0  0  0  0  0  0  0  0  0  0  0  0
    4.2585   -1.0639   -1.3379 C   0  0  0  0  0  0  0  0  0  0  0  0
    4.0909   -1.8448   -0.1848 C   0  0  0  0  0  0  0  0  0  0  0  0
    3.8240   -1.2582    1.0058 N   0  0  0  0  0  0  0  0  0  0  0  0
    3.7027   -2.0097    2.1031 C   0  0  0  0  0  0  0  0  0  0  0  0
    3.8378   -3.3398    2.0852 N   0  0  0  0  0  0  0  0  0  0  0  0
    4.0968   -3.9833    0.9262 C   0  0  0  0  0  0  0  0  0  0  0  0
    4.2186   -5.3763    0.9359 N   0  0  0  0  0  0  0  0  0  0  0  0
    3.8315   -6.2292    2.0551 C   0  0  2  0  0  0  0  0  0  0  0  0
    5.0324   -6.5862    2.9715 C   0  0  1  0  0  0  0  0  0  0  0  0
    4.5281   -7.4641    4.1479 C   0  0  0  0  0  0  0  0  0  0  0  0
    3.9165   -8.7708    3.6031 C   0  0  1  0  0  0  0  0  0  0  0  0
    2.7270   -8.4221    2.6849 C   0  0  0  0  0  0  0  0  0  0  0  0
    3.2236   -7.5430    1.5124 C   0  0  2  0  0  0  0  0  0  0  0  0
    4.2802   -8.3429    0.7058 C   0  0  0  0  0  0  0  0  0  0  0  0
    5.4736   -8.6806    1.6316 C   0  0  2  0  0  0  0  0  0  0  0  0
    6.4358   -9.4240    0.9141 O   0  0  0  0  0  0  0  0  0  0  0  0
    4.9811   -9.5485    2.8073 C   0  0  0  0  0  0  0  0  0  0  0  0
    6.1020   -7.3748    2.1750 C   0  0  0  0  0  0  0  0  0  0  0  0
    4.2320   -3.2556   -0.2770 C   0  0  0  0  0  0  0  0  0  0  0  0
    4.5071   -3.8633   -1.5222 C   0  0  0  0  0  0  0  0  0  0  0  0
    4.6074   -3.0565   -2.6758 C   0  0  0  0  0  0  0  0  0  0  0  0
    4.9560   -3.5173   -3.9133 O   0  0  0  0  0  0  0  0  0  0  0  0
    4.3914   -4.7316   -4.3366 C   0  0  0  0  0  0  0  0  0  0  0  0
    4.5192   -5.8364    0.0902 H   0  0  0  0  0  0  0  0  0  0  0  0
    4.1558    0.6661   -4.8729 H   0  0  0  0  0  0  0  0  0  0  0  0
    4.2671    0.9934   -3.1668 H   0  0  0  0  0  0  0  0  0  0  0  0
    2.8393    0.1489   -3.8228 H   0  0  0  0  0  0  0  0  0  0  0  0
    4.2831    0.0035   -1.2561 H   0  0  0  0  0  0  0  0  0  0  0  0
    3.4895   -1.5238    3.0282 H   0  0  0  0  0  0  0  0  0  0  0  0
    3.0681   -5.7374    2.6660 H   0  0  0  0  0  0  0  0  0  0  0  0
    5.4764   -5.6803    3.3881 H   0  0  0  0  0  0  0  0  0  0  0  0
    5.3452   -7.6997    4.8301 H   0  0  0  0  0  0  0  0  0  0  0  0
    3.7824   -6.9232    4.7299 H   0  0  0  0  0  0  0  0  0  0  0  0
    3.5765   -9.3884    4.4310 H   0  0  0  0  0  0  0  0  0  0  0  0
    2.2726   -9.3345    2.2961 H   0  0  0  0  0  0  0  0  0  0  0  0
    1.9469   -7.9071    3.2482 H   0  0  0  0  0  0  0  0  0  0  0  0
    2.3693   -7.3045    0.8829 H   0  0  0  0  0  0  0  0  0  0  0  0
    3.8316   -9.2558    0.3086 H   0  0  0  0  0  0  0  0  0  0  0  0
    4.6145   -7.7808   -0.1644 H   0  0  0  0  0  0  0  0  0  0  0  0
    6.0450  -10.2668    0.7157 H   0  0  0  0  0  0  0  0  0  0  0  0
    5.8161   -9.8153    3.4561 H   0  0  0  0  0  0  0  0  0  0  0  0
    4.5609  -10.4829    2.4364 H   0  0  0  0  0  0  0  0  0  0  0  0
    6.4851   -6.7759    1.3508 H   0  0  0  0  0  0  0  0  0  0  0  0
    6.9592   -7.5930    2.8157 H   0  0  0  0  0  0  0  0  0  0  0  0
    4.6441   -4.9282   -1.5924 H   0  0  0  0  0  0  0  0  0  0  0  0
    4.6966   -4.9691   -5.3510 H   0  0  0  0  0  0  0  0  0  0  0  0
    3.3075   -4.6860   -4.3169 H   0  0  0  0  0  0  0  0  0  0  0  0
    4.7238   -5.5517   -3.7272 H   0  0  0  0  0  0  0  0  0  0  0  0
    3.6816   -0.2471    1.0421 H   0  0  0  0  0  0  0  0  0  0  0  0
  1  2  1  0
  1 28  1  0
  1 29  1  0
  1 30  1  0
  2  3  1  0
  3 24  2  0
  3  4  1  0
  4 31  1  0
  4  5  2  0
  5 22  1  0
  5  6  1  0
  6  7  2  0
  6 52  1  0
  7 32  1  0
  7  8  1  0
  8  9  2  0
  9 10  1  0
  9 22  1  0
 10 11  1  0
 10 27  1  0
 11 16  1  0
 11 12  1  0
 11 33  1  1
 12 21  1  0
 12 13  1  0
 12 34  1  1
 13 14  1  0
 13 35  1  0
 13 36  1  0
 14 20  1  0
 14 15  1  0
 14 37  1  1
 15 16  1  0
 15 38  1  0
 15 39  1  0
 16 17  1  0
 16 40  1  6
 17 18  1  0
 17 41  1  0
 17 42  1  0
 18 19  1  6
 18 20  1  0
 18 21  1  0
 19 43  1  0
 20 44  1  0
 20 45  1  0
 21 46  1  0
 21 47  1  0
 22 23  2  0
 23 48  1  0
 23 24  1  0
 24 25  1  0
 25 26  1  0
 26 49  1  0
 26 50  1  0
 26 51  1  0
M  CHG  1   6   1
M  END
>  <i_m_ct_stereo_status>  (294) 
1

>  <s_m_source_file>  (294) 
/var/tmp/pbs.5076255.sched01/tmpy8l6melh/117u1qm2xak.sdf

>  <i_m_source_file_index>  (294) 
14

>  <i_lp_mmshare_version>  (294) 
48012

>  <i_f3d_flags>  (294) 
0

>  <s_epik_input>  (294) 
W0NIM11PYyhbY0hdMSljKE9bQ0gzXSlbY0hdYyhjMTIpYyhcbltjSF1bbkhdMik9TlxbQ0BIXShbQ0BIXShbQ0gyXTMpW0NIMl1bQ0BASF0oW0NIMl00KVtDSDJdNSlbQ0BIXTRbQ0gyXVtDQEBdMzVbT0hd

>  <s_epik_cmdline>  (294) 
J2VwaWtfcHl0aG9uJywgJy1waHQnLCAnMi4wJywgJy1waCcsICc3LjAnLCAnLXRuJywgJzgnLCAnLW1hJywgJzIwMCcsICctaW1hZScsICc8aW5maWxlLm1hZT4nLCAnLW9tYWUnLCAnPG91dGZpbGUubWFlPic=

>  <r_lp_tautomer_probability>  (294) 
1

>  <r_epik_Ionization_Penalty>  (294) 
7.19432e-05

>  <r_epik_Ionization_Penalty_Charging>  (294) 
6.3317e-05

>  <r_epik_Ionization_Penalty_Neutral>  (294) 
8.62624e-06

>  <r_epik_State_Penalty>  (294) 
-0

>  <r_epik_Charging_Adjusted_Penalty>  (294) 
6.3317e-05

>  <i_epik_Tot_Q>  (294) 
1

>  <i_epik_Tot_abs_Q>  (294) 
1

>  <s_lp_Force_Field>  (294) 
OPLS3e

>  <r_lp_Energy>  (294) 
26.7375

>  <b_lp_Chiralities_Consistent>  (294) 
1

>  <s_lp_Variant>  (294) 
94:0-1

>  <s_i_glide_gridfile>  (294) 
pfpi4k_grid

>  <i_i_glide_lignum>  (294) 
14

>  <i_i_glide_rotatable_bonds>  (294) 
5

>  <r_i_docking_score>  (294) 
-3.05072

>  <r_i_glide_ligand_efficiency>  (294) 
-0.117336

>  <r_i_glide_ligand_efficiency_sa>  (294) 
-0.347606

>  <r_i_glide_ligand_efficiency_ln>  (294) 
-0.716453

>  <r_i_glide_gscore>  (294) 
-3.05072

>  <r_i_glide_lipo>  (294) 
-0.280018

>  <r_i_glide_hbond>  (294) 
0

>  <r_i_glide_metal>  (294) 
-0

>  <r_i_glide_rewards>  (294) 
-0.978827

>  <r_i_glide_evdw>  (294) 
-23.1112

>  <r_i_glide_ecoul>  (294) 
-6.07277

>  <r_i_glide_erotb>  (294) 
0.301182

>  <r_i_glide_esite>  (294) 
-0.0265878

>  <r_i_glide_emodel>  (294) 
-33.0052

>  <r_i_glide_energy>  (294) 
-29.1839

>  <r_i_glide_einternal>  (294) 
4.6924

>  <r_i_glide_intrahb_reward>  (294) 
-0

>  <i_i_glide_confnum>  (294) 
2

>  <i_i_glide_posenum>  (294) 
1

>  <r_i_glide_eff_state_penalty>  (294) 
0

>  <ligand_id>  (294) 
94

>  <original_smiles>  (294) 
COc1cc2[nH]cnc(=NC3C4CC5CC3CC(O)(C5)C4)c2cc1OC

>  <smiles>  (294) 
[H]OC12C([H])([H])C3([H])C([H])([H])C([H])(C1([H])[H])C([H])(N([H])c1nc([H])[n+]([H])c4c([H])c(OC([H])([H])[H])c(OC([H])([H])[H])c([H])c14)C([H])(C3([H])[H])C2([H])[H]

$$$$
94:0:2
     RDKit          3D

 52 56  0  0  1  0  0  0  0  0999 V2000
    4.6317   -4.6013   -4.3409 C   0  0  0  0  0  0  0  0  0  0  0  0
    5.4234   -3.6747   -3.6115 O   0  0  0  0  0  0  0  0  0  0  0  0
    4.8761   -3.2814   -2.4310 C   0  0  0  0  0  0  0  0  0  0  0  0
    4.9019   -4.1723   -1.3390 C   0  0  0  0  0  0  0  0  0  0  0  0
    4.4603   -3.7458   -0.0847 C   0  0  0  0  0  0  0  0  0  0  0  0
    4.5160   -4.5837    0.9777 N   0  0  0  0  0  0  0  0  0  0  0  0
    4.1140   -4.1409    2.1774 C   0  0  0  0  0  0  0  0  0  0  0  0
    3.6763   -2.8968    2.4002 N   0  0  0  0  0  0  0  0  0  0  0  0
    3.5864   -2.0167    1.3712 C   0  0  0  0  0  0  0  0  0  0  0  0
    3.0771   -0.7363    1.6149 N   0  0  0  0  0  0  0  0  0  0  0  0
    3.0679   -0.0956    2.9328 C   0  0  2  0  0  0  0  0  0  0  0  0
    2.0783   -0.7366    3.9619 C   0  0  1  0  0  0  0  0  0  0  0  0
    2.2132   -0.0074    5.3174 C   0  0  0  0  0  0  0  0  0  0  0  0
    1.8340    1.4720    5.1588 C   0  0  1  0  0  0  0  0  0  0  0  0
    2.8007    2.1233    4.1456 C   0  0  0  0  0  0  0  0  0  0  0  0
    2.6866    1.3995    2.7797 C   0  0  2  0  0  0  0  0  0  0  0  0
    1.2334    1.5355    2.2649 C   0  0  0  0  0  0  0  0  0  0  0  0
    0.2769    0.8680    3.2719 C   0  0  2  0  0  0  0  0  0  0  0  0
   -1.0372    0.9715    2.7721 O   0  0  0  0  0  0  0  0  0  0  0  0
    0.3829    1.5749    4.6420 C   0  0  0  0  0  0  0  0  0  0  0  0
    0.6379   -0.6223    3.4326 C   0  0  0  0  0  0  0  0  0  0  0  0
    3.9819   -2.4204    0.0750 C   0  0  0  0  0  0  0  0  0  0  0  0
    3.9279   -1.5413   -1.0319 C   0  0  0  0  0  0  0  0  0  0  0  0
    4.3768   -1.9726   -2.2991 C   0  0  0  0  0  0  0  0  0  0  0  0
    4.4034   -1.1828   -3.4326 O   0  0  0  0  0  0  0  0  0  0  0  0
    3.7713    0.0901   -3.3864 C   0  0  0  0  0  0  0  0  0  0  0  0
    2.7383   -0.2019    0.8244 H   0  0  0  0  0  0  0  0  0  0  0  0
    5.0590   -4.7104   -5.3209 H   0  0  0  0  0  0  0  0  0  0  0  0
    3.6071   -4.2453   -4.4136 H   0  0  0  0  0  0  0  0  0  0  0  0
    4.6331   -5.5962   -3.8961 H   0  0  0  0  0  0  0  0  0  0  0  0
    5.2921   -5.1643   -1.4853 H   0  0  0  0  0  0  0  0  0  0  0  0
    4.1275   -4.8272    3.0031 H   0  0  0  0  0  0  0  0  0  0  0  0
    4.0803   -0.1610    3.3351 H   0  0  0  0  0  0  0  0  0  0  0  0
    2.2842   -1.7813    4.1937 H   0  0  0  0  0  0  0  0  0  0  0  0
    1.5728   -0.4832    6.0567 H   0  0  0  0  0  0  0  0  0  0  0  0
    3.2343   -0.0985    5.6787 H   0  0  0  0  0  0  0  0  0  0  0  0
    1.9117    1.9663    6.1283 H   0  0  0  0  0  0  0  0  0  0  0  0
    2.5573    3.1774    4.0275 H   0  0  0  0  0  0  0  0  0  0  0  0
    3.8274    2.0871    4.5102 H   0  0  0  0  0  0  0  0  0  0  0  0
    3.3634    1.8762    2.0739 H   0  0  0  0  0  0  0  0  0  0  0  0
    0.9818    2.5900    2.1380 H   0  0  0  0  0  0  0  0  0  0  0  0
    1.1151    1.0947    1.2741 H   0  0  0  0  0  0  0  0  0  0  0  0
   -1.6342    0.5781    3.3943 H   0  0  0  0  0  0  0  0  0  0  0  0
   -0.2974    1.1174    5.3625 H   0  0  0  0  0  0  0  0  0  0  0  0
    0.0967    2.6209    4.5507 H   0  0  0  0  0  0  0  0  0  0  0  0
    0.5598   -1.1266    2.4731 H   0  0  0  0  0  0  0  0  0  0  0  0
   -0.0462   -1.1314    4.1155 H   0  0  0  0  0  0  0  0  0  0  0  0
    3.5851   -0.5414   -0.8670 H   0  0  0  0  0  0  0  0  0  0  0  0
    3.8739    0.5758   -4.3489 H   0  0  0  0  0  0  0  0  0  0  0  0
    4.2485    0.7429   -2.6591 H   0  0  0  0  0  0  0  0  0  0  0  0
    2.7129   -0.0067   -3.1445 H   0  0  0  0  0  0  0  0  0  0  0  0
    4.8660   -5.5372    0.8581 H   0  0  0  0  0  0  0  0  0  0  0  0
  1  2  1  0
  1 28  1  0
  1 29  1  0
  1 30  1  0
  2  3  1  0
  3 24  2  0
  3  4  1  0
  4 31  1  0
  4  5  2  0
  5 22  1  0
  5  6  1  0
  6  7  2  0
  6 52  1  0
  7 32  1  0
  7  8  1  0
  8  9  2  0
  9 10  1  0
  9 22  1  0
 10 11  1  0
 10 27  1  0
 11 16  1  0
 11 12  1  0
 11 33  1  1
 12 21  1  0
 12 13  1  0
 12 34  1  1
 13 14  1  0
 13 35  1  0
 13 36  1  0
 14 20  1  0
 14 15  1  0
 14 37  1  1
 15 16  1  0
 15 38  1  0
 15 39  1  0
 16 17  1  0
 16 40  1  6
 17 18  1  0
 17 41  1  0
 17 42  1  0
 18 19  1  6
 18 20  1  0
 18 21  1  0
 19 43  1  0
 20 44  1  0
 20 45  1  0
 21 46  1  0
 21 47  1  0
 22 23  2  0
 23 48  1  0
 23 24  1  0
 24 25  1  0
 25 26  1  0
 26 49  1  0
 26 50  1  0
 26 51  1  0
M  CHG  1   6   1
M  END
>  <i_m_ct_stereo_status>  (295) 
1

>  <s_m_source_file>  (295) 
/var/tmp/pbs.5076255.sched01/tmpy8l6melh/117u1qm2xak.sdf

>  <i_m_source_file_index>  (295) 
14

>  <i_lp_mmshare_version>  (295) 
48012

>  <i_f3d_flags>  (295) 
0

>  <s_epik_input>  (295) 
W0NIM11PYyhbY0hdMSljKE9bQ0gzXSlbY0hdYyhjMTIpYyhcbltjSF1bbkhdMik9TlxbQ0BIXShbQ0BIXShbQ0gyXTMpW0NIMl1bQ0BASF0oW0NIMl00KVtDSDJdNSlbQ0BIXTRbQ0gyXVtDQEBdMzVbT0hd

>  <s_epik_cmdline>  (295) 
J2VwaWtfcHl0aG9uJywgJy1waHQnLCAnMi4wJywgJy1waCcsICc3LjAnLCAnLXRuJywgJzgnLCAnLW1hJywgJzIwMCcsICctaW1hZScsICc8aW5maWxlLm1hZT4nLCAnLW9tYWUnLCAnPG91dGZpbGUubWFlPic=

>  <r_lp_tautomer_probability>  (295) 
1

>  <r_epik_Ionization_Penalty>  (295) 
7.19432e-05

>  <r_epik_Ionization_Penalty_Charging>  (295) 
6.3317e-05

>  <r_epik_Ionization_Penalty_Neutral>  (295) 
8.62624e-06

>  <r_epik_State_Penalty>  (295) 
-0

>  <r_epik_Charging_Adjusted_Penalty>  (295) 
6.3317e-05

>  <i_epik_Tot_Q>  (295) 
1

>  <i_epik_Tot_abs_Q>  (295) 
1

>  <s_lp_Force_Field>  (295) 
OPLS3e

>  <r_lp_Energy>  (295) 
26.7375

>  <b_lp_Chiralities_Consistent>  (295) 
1

>  <s_lp_Variant>  (295) 
94:0-1

>  <s_i_glide_gridfile>  (295) 
pfpi4k_grid

>  <i_i_glide_lignum>  (295) 
14

>  <i_i_glide_rotatable_bonds>  (295) 
5

>  <r_i_docking_score>  (295) 
-2.63077

>  <r_i_glide_ligand_efficiency>  (295) 
-0.101183

>  <r_i_glide_ligand_efficiency_sa>  (295) 
-0.299755

>  <r_i_glide_ligand_efficiency_ln>  (295) 
-0.617827

>  <r_i_glide_gscore>  (295) 
-2.63077

>  <r_i_glide_lipo>  (295) 
-0.174003

>  <r_i_glide_hbond>  (295) 
0

>  <r_i_glide_metal>  (295) 
-0

>  <r_i_glide_rewards>  (295) 
-0.983635

>  <r_i_glide_evdw>  (295) 
-24.3964

>  <r_i_glide_ecoul>  (295) 
-3.48445

>  <r_i_glide_erotb>  (295) 
0.301182

>  <r_i_glide_esite>  (295) 
-0.031825

>  <r_i_glide_emodel>  (295) 
-29.6372

>  <r_i_glide_energy>  (295) 
-27.8808

>  <r_i_glide_einternal>  (295) 
6.98831

>  <r_i_glide_intrahb_reward>  (295) 
-0

>  <i_i_glide_confnum>  (295) 
2

>  <i_i_glide_posenum>  (295) 
2

>  <r_i_glide_eff_state_penalty>  (295) 
0

>  <ligand_id>  (295) 
94

>  <original_smiles>  (295) 
COc1cc2[nH]cnc(=NC3C4CC5CC3CC(O)(C5)C4)c2cc1OC

>  <smiles>  (295) 
[H]OC12C([H])([H])C3([H])C([H])([H])C([H])(C1([H])[H])C([H])(N([H])c1nc([H])[n+]([H])c4c([H])c(OC([H])([H])[H])c(OC([H])([H])[H])c([H])c14)C([H])(C3([H])[H])C2([H])[H]

$$$$
95:0:0
     RDKit          3D

 41 44  0  0  1  0  0  0  0  0999 V2000
    3.2901   -3.6870   -2.4144 O   0  0  0  0  0  0  0  0  0  0  0  0
    4.0851   -2.6401   -1.9286 C   0  0  1  0  0  0  0  0  0  0  0  0
    4.1390   -1.7528   -3.1863 C   0  0  2  0  0  0  0  0  0  0  0  0
    4.5191   -0.3491   -2.9102 C   0  0  0  0  0  0  0  0  0  0  0  0
    3.9394    0.5347   -3.9341 C   0  0  0  0  0  0  0  0  0  0  0  0
    2.6661   -0.1084   -4.2049 N   0  0  0  0  0  0  0  0  0  0  0  0
    2.7637   -1.5225   -3.8004 C   0  0  0  0  0  0  0  0  0  0  0  0
    3.3516   -1.9778   -0.7413 C   0  0  0  0  0  0  0  0  0  0  0  0
    4.2906   -1.3791    0.3323 C   0  0  1  0  0  0  0  0  0  0  0  0
    4.6430   -2.4082    1.4174 C   0  0  0  0  0  0  0  0  0  0  0  0
    5.6940   -3.4566    0.9443 C   0  0  2  0  0  0  0  0  0  0  0  0
    6.9570   -2.7786    0.4113 C   0  0  0  0  0  0  0  0  0  0  0  0
    6.3942   -2.1451   -0.8429 C   0  0  2  0  0  0  0  0  0  0  0  0
    5.6485   -0.9262   -0.2409 C   0  0  0  0  0  0  0  0  0  0  0  0
    5.4373   -3.2155   -1.4476 C   0  0  2  0  0  0  0  0  0  0  0  0
    6.0913   -3.7996   -2.5143 O   0  0  0  0  0  0  0  0  0  0  0  0
    5.2324   -4.2217   -0.2993 C   0  0  0  0  0  0  0  0  0  0  0  0
    3.4289   -4.5116   -1.9609 H   0  0  0  0  0  0  0  0  0  0  0  0
    4.8329   -2.1647   -3.9235 H   0  0  0  0  0  0  0  0  0  0  0  0
    4.0330    0.0369   -2.0388 H   0  0  0  0  0  0  0  0  0  0  0  0
    5.5738   -0.2524   -2.7409 H   0  0  0  0  0  0  0  0  0  0  0  0
    3.8583    1.5540   -3.5434 H   0  0  0  0  0  0  0  0  0  0  0  0
    4.6117    0.5211   -4.7834 H   0  0  0  0  0  0  0  0  0  0  0  0
    1.9665    0.3392   -3.6173 H   0  0  0  0  0  0  0  0  0  0  0  0
    2.5860   -2.2010   -4.6222 H   0  0  0  0  0  0  0  0  0  0  0  0
    1.9953   -1.7216   -3.0585 H   0  0  0  0  0  0  0  0  0  0  0  0
    2.6901   -1.2098   -1.1184 H   0  0  0  0  0  0  0  0  0  0  0  0
    2.6219   -2.6459   -0.2960 H   0  0  0  0  0  0  0  0  0  0  0  0
    3.7839   -0.5110    0.7576 H   0  0  0  0  0  0  0  0  0  0  0  0
    5.0574   -1.8496    2.2509 H   0  0  0  0  0  0  0  0  0  0  0  0
    3.7356   -2.8871    1.7648 H   0  0  0  0  0  0  0  0  0  0  0  0
    5.9358   -4.1274    1.7628 H   0  0  0  0  0  0  0  0  0  0  0  0
    7.3775   -2.0375    1.0940 H   0  0  0  0  0  0  0  0  0  0  0  0
    7.7314   -3.4884    0.1427 H   0  0  0  0  0  0  0  0  0  0  0  0
    7.1589   -1.8490   -1.5598 H   0  0  0  0  0  0  0  0  0  0  0  0
    5.6093   -0.1027   -0.8586 H   0  0  0  0  0  0  0  0  0  0  0  0
    6.2350   -0.2830    0.4173 H   0  0  0  0  0  0  0  0  0  0  0  0
    5.5792   -4.6041   -2.7629 H   0  0  0  0  0  0  0  0  0  0  0  0
    5.8658   -5.0963   -0.4412 H   0  0  0  0  0  0  0  0  0  0  0  0
    4.2112   -4.5877   -0.2024 H   0  0  0  0  0  0  0  0  0  0  0  0
    2.4680   -0.0211   -5.1827 H   0  0  0  0  0  0  0  0  0  0  0  0
  2  1  1  6
  1 18  1  0
  2 15  1  0
  2  3  1  0
  2  8  1  0
  3  7  1  0
  3  4  1  0
  3 19  1  6
  4  5  1  0
  4 20  1  0
  4 21  1  0
  5  6  1  0
  5 22  1  0
  5 23  1  0
  6  7  1  0
  6 24  1  0
  6 41  1  0
  7 25  1  0
  7 26  1  0
  8  9  1  0
  8 27  1  0
  8 28  1  0
  9 14  1  0
  9 10  1  0
  9 29  1  1
 10 11  1  0
 10 30  1  0
 10 31  1  0
 11 17  1  0
 11 12  1  0
 11 32  1  1
 12 13  1  0
 12 33  1  0
 12 34  1  0
 13 14  1  0
 13 15  1  0
 13 35  1  6
 14 36  1  0
 14 37  1  0
 15 16  1  6
 15 17  1  0
 16 38  1  0
 17 39  1  0
 17 40  1  0
M  CHG  1   6   1
M  END
>  <i_m_ct_stereo_status>  (296) 
1

>  <s_m_source_file>  (296) 
/var/tmp/pbs.5076255.sched01/tmpy8l6melh/117u1qm2xak.sdf

>  <i_m_source_file_index>  (296) 
15

>  <i_lp_mmshare_version>  (296) 
48012

>  <i_f3d_flags>  (296) 
0

>  <s_epik_input>  (296) 
W0NIMl0xW05IXVtDSDJdW0NIMl1bQ0BIXTFbQ0BdMihbT0hdKVtDSDJdW0NASF0oW0NIMl0zKVtDSDJdW0NAQEhdKFtDSDJdNClbQ0gyXVtDQEhdM1tDQF0yNFtPSF0=

>  <s_epik_cmdline>  (296) 
J2VwaWtfcHl0aG9uJywgJy1waHQnLCAnMi4wJywgJy1waCcsICc3LjAnLCAnLXRuJywgJzgnLCAnLW1hJywgJzIwMCcsICctaW1hZScsICc8aW5maWxlLm1hZT4nLCAnLW9tYWUnLCAnPG91dGZpbGUubWFlPic=

>  <r_lp_tautomer_probability>  (296) 
1

>  <r_epik_Ionization_Penalty>  (296) 
5.95241e-05

>  <r_epik_Ionization_Penalty_Charging>  (296) 
5.88965e-05

>  <r_epik_Ionization_Penalty_Neutral>  (296) 
6.2769e-07

>  <r_epik_State_Penalty>  (296) 
-0

>  <r_epik_Charging_Adjusted_Penalty>  (296) 
5.88965e-05

>  <i_epik_Tot_Q>  (296) 
1

>  <i_epik_Tot_abs_Q>  (296) 
1

>  <s_lp_Force_Field>  (296) 
OPLS3e

>  <r_lp_Energy>  (296) 
57.8926

>  <b_lp_Chiralities_Consistent>  (296) 
1

>  <s_lp_Variant>  (296) 
95:0-1

>  <s_i_glide_gridfile>  (296) 
pfpi4k_grid

>  <i_i_glide_lignum>  (296) 
15

>  <i_i_glide_rotatable_bonds>  (296) 
3

>  <r_i_docking_score>  (296) 
-2.53282

>  <r_i_glide_ligand_efficiency>  (296) 
-0.148989

>  <r_i_glide_ligand_efficiency_sa>  (296) 
-0.383093

>  <r_i_glide_ligand_efficiency_ln>  (296) 
-0.660756

>  <r_i_glide_gscore>  (296) 
-2.53282

>  <r_i_glide_lipo>  (296) 
-0.669593

>  <r_i_glide_hbond>  (296) 
0

>  <r_i_glide_metal>  (296) 
-0

>  <r_i_glide_rewards>  (296) 
-1.78401

>  <r_i_glide_evdw>  (296) 
3.37238

>  <r_i_glide_ecoul>  (296) 
-5.9504

>  <r_i_glide_erotb>  (296) 
0.303807

>  <r_i_glide_esite>  (296) 
0

>  <r_i_glide_emodel>  (296) 
2.82681

>  <r_i_glide_energy>  (296) 
-2.57802

>  <r_i_glide_einternal>  (296) 
5.61305

>  <r_i_glide_intrahb_reward>  (296) 
-0

>  <i_i_glide_confnum>  (296) 
4

>  <i_i_glide_posenum>  (296) 
4

>  <r_i_glide_eff_state_penalty>  (296) 
0

>  <ligand_id>  (296) 
95

>  <original_smiles>  (296) 
OC1(C2CCNC2)CC2CC3CC(C2)C1(O)C3

>  <smiles>  (296) 
[H]OC12C([H])([H])C3([H])C([H])([H])C([H])(C([H])([H])C1([H])C3([H])[H])C([H])([H])C2(O[H])C1([H])C([H])([H])C([H])([H])[N+]([H])([H])C1([H])[H]

$$$$
95:0:1
     RDKit          3D

 41 44  0  0  1  0  0  0  0  0999 V2000
    2.8123   -3.5092   -1.2914 O   0  0  0  0  0  0  0  0  0  0  0  0
    3.8637   -2.5609   -1.2016 C   0  0  1  0  0  0  0  0  0  0  0  0
    3.9847   -2.0353   -2.6465 C   0  0  2  0  0  0  0  0  0  0  0  0
    4.6188   -0.6893   -2.7597 C   0  0  0  0  0  0  0  0  0  0  0  0
    4.1009    0.0116   -3.9413 C   0  0  0  0  0  0  0  0  0  0  0  0
    2.7281   -0.4285   -3.9777 N   0  0  0  0  0  0  0  0  0  0  0  0
    2.5952   -1.7017   -3.2381 C   0  0  0  0  0  0  0  0  0  0  0  0
    3.4472   -1.4655   -0.2001 C   0  0  0  0  0  0  0  0  0  0  0  0
    4.5799   -0.8362    0.6153 C   0  0  1  0  0  0  0  0  0  0  0  0
    4.8653   -1.6157    1.9140 C   0  0  0  0  0  0  0  0  0  0  0  0
    5.6344   -2.9484    1.6740 C   0  0  2  0  0  0  0  0  0  0  0  0
    6.9224   -2.7044    0.8808 C   0  0  0  0  0  0  0  0  0  0  0  0
    6.3525   -2.2813   -0.4519 C   0  0  2  0  0  0  0  0  0  0  0  0
    5.9069   -0.8419   -0.1471 C   0  0  0  0  0  0  0  0  0  0  0  0
    5.1403   -3.2434   -0.6629 C   0  0  2  0  0  0  0  0  0  0  0  0
    5.5390   -4.2506   -1.5684 O   0  0  0  0  0  0  0  0  0  0  0  0
    4.8982   -3.8820    0.7159 C   0  0  0  0  0  0  0  0  0  0  0  0
    2.0491   -3.0327   -1.5901 H   0  0  0  0  0  0  0  0  0  0  0  0
    4.5086   -2.7432   -3.2843 H   0  0  0  0  0  0  0  0  0  0  0  0
    4.2913   -0.0170   -1.9841 H   0  0  0  0  0  0  0  0  0  0  0  0
    5.6878   -0.8026   -2.7297 H   0  0  0  0  0  0  0  0  0  0  0  0
    4.2106    1.0959   -3.8349 H   0  0  0  0  0  0  0  0  0  0  0  0
    4.6557   -0.3527   -4.7891 H   0  0  0  0  0  0  0  0  0  0  0  0
    2.1548    0.2646   -3.5021 H   0  0  0  0  0  0  0  0  0  0  0  0
    2.2297   -2.5027   -3.8367 H   0  0  0  0  0  0  0  0  0  0  0  0
    1.9195   -1.5429   -2.4431 H   0  0  0  0  0  0  0  0  0  0  0  0
    2.8849   -0.6774   -0.7218 H   0  0  0  0  0  0  0  0  0  0  0  0
    2.6458   -1.8344    0.4657 H   0  0  0  0  0  0  0  0  0  0  0  0
    4.3085    0.1956    0.8409 H   0  0  0  0  0  0  0  0  0  0  0  0
    5.4715   -0.9755    2.5503 H   0  0  0  0  0  0  0  0  0  0  0  0
    3.9321   -1.7929    2.4387 H   0  0  0  0  0  0  0  0  0  0  0  0
    5.8364   -3.4332    2.6244 H   0  0  0  0  0  0  0  0  0  0  0  0
    7.5500   -1.9141    1.2769 H   0  0  0  0  0  0  0  0  0  0  0  0
    7.5214   -3.6050    0.7851 H   0  0  0  0  0  0  0  0  0  0  0  0
    7.0848   -2.3188   -1.2632 H   0  0  0  0  0  0  0  0  0  0  0  0
    5.9315   -0.2020   -0.9682 H   0  0  0  0  0  0  0  0  0  0  0  0
    6.6713   -0.1896    0.2555 H   0  0  0  0  0  0  0  0  0  0  0  0
    4.8189   -4.8178   -1.7006 H   0  0  0  0  0  0  0  0  0  0  0  0
    5.3362   -4.8796    0.7626 H   0  0  0  0  0  0  0  0  0  0  0  0
    3.8434   -3.9873    0.9602 H   0  0  0  0  0  0  0  0  0  0  0  0
    2.4494   -0.5600   -4.9325 H   0  0  0  0  0  0  0  0  0  0  0  0
  2  1  1  6
  1 18  1  0
  2 15  1  0
  2  3  1  0
  2  8  1  0
  3  7  1  0
  3  4  1  0
  3 19  1  6
  4  5  1  0
  4 20  1  0
  4 21  1  0
  5  6  1  0
  5 22  1  0
  5 23  1  0
  6  7  1  0
  6 24  1  0
  6 41  1  0
  7 25  1  0
  7 26  1  0
  8  9  1  0
  8 27  1  0
  8 28  1  0
  9 14  1  0
  9 10  1  0
  9 29  1  1
 10 11  1  0
 10 30  1  0
 10 31  1  0
 11 17  1  0
 11 12  1  0
 11 32  1  1
 12 13  1  0
 12 33  1  0
 12 34  1  0
 13 14  1  0
 13 15  1  0
 13 35  1  6
 14 36  1  0
 14 37  1  0
 15 16  1  6
 15 17  1  0
 16 38  1  0
 17 39  1  0
 17 40  1  0
M  CHG  1   6   1
M  END
>  <i_m_ct_stereo_status>  (297) 
1

>  <s_m_source_file>  (297) 
/var/tmp/pbs.5076255.sched01/tmpy8l6melh/117u1qm2xak.sdf

>  <i_m_source_file_index>  (297) 
15

>  <i_lp_mmshare_version>  (297) 
48012

>  <i_f3d_flags>  (297) 
0

>  <s_epik_input>  (297) 
W0NIMl0xW05IXVtDSDJdW0NIMl1bQ0BIXTFbQ0BdMihbT0hdKVtDSDJdW0NASF0oW0NIMl0zKVtDSDJdW0NAQEhdKFtDSDJdNClbQ0gyXVtDQEhdM1tDQF0yNFtPSF0=

>  <s_epik_cmdline>  (297) 
J2VwaWtfcHl0aG9uJywgJy1waHQnLCAnMi4wJywgJy1waCcsICc3LjAnLCAnLXRuJywgJzgnLCAnLW1hJywgJzIwMCcsICctaW1hZScsICc8aW5maWxlLm1hZT4nLCAnLW9tYWUnLCAnPG91dGZpbGUubWFlPic=

>  <r_lp_tautomer_probability>  (297) 
1

>  <r_epik_Ionization_Penalty>  (297) 
5.95241e-05

>  <r_epik_Ionization_Penalty_Charging>  (297) 
5.88965e-05

>  <r_epik_Ionization_Penalty_Neutral>  (297) 
6.2769e-07

>  <r_epik_State_Penalty>  (297) 
-0

>  <r_epik_Charging_Adjusted_Penalty>  (297) 
5.88965e-05

>  <i_epik_Tot_Q>  (297) 
1

>  <i_epik_Tot_abs_Q>  (297) 
1

>  <s_lp_Force_Field>  (297) 
OPLS3e

>  <r_lp_Energy>  (297) 
57.8926

>  <b_lp_Chiralities_Consistent>  (297) 
1

>  <s_lp_Variant>  (297) 
95:0-1

>  <s_i_glide_gridfile>  (297) 
pfpi4k_grid

>  <i_i_glide_lignum>  (297) 
15

>  <i_i_glide_rotatable_bonds>  (297) 
3

>  <r_i_docking_score>  (297) 
-2.21226

>  <r_i_glide_ligand_efficiency>  (297) 
-0.130133

>  <r_i_glide_ligand_efficiency_sa>  (297) 
-0.334608

>  <r_i_glide_ligand_efficiency_ln>  (297) 
-0.577129

>  <r_i_glide_gscore>  (297) 
-2.21226

>  <r_i_glide_lipo>  (297) 
-0.535972

>  <r_i_glide_hbond>  (297) 
0

>  <r_i_glide_metal>  (297) 
-0

>  <r_i_glide_rewards>  (297) 
-1.78401

>  <r_i_glide_evdw>  (297) 
-8.25203

>  <r_i_glide_ecoul>  (297) 
-4.77534

>  <r_i_glide_erotb>  (297) 
0.303807

>  <r_i_glide_esite>  (297) 
0

>  <r_i_glide_emodel>  (297) 
-5.27838

>  <r_i_glide_energy>  (297) 
-13.0274

>  <r_i_glide_einternal>  (297) 
6.08837

>  <r_i_glide_intrahb_reward>  (297) 
-0

>  <i_i_glide_confnum>  (297) 
3

>  <i_i_glide_posenum>  (297) 
11

>  <r_i_glide_eff_state_penalty>  (297) 
0

>  <ligand_id>  (297) 
95

>  <original_smiles>  (297) 
OC1(C2CCNC2)CC2CC3CC(C2)C1(O)C3

>  <smiles>  (297) 
[H]OC12C([H])([H])C3([H])C([H])([H])C([H])(C([H])([H])C1([H])C3([H])[H])C([H])([H])C2(O[H])C1([H])C([H])([H])C([H])([H])[N+]([H])([H])C1([H])[H]

$$$$
96:0:0
     RDKit          3D

 66 71  0  0  1  0  0  0  0  0999 V2000
    4.7990   -1.9312   -1.3080 C   0  0  0  0  0  0  0  0  0  0  0  0
    5.8926   -1.7851   -0.2254 C   0  0  2  0  0  0  0  0  0  0  0  0
    6.9443   -2.9368   -0.2745 C   0  0  0  0  0  0  0  0  0  0  0  0
    6.7791   -4.0093    0.8202 C   0  0  0  0  0  0  0  0  0  0  0  0
    5.3114   -4.1048    1.2446 C   0  0  1  0  0  0  0  0  0  0  0  0
    4.9182   -5.3927    1.9893 C   0  0  1  0  0  0  0  0  0  0  0  0
    5.6606   -5.6769    3.3097 C   0  0  0  0  0  0  0  0  0  0  0  0
    3.3824   -5.3285    2.1392 C   0  0  1  0  0  0  0  0  0  0  0  0
    2.7296   -6.5405    2.8229 C   0  0  2  0  0  0  0  0  0  0  0  0
    2.9868   -7.8295    2.0204 C   0  0  0  0  0  0  0  0  0  0  0  0
    1.5668   -8.3376    1.7349 C   0  0  2  0  0  0  0  0  0  0  0  0
    0.8236   -7.0249    1.4699 C   0  0  0  0  0  0  0  0  0  0  0  0
    1.1836   -6.4613    2.8372 C   0  0  1  0  0  0  0  0  0  0  0  0
    0.5969   -7.5418    3.7728 C   0  0  0  0  0  0  0  0  0  0  0  0
    0.8694   -8.8686    3.0176 C   0  0  0  0  0  0  0  0  0  0  0  0
   -0.4463   -9.5981    2.6697 C   0  0  0  0  0  0  0  0  0  0  0  0
    1.7434   -9.8464    3.8356 C   0  0  0  0  0  0  0  0  0  0  0  0
    3.0198   -4.1445    2.8357 O   0  0  0  0  0  0  0  0  0  0  0  0
    3.2787   -2.9561    2.1423 C   0  0  1  0  0  0  0  0  0  0  0  0
    2.7126   -1.9025    2.8473 O   0  0  0  0  0  0  0  0  0  0  0  0
    3.5994   -1.1115    3.6090 C   0  0  2  0  0  0  0  0  0  0  0  0
    2.7982   -0.6114    4.8170 C   0  0  0  0  0  0  0  0  0  0  0  0
    4.0657    0.0627    2.7363 C   0  0  0  0  0  0  0  0  0  0  0  0
    4.3895   -0.3290    1.2893 C   0  0  0  0  0  0  0  0  0  0  0  0
    5.3241   -1.5394    1.2008 C   0  0  1  0  0  0  0  0  0  0  0  0
    4.8257   -2.8171    1.9634 C   0  0  2  0  0  0  0  0  0  0  0  0
    5.4135   -2.7532    3.2503 O   0  0  0  0  0  0  0  0  0  0  0  0
    4.6772   -1.8329    4.2075 O   0  0  0  0  0  0  0  0  0  0  0  0
    4.0582   -2.6990   -1.0817 H   0  0  0  0  0  0  0  0  0  0  0  0
    5.2316   -2.1636   -2.2808 H   0  0  0  0  0  0  0  0  0  0  0  0
    4.2573   -0.9946   -1.4281 H   0  0  0  0  0  0  0  0  0  0  0  0
    6.4324   -0.8747   -0.4924 H   0  0  0  0  0  0  0  0  0  0  0  0
    6.9164   -3.4136   -1.2582 H   0  0  0  0  0  0  0  0  0  0  0  0
    7.9485   -2.5198   -0.1920 H   0  0  0  0  0  0  0  0  0  0  0  0
    7.1349   -4.9684    0.4377 H   0  0  0  0  0  0  0  0  0  0  0  0
    7.3994   -3.7632    1.6797 H   0  0  0  0  0  0  0  0  0  0  0  0
    4.7597   -4.1864    0.3072 H   0  0  0  0  0  0  0  0  0  0  0  0
    5.1718   -6.2152    1.3203 H   0  0  0  0  0  0  0  0  0  0  0  0
    5.3058   -5.0514    4.1291 H   0  0  0  0  0  0  0  0  0  0  0  0
    6.7350   -5.5357    3.2082 H   0  0  0  0  0  0  0  0  0  0  0  0
    5.5040   -6.7116    3.6105 H   0  0  0  0  0  0  0  0  0  0  0  0
    2.9633   -5.2494    1.1376 H   0  0  0  0  0  0  0  0  0  0  0  0
    3.0937   -6.6333    3.8446 H   0  0  0  0  0  0  0  0  0  0  0  0
    3.4655   -7.6261    1.0616 H   0  0  0  0  0  0  0  0  0  0  0  0
    3.6262   -8.5383    2.5482 H   0  0  0  0  0  0  0  0  0  0  0  0
    1.5640   -9.0362    0.9026 H   0  0  0  0  0  0  0  0  0  0  0  0
    1.2298   -6.4614    0.6290 H   0  0  0  0  0  0  0  0  0  0  0  0
   -0.2518   -7.1281    1.3200 H   0  0  0  0  0  0  0  0  0  0  0  0
    0.7958   -5.4665    3.0577 H   0  0  0  0  0  0  0  0  0  0  0  0
    1.0371   -7.5194    4.7709 H   0  0  0  0  0  0  0  0  0  0  0  0
   -0.4746   -7.3775    3.8979 H   0  0  0  0  0  0  0  0  0  0  0  0
   -0.9792   -9.8962    3.5704 H   0  0  0  0  0  0  0  0  0  0  0  0
   -0.2503  -10.4989    2.0895 H   0  0  0  0  0  0  0  0  0  0  0  0
   -1.1339   -8.9918    2.0845 H   0  0  0  0  0  0  0  0  0  0  0  0
    1.1805  -10.3068    4.6499 H   0  0  0  0  0  0  0  0  0  0  0  0
    2.6091   -9.3585    4.2851 H   0  0  0  0  0  0  0  0  0  0  0  0
    2.1125  -10.6554    3.2058 H   0  0  0  0  0  0  0  0  0  0  0  0
    2.7680   -2.9839    1.1780 H   0  0  0  0  0  0  0  0  0  0  0  0
    2.4785   -1.4546    5.4334 H   0  0  0  0  0  0  0  0  0  0  0  0
    1.9045   -0.0678    4.5079 H   0  0  0  0  0  0  0  0  0  0  0  0
    3.3994    0.0519    5.4436 H   0  0  0  0  0  0  0  0  0  0  0  0
    3.2777    0.8169    2.6934 H   0  0  0  0  0  0  0  0  0  0  0  0
    4.9231    0.5431    3.2125 H   0  0  0  0  0  0  0  0  0  0  0  0
    3.4635   -0.5239    0.7474 H   0  0  0  0  0  0  0  0  0  0  0  0
    4.8452    0.5249    0.7908 H   0  0  0  0  0  0  0  0  0  0  0  0
    6.2153   -1.2289    1.7498 H   0  0  0  0  0  0  0  0  0  0  0  0
  1  2  1  0
  1 29  1  0
  1 30  1  0
  1 31  1  0
  2 25  1  0
  2  3  1  0
  2 32  1  6
  3  4  1  0
  3 33  1  0
  3 34  1  0
  4  5  1  0
  4 35  1  0
  4 36  1  0
  5 26  1  0
  5  6  1  0
  5 37  1  6
  6  7  1  0
  6  8  1  0
  6 38  1  6
  7 39  1  0
  7 40  1  0
  7 41  1  0
  8  9  1  0
  8 18  1  0
  8 42  1  6
  9 13  1  0
  9 10  1  0
  9 43  1  1
 10 11  1  0
 10 44  1  0
 10 45  1  0
 11 15  1  0
 11 12  1  0
 11 46  1  6
 12 13  1  0
 12 47  1  0
 12 48  1  0
 13 14  1  0
 13 49  1  1
 14 15  1  0
 14 50  1  0
 14 51  1  0
 15 16  1  0
 15 17  1  0
 16 52  1  0
 16 53  1  0
 16 54  1  0
 17 55  1  0
 17 56  1  0
 17 57  1  0
 18 19  1  0
 19 26  1  0
 19 20  1  0
 19 58  1  6
 20 21  1  0
 21 28  1  0
 21 22  1  1
 21 23  1  0
 22 59  1  0
 22 60  1  0
 22 61  1  0
 23 24  1  0
 23 62  1  0
 23 63  1  0
 24 25  1  0
 24 64  1  0
 24 65  1  0
 25 26  1  0
 25 66  1  1
 26 27  1  1
 27 28  1  0
M  END
>  <i_m_ct_stereo_status>  (298) 
1

>  <s_m_source_file>  (298) 
/var/tmp/pbs.5076255.sched01/tmpy8l6melh/117u1qm2xak.sdf

>  <i_m_source_file_index>  (298) 
16

>  <i_lp_mmshare_version>  (298) 
48012

>  <i_f3d_flags>  (298) 
0

>  <s_epik_input>  (298) 
W0NAQF0xMjNbQ0BIXTRbQ0gyXVtDSDJdW0NAQEhdKFtDSDNdKVtDQEhdMltDSDJdW0NIMl1bQ0BdKFtDSDNdKShPTzMpT1tDQEBIXTFPW0NAQEhdKFtDQEBIXTRbQ0gzXSlbQ0BIXShbQ0gyXVtDQEhdNTYpW0NAQEhdKFtDSDJdNSlbQ0gyXUM2KFtDSDNdKVtDSDNd

>  <s_epik_cmdline>  (298) 
J2VwaWtfcHl0aG9uJywgJy1waHQnLCAnMi4wJywgJy1waCcsICc3LjAnLCAnLXRuJywgJzgnLCAnLW1hJywgJzIwMCcsICctaW1hZScsICc8aW5maWxlLm1hZT4nLCAnLW9tYWUnLCAnPG91dGZpbGUubWFlPic=

>  <r_lp_tautomer_probability>  (298) 
1

>  <r_epik_Ionization_Penalty>  (298) 
4.81503e-14

>  <r_epik_Ionization_Penalty_Charging>  (298) 
0

>  <r_epik_Ionization_Penalty_Neutral>  (298) 
4.81503e-14

>  <r_epik_State_Penalty>  (298) 
-0

>  <r_epik_Charging_Adjusted_Penalty>  (298) 
0

>  <i_epik_Tot_Q>  (298) 
0

>  <i_epik_Tot_abs_Q>  (298) 
0

>  <s_epik_Chemistry_Notes>  (298) 
This compound contains an acetal/aminal-like group ( X-CH(R)-Y where X, Y are N, S, or O) that may be acid/base labile, releasing an aldehyde.

>  <s_lp_Force_Field>  (298) 
OPLS3e

>  <r_lp_Energy>  (298) 
73.9117

>  <b_lp_Chiralities_Consistent>  (298) 
1

>  <s_lp_Variant>  (298) 
96:0-1

>  <s_i_glide_gridfile>  (298) 
pfpi4k_grid

>  <i_i_glide_lignum>  (298) 
16

>  <i_i_glide_rotatable_bonds>  (298) 
1

>  <r_i_docking_score>  (298) 
-2.61141

>  <r_i_glide_ligand_efficiency>  (298) 
-0.0932648

>  <r_i_glide_ligand_efficiency_sa>  (298) 
-0.283207

>  <r_i_glide_ligand_efficiency_ln>  (298) 
-0.602791

>  <r_i_glide_gscore>  (298) 
-2.61141

>  <r_i_glide_lipo>  (298) 
-0.521142

>  <r_i_glide_hbond>  (298) 
0

>  <r_i_glide_metal>  (298) 
-0

>  <r_i_glide_rewards>  (298) 
-0.750161

>  <r_i_glide_evdw>  (298) 
-28.4625

>  <r_i_glide_ecoul>  (298) 
-0.292335

>  <r_i_glide_erotb>  (298) 
0.127877

>  <r_i_glide_esite>  (298) 
-0.00101325

>  <r_i_glide_emodel>  (298) 
-33.1893

>  <r_i_glide_energy>  (298) 
-28.7549

>  <r_i_glide_einternal>  (298) 
0.13491

>  <r_i_glide_intrahb_reward>  (298) 
-0

>  <i_i_glide_confnum>  (298) 
3

>  <i_i_glide_posenum>  (298) 
38

>  <r_i_glide_eff_state_penalty>  (298) 
0

>  <ligand_id>  (298) 
96

>  <original_smiles>  (298) 
CC1CCC2C(C)C(C3CC4CC3CC4(C)C)OC3OC4(C)CCC1C32OO4

>  <smiles>  (298) 
[H]C([H])([H])C12OOC34C([H])(OC([H])(C5([H])C([H])([H])C6([H])C([H])([H])C5([H])C([H])([H])C6(C([H])([H])[H])C([H])([H])[H])C([H])(C([H])([H])[H])C3([H])C([H])([H])C([H])([H])C([H])(C([H])([H])[H])C4([H])C([H])([H])C1([H])[H])O2

$$$$
96:0:1
     RDKit          3D

 66 71  0  0  1  0  0  0  0  0999 V2000
    4.7286   -2.5846   -2.0930 C   0  0  0  0  0  0  0  0  0  0  0  0
    5.7120   -2.1267   -0.9912 C   0  0  2  0  0  0  0  0  0  0  0  0
    6.9032   -3.1129   -0.8003 C   0  0  0  0  0  0  0  0  0  0  0  0
    6.7958   -4.0328    0.4337 C   0  0  0  0  0  0  0  0  0  0  0  0
    5.3258   -4.2783    0.7842 C   0  0  1  0  0  0  0  0  0  0  0  0
    5.0406   -5.4898    1.6935 C   0  0  1  0  0  0  0  0  0  0  0  0
    5.7178   -5.4689    3.0780 C   0  0  0  0  0  0  0  0  0  0  0  0
    3.5027   -5.6068    1.7571 C   0  0  1  0  0  0  0  0  0  0  0  0
    2.9618   -6.7830    2.5854 C   0  0  2  0  0  0  0  0  0  0  0  0
    3.2644   -8.1270    1.8896 C   0  0  0  0  0  0  0  0  0  0  0  0
    1.8612   -8.7378    1.7233 C   0  0  2  0  0  0  0  0  0  0  0  0
    1.0298   -7.4926    1.3860 C   0  0  0  0  0  0  0  0  0  0  0  0
    1.4170   -6.7928    2.6764 C   0  0  1  0  0  0  0  0  0  0  0  0
    0.9459   -7.8131    3.7342 C   0  0  0  0  0  0  0  0  0  0  0  0
    1.2674   -9.1843    3.0863 C   0  0  0  0  0  0  0  0  0  0  0  0
   -0.0106  -10.0199    2.8796 C   0  0  0  0  0  0  0  0  0  0  0  0
    2.2387  -10.0262    3.9465 C   0  0  0  0  0  0  0  0  0  0  0  0
    2.9519   -4.3919    2.2459 O   0  0  0  0  0  0  0  0  0  0  0  0
    3.1081   -3.2963    1.3902 C   0  0  1  0  0  0  0  0  0  0  0  0
    2.3582   -2.2398    1.8923 O   0  0  0  0  0  0  0  0  0  0  0  0
    3.0775   -1.2296    2.5679 C   0  0  2  0  0  0  0  0  0  0  0  0
    2.1206   -0.6773    3.6342 C   0  0  0  0  0  0  0  0  0  0  0  0
    3.4446   -0.1372    1.5473 C   0  0  0  0  0  0  0  0  0  0  0  0
    3.9317   -0.6940    0.2056 C   0  0  0  0  0  0  0  0  0  0  0  0
    5.0159   -1.7628    0.3514 C   0  0  1  0  0  0  0  0  0  0  0  0
    4.6320   -2.9730    1.2722 C   0  0  2  0  0  0  0  0  0  0  0  0
    5.1254   -2.6252    2.5594 O   0  0  0  0  0  0  0  0  0  0  0  0
    4.1928   -1.7015    3.3262 O   0  0  0  0  0  0  0  0  0  0  0  0
    4.0798   -3.4072   -1.7911 H   0  0  0  0  0  0  0  0  0  0  0  0
    5.2572   -2.8949   -2.9949 H   0  0  0  0  0  0  0  0  0  0  0  0
    4.0791   -1.7620   -2.3865 H   0  0  0  0  0  0  0  0  0  0  0  0
    6.1490   -1.2042   -1.3795 H   0  0  0  0  0  0  0  0  0  0  0  0
    7.0062   -3.7194   -1.7022 H   0  0  0  0  0  0  0  0  0  0  0  0
    7.8388   -2.5555   -0.7281 H   0  0  0  0  0  0  0  0  0  0  0  0
    7.3029   -4.9768    0.2245 H   0  0  0  0  0  0  0  0  0  0  0  0
    7.3081   -3.5811    1.2831 H   0  0  0  0  0  0  0  0  0  0  0  0
    4.8592   -4.5660   -0.1613 H   0  0  0  0  0  0  0  0  0  0  0  0
    5.4299   -6.3677    1.1771 H   0  0  0  0  0  0  0  0  0  0  0  0
    5.2257   -4.7853    3.7687 H   0  0  0  0  0  0  0  0  0  0  0  0
    6.7683   -5.1900    3.0096 H   0  0  0  0  0  0  0  0  0  0  0  0
    5.6838   -6.4588    3.5315 H   0  0  0  0  0  0  0  0  0  0  0  0
    3.1431   -5.7301    0.7361 H   0  0  0  0  0  0  0  0  0  0  0  0
    3.3682   -6.7554    3.5951 H   0  0  0  0  0  0  0  0  0  0  0  0
    3.7045   -7.9790    0.9020 H   0  0  0  0  0  0  0  0  0  0  0  0
    3.9668   -8.7467    2.4503 H   0  0  0  0  0  0  0  0  0  0  0  0
    1.8359   -9.5155    0.9594 H   0  0  0  0  0  0  0  0  0  0  0  0
    1.3582   -6.9777    0.4826 H   0  0  0  0  0  0  0  0  0  0  0  0
   -0.0428   -7.6707    1.3007 H   0  0  0  0  0  0  0  0  0  0  0  0
    0.9727   -5.8083    2.8267 H   0  0  0  0  0  0  0  0  0  0  0  0
    1.4313   -7.6686    4.6992 H   0  0  0  0  0  0  0  0  0  0  0  0
   -0.1266   -7.7013    3.8996 H   0  0  0  0  0  0  0  0  0  0  0  0
   -0.4743  -10.2637    3.8311 H   0  0  0  0  0  0  0  0  0  0  0  0
    0.2117  -10.9603    2.3725 H   0  0  0  0  0  0  0  0  0  0  0  0
   -0.7687   -9.5094    2.2854 H   0  0  0  0  0  0  0  0  0  0  0  0
    1.7445  -10.4353    4.8287 H   0  0  0  0  0  0  0  0  0  0  0  0
    3.0924   -9.4482    4.2995 H   0  0  0  0  0  0  0  0  0  0  0  0
    2.6253  -10.8716    3.3787 H   0  0  0  0  0  0  0  0  0  0  0  0
    2.6746   -3.5363    0.4173 H   0  0  0  0  0  0  0  0  0  0  0  0
    1.8665   -1.4581    4.3545 H   0  0  0  0  0  0  0  0  0  0  0  0
    1.1888   -0.3162    3.1962 H   0  0  0  0  0  0  0  0  0  0  0  0
    2.5774    0.1478    4.1841 H   0  0  0  0  0  0  0  0  0  0  0  0
    2.5612    0.4695    1.3351 H   0  0  0  0  0  0  0  0  0  0  0  0
    4.1791    0.5444    1.9783 H   0  0  0  0  0  0  0  0  0  0  0  0
    3.0792   -1.0885   -0.3498 H   0  0  0  0  0  0  0  0  0  0  0  0
    4.3164    0.1335   -0.3855 H   0  0  0  0  0  0  0  0  0  0  0  0
    5.8152   -1.2545    0.8917 H   0  0  0  0  0  0  0  0  0  0  0  0
  1  2  1  0
  1 29  1  0
  1 30  1  0
  1 31  1  0
  2 25  1  0
  2  3  1  0
  2 32  1  6
  3  4  1  0
  3 33  1  0
  3 34  1  0
  4  5  1  0
  4 35  1  0
  4 36  1  0
  5 26  1  0
  5  6  1  0
  5 37  1  6
  6  7  1  0
  6  8  1  0
  6 38  1  6
  7 39  1  0
  7 40  1  0
  7 41  1  0
  8  9  1  0
  8 18  1  0
  8 42  1  6
  9 13  1  0
  9 10  1  0
  9 43  1  1
 10 11  1  0
 10 44  1  0
 10 45  1  0
 11 15  1  0
 11 12  1  0
 11 46  1  6
 12 13  1  0
 12 47  1  0
 12 48  1  0
 13 14  1  0
 13 49  1  1
 14 15  1  0
 14 50  1  0
 14 51  1  0
 15 16  1  0
 15 17  1  0
 16 52  1  0
 16 53  1  0
 16 54  1  0
 17 55  1  0
 17 56  1  0
 17 57  1  0
 18 19  1  0
 19 26  1  0
 19 20  1  0
 19 58  1  6
 20 21  1  0
 21 28  1  0
 21 22  1  1
 21 23  1  0
 22 59  1  0
 22 60  1  0
 22 61  1  0
 23 24  1  0
 23 62  1  0
 23 63  1  0
 24 25  1  0
 24 64  1  0
 24 65  1  0
 25 26  1  0
 25 66  1  1
 26 27  1  1
 27 28  1  0
M  END
>  <i_m_ct_stereo_status>  (299) 
1

>  <s_m_source_file>  (299) 
/var/tmp/pbs.5076255.sched01/tmpy8l6melh/117u1qm2xak.sdf

>  <i_m_source_file_index>  (299) 
16

>  <i_lp_mmshare_version>  (299) 
48012

>  <i_f3d_flags>  (299) 
0

>  <s_epik_input>  (299) 
W0NAQF0xMjNbQ0BIXTRbQ0gyXVtDSDJdW0NAQEhdKFtDSDNdKVtDQEhdMltDSDJdW0NIMl1bQ0BdKFtDSDNdKShPTzMpT1tDQEBIXTFPW0NAQEhdKFtDQEBIXTRbQ0gzXSlbQ0BIXShbQ0gyXVtDQEhdNTYpW0NAQEhdKFtDSDJdNSlbQ0gyXUM2KFtDSDNdKVtDSDNd

>  <s_epik_cmdline>  (299) 
J2VwaWtfcHl0aG9uJywgJy1waHQnLCAnMi4wJywgJy1waCcsICc3LjAnLCAnLXRuJywgJzgnLCAnLW1hJywgJzIwMCcsICctaW1hZScsICc8aW5maWxlLm1hZT4nLCAnLW9tYWUnLCAnPG91dGZpbGUubWFlPic=

>  <r_lp_tautomer_probability>  (299) 
1

>  <r_epik_Ionization_Penalty>  (299) 
4.81503e-14

>  <r_epik_Ionization_Penalty_Charging>  (299) 
0

>  <r_epik_Ionization_Penalty_Neutral>  (299) 
4.81503e-14

>  <r_epik_State_Penalty>  (299) 
-0

>  <r_epik_Charging_Adjusted_Penalty>  (299) 
0

>  <i_epik_Tot_Q>  (299) 
0

>  <i_epik_Tot_abs_Q>  (299) 
0

>  <s_epik_Chemistry_Notes>  (299) 
This compound contains an acetal/aminal-like group ( X-CH(R)-Y where X, Y are N, S, or O) that may be acid/base labile, releasing an aldehyde.

>  <s_lp_Force_Field>  (299) 
OPLS3e

>  <r_lp_Energy>  (299) 
73.9117

>  <b_lp_Chiralities_Consistent>  (299) 
1

>  <s_lp_Variant>  (299) 
96:0-1

>  <s_i_glide_gridfile>  (299) 
pfpi4k_grid

>  <i_i_glide_lignum>  (299) 
16

>  <i_i_glide_rotatable_bonds>  (299) 
1

>  <r_i_docking_score>  (299) 
-2.54779

>  <r_i_glide_ligand_efficiency>  (299) 
-0.0909923

>  <r_i_glide_ligand_efficiency_sa>  (299) 
-0.276306

>  <r_i_glide_ligand_efficiency_ln>  (299) 
-0.588104

>  <r_i_glide_gscore>  (299) 
-2.54779

>  <r_i_glide_lipo>  (299) 
-0.405561

>  <r_i_glide_hbond>  (299) 
0

>  <r_i_glide_metal>  (299) 
-0

>  <r_i_glide_rewards>  (299) 
-0.746208

>  <r_i_glide_evdw>  (299) 
-30.6901

>  <r_i_glide_ecoul>  (299) 
0.101833

>  <r_i_glide_erotb>  (299) 
0.127877

>  <r_i_glide_esite>  (299) 
-0.00466524

>  <r_i_glide_emodel>  (299) 
-35.1586

>  <r_i_glide_energy>  (299) 
-30.5882

>  <r_i_glide_einternal>  (299) 
0.121203

>  <r_i_glide_intrahb_reward>  (299) 
-0

>  <i_i_glide_confnum>  (299) 
1

>  <i_i_glide_posenum>  (299) 
12

>  <r_i_glide_eff_state_penalty>  (299) 
0

>  <ligand_id>  (299) 
96

>  <original_smiles>  (299) 
CC1CCC2C(C)C(C3CC4CC3CC4(C)C)OC3OC4(C)CCC1C32OO4

>  <smiles>  (299) 
[H]C([H])([H])C12OOC34C([H])(OC([H])(C5([H])C([H])([H])C6([H])C([H])([H])C5([H])C([H])([H])C6(C([H])([H])[H])C([H])([H])[H])C([H])(C([H])([H])[H])C3([H])C([H])([H])C([H])([H])C([H])(C([H])([H])[H])C4([H])C([H])([H])C1([H])[H])O2

$$$$
96:0:2
     RDKit          3D

 66 71  0  0  1  0  0  0  0  0999 V2000
    4.0792   -2.5481   -1.9712 C   0  0  0  0  0  0  0  0  0  0  0  0
    5.3011   -2.3537   -1.0438 C   0  0  2  0  0  0  0  0  0  0  0  0
    6.2258   -3.5979   -1.0161 C   0  0  0  0  0  0  0  0  0  0  0  0
    6.1094   -4.4876    0.2398 C   0  0  0  0  0  0  0  0  0  0  0  0
    4.7009   -4.3808    0.8165 C   0  0  1  0  0  0  0  0  0  0  0  0
    4.2885   -5.5079    1.7813 C   0  0  1  0  0  0  0  0  0  0  0  0
    5.1547   -5.6745    3.0457 C   0  0  0  0  0  0  0  0  0  0  0  0
    2.7950   -5.2634    2.0796 C   0  0  1  0  0  0  0  0  0  0  0  0
    2.1264   -6.2939    3.0023 C   0  0  2  0  0  0  0  0  0  0  0  0
    2.1293   -7.6969    2.3626 C   0  0  0  0  0  0  0  0  0  0  0  0
    0.6356   -8.0584    2.3505 C   0  0  2  0  0  0  0  0  0  0  0  0
    0.0118   -6.7091    1.9874 C   0  0  0  0  0  0  0  0  0  0  0  0
    0.6181   -6.0203    3.2033 C   0  0  1  0  0  0  0  0  0  0  0  0
    0.0608   -6.8831    4.3542 C   0  0  0  0  0  0  0  0  0  0  0  0
    0.0808   -8.3133    3.7676 C   0  0  0  0  0  0  0  0  0  0  0  0
   -1.3402   -8.8913    3.6598 C   0  0  0  0  0  0  0  0  0  0  0  0
    0.9453   -9.2915    4.5958 C   0  0  0  0  0  0  0  0  0  0  0  0
    2.6226   -3.9622    2.6223 O   0  0  0  0  0  0  0  0  0  0  0  0
    2.9051   -2.9145    1.7372 C   0  0  1  0  0  0  0  0  0  0  0  0
    2.5187   -1.7240    2.3303 O   0  0  0  0  0  0  0  0  0  0  0  0
    3.5560   -0.9265    2.8609 C   0  0  2  0  0  0  0  0  0  0  0  0
    2.9451   -0.1757    4.0486 C   0  0  0  0  0  0  0  0  0  0  0  0
    4.0042    0.0543    1.7698 C   0  0  0  0  0  0  0  0  0  0  0  0
    4.1237   -0.5764    0.3807 C   0  0  0  0  0  0  0  0  0  0  0  0
    4.9355   -1.8655    0.3841 C   0  0  1  0  0  0  0  0  0  0  0  0
    4.4266   -2.9635    1.3786 C   0  0  2  0  0  0  0  0  0  0  0  0
    5.1837   -2.7661    2.5649 O   0  0  0  0  0  0  0  0  0  0  0  0
    4.6289   -1.6648    3.4496 O   0  0  0  0  0  0  0  0  0  0  0  0
    3.3092   -3.2020   -1.5574 H   0  0  0  0  0  0  0  0  0  0  0  0
    4.3784   -2.9601   -2.9349 H   0  0  0  0  0  0  0  0  0  0  0  0
    3.6067   -1.5920   -2.1813 H   0  0  0  0  0  0  0  0  0  0  0  0
    5.8850   -1.5570   -1.5161 H   0  0  0  0  0  0  0  0  0  0  0  0
    6.0127   -4.2013   -1.9023 H   0  0  0  0  0  0  0  0  0  0  0  0
    7.2656   -3.2869   -1.1166 H   0  0  0  0  0  0  0  0  0  0  0  0
    6.3295   -5.5229   -0.0258 H   0  0  0  0  0  0  0  0  0  0  0  0
    6.8451   -4.1869    0.9878 H   0  0  0  0  0  0  0  0  0  0  0  0
    4.0381   -4.5349   -0.0373 H   0  0  0  0  0  0  0  0  0  0  0  0
    4.3855   -6.4389    1.2230 H   0  0  0  0  0  0  0  0  0  0  0  0
    4.9536   -4.9041    3.7914 H   0  0  0  0  0  0  0  0  0  0  0  0
    6.2173   -5.6606    2.8134 H   0  0  0  0  0  0  0  0  0  0  0  0
    4.9450   -6.6338    3.5164 H   0  0  0  0  0  0  0  0  0  0  0  0
    2.2680   -5.2797    1.1268 H   0  0  0  0  0  0  0  0  0  0  0  0
    2.6174   -6.2985    3.9731 H   0  0  0  0  0  0  0  0  0  0  0  0
    2.4777   -7.6674    1.3290 H   0  0  0  0  0  0  0  0  0  0  0  0
    2.7646   -8.4028    2.9003 H   0  0  0  0  0  0  0  0  0  0  0  0
    0.4035   -8.8806    1.6846 H   0  0  0  0  0  0  0  0  0  0  0  0
    0.3552   -6.3192    1.0284 H   0  0  0  0  0  0  0  0  0  0  0  0
   -1.0772   -6.6955    1.9890 H   0  0  0  0  0  0  0  0  0  0  0  0
    0.3771   -4.9644    3.3314 H   0  0  0  0  0  0  0  0  0  0  0  0
    0.6380   -6.7913    5.2752 H   0  0  0  0  0  0  0  0  0  0  0  0
   -0.9594   -6.5731    4.5861 H   0  0  0  0  0  0  0  0  0  0  0  0
   -1.7694   -9.0254    4.6492 H   0  0  0  0  0  0  0  0  0  0  0  0
   -1.3225   -9.8701    3.1843 H   0  0  0  0  0  0  0  0  0  0  0  0
   -2.0390   -8.2817    3.0929 H   0  0  0  0  0  0  0  0  0  0  0  0
    0.4524   -9.5804    5.5255 H   0  0  0  0  0  0  0  0  0  0  0  0
    1.9152   -8.8686    4.8597 H   0  0  0  0  0  0  0  0  0  0  0  0
    1.1330  -10.2110    4.0425 H   0  0  0  0  0  0  0  0  0  0  0  0
    2.2881   -3.0199    0.8430 H   0  0  0  0  0  0  0  0  0  0  0  0
    2.6249   -0.8837    4.8171 H   0  0  0  0  0  0  0  0  0  0  0  0
    2.0724    0.4087    3.7505 H   0  0  0  0  0  0  0  0  0  0  0  0
    3.6708    0.5059    4.4986 H   0  0  0  0  0  0  0  0  0  0  0  0
    3.2821    0.8697    1.6887 H   0  0  0  0  0  0  0  0  0  0  0  0
    4.9495    0.5119    2.0633 H   0  0  0  0  0  0  0  0  0  0  0  0
    3.1258   -0.7549   -0.0245 H   0  0  0  0  0  0  0  0  0  0  0  0
    4.5933    0.1421   -0.2881 H   0  0  0  0  0  0  0  0  0  0  0  0
    5.9090   -1.5715    0.7831 H   0  0  0  0  0  0  0  0  0  0  0  0
  1  2  1  0
  1 29  1  0
  1 30  1  0
  1 31  1  0
  2 25  1  0
  2  3  1  0
  2 32  1  6
  3  4  1  0
  3 33  1  0
  3 34  1  0
  4  5  1  0
  4 35  1  0
  4 36  1  0
  5 26  1  0
  5  6  1  0
  5 37  1  6
  6  7  1  0
  6  8  1  0
  6 38  1  6
  7 39  1  0
  7 40  1  0
  7 41  1  0
  8  9  1  0
  8 18  1  0
  8 42  1  6
  9 13  1  0
  9 10  1  0
  9 43  1  1
 10 11  1  0
 10 44  1  0
 10 45  1  0
 11 15  1  0
 11 12  1  0
 11 46  1  6
 12 13  1  0
 12 47  1  0
 12 48  1  0
 13 14  1  0
 13 49  1  1
 14 15  1  0
 14 50  1  0
 14 51  1  0
 15 16  1  0
 15 17  1  0
 16 52  1  0
 16 53  1  0
 16 54  1  0
 17 55  1  0
 17 56  1  0
 17 57  1  0
 18 19  1  0
 19 26  1  0
 19 20  1  0
 19 58  1  6
 20 21  1  0
 21 28  1  0
 21 22  1  1
 21 23  1  0
 22 59  1  0
 22 60  1  0
 22 61  1  0
 23 24  1  0
 23 62  1  0
 23 63  1  0
 24 25  1  0
 24 64  1  0
 24 65  1  0
 25 26  1  0
 25 66  1  1
 26 27  1  1
 27 28  1  0
M  END
>  <i_m_ct_stereo_status>  (300) 
1

>  <s_m_source_file>  (300) 
/var/tmp/pbs.5076255.sched01/tmpy8l6melh/117u1qm2xak.sdf

>  <i_m_source_file_index>  (300) 
16

>  <i_lp_mmshare_version>  (300) 
48012

>  <i_f3d_flags>  (300) 
0

>  <s_epik_input>  (300) 
W0NAQF0xMjNbQ0BIXTRbQ0gyXVtDSDJdW0NAQEhdKFtDSDNdKVtDQEhdMltDSDJdW0NIMl1bQ0BdKFtDSDNdKShPTzMpT1tDQEBIXTFPW0NAQEhdKFtDQEBIXTRbQ0gzXSlbQ0BIXShbQ0gyXVtDQEhdNTYpW0NAQEhdKFtDSDJdNSlbQ0gyXUM2KFtDSDNdKVtDSDNd

>  <s_epik_cmdline>  (300) 
J2VwaWtfcHl0aG9uJywgJy1waHQnLCAnMi4wJywgJy1waCcsICc3LjAnLCAnLXRuJywgJzgnLCAnLW1hJywgJzIwMCcsICctaW1hZScsICc8aW5maWxlLm1hZT4nLCAnLW9tYWUnLCAnPG91dGZpbGUubWFlPic=

>  <r_lp_tautomer_probability>  (300) 
1

>  <r_epik_Ionization_Penalty>  (300) 
4.81503e-14

>  <r_epik_Ionization_Penalty_Charging>  (300) 
0

>  <r_epik_Ionization_Penalty_Neutral>  (300) 
4.81503e-14

>  <r_epik_State_Penalty>  (300) 
-0

>  <r_epik_Charging_Adjusted_Penalty>  (300) 
0

>  <i_epik_Tot_Q>  (300) 
0

>  <i_epik_Tot_abs_Q>  (300) 
0

>  <s_epik_Chemistry_Notes>  (300) 
This compound contains an acetal/aminal-like group ( X-CH(R)-Y where X, Y are N, S, or O) that may be acid/base labile, releasing an aldehyde.

>  <s_lp_Force_Field>  (300) 
OPLS3e

>  <r_lp_Energy>  (300) 
73.9117

>  <b_lp_Chiralities_Consistent>  (300) 
1

>  <s_lp_Variant>  (300) 
96:0-1

>  <s_i_glide_gridfile>  (300) 
pfpi4k_grid

>  <i_i_glide_lignum>  (300) 
16

>  <i_i_glide_rotatable_bonds>  (300) 
1

>  <r_i_docking_score>  (300) 
-2.36233

>  <r_i_glide_ligand_efficiency>  (300) 
-0.0843688

>  <r_i_glide_ligand_efficiency_sa>  (300) 
-0.256193

>  <r_i_glide_ligand_efficiency_ln>  (300) 
-0.545295

>  <r_i_glide_gscore>  (300) 
-2.36233

>  <r_i_glide_lipo>  (300) 
-0.414139

>  <r_i_glide_hbond>  (300) 
0

>  <r_i_glide_metal>  (300) 
-0

>  <r_i_glide_rewards>  (300) 
-0.751779

>  <r_i_glide_evdw>  (300) 
-26.6211

>  <r_i_glide_ecoul>  (300) 
0.100158

>  <r_i_glide_erotb>  (300) 
0.127877

>  <r_i_glide_esite>  (300) 
-0.00825623

>  <r_i_glide_emodel>  (300) 
-30.6966

>  <r_i_glide_energy>  (300) 
-26.5209

>  <r_i_glide_einternal>  (300) 
0.0414457

>  <r_i_glide_intrahb_reward>  (300) 
-0

>  <i_i_glide_confnum>  (300) 
3

>  <i_i_glide_posenum>  (300) 
37

>  <r_i_glide_eff_state_penalty>  (300) 
0

>  <ligand_id>  (300) 
96

>  <original_smiles>  (300) 
CC1CCC2C(C)C(C3CC4CC3CC4(C)C)OC3OC4(C)CCC1C32OO4

>  <smiles>  (300) 
[H]C([H])([H])C12OOC34C([H])(OC([H])(C5([H])C([H])([H])C6([H])C([H])([H])C5([H])C([H])([H])C6(C([H])([H])[H])C([H])([H])[H])C([H])(C([H])([H])[H])C3([H])C([H])([H])C([H])([H])C([H])(C([H])([H])[H])C4([H])C([H])([H])C1([H])[H])O2

$$$$
97:0:0
     RDKit          3D

 72 77  0  0  1  0  0  0  0  0999 V2000
    5.7457   -7.9634    4.3199 C   0  0  0  0  0  0  0  0  0  0  0  0
    5.3397   -7.0177    3.4538 C   0  0  0  0  0  0  0  0  0  0  0  0
    3.9214   -6.7122    3.0053 C   0  0  2  0  0  0  0  0  0  0  0  0
    2.6436   -7.3026    3.6900 C   0  0  2  0  0  0  0  0  0  0  0  0
    1.6177   -8.1720    2.8567 C   0  0  2  0  0  0  0  0  0  0  0  0
    1.0392   -7.3564    1.6332 C   0  0  0  0  0  0  0  0  0  0  0  0
    1.6353   -5.9663    1.6023 C   0  0  0  0  0  0  0  0  0  0  0  0
    2.8000   -5.8688    0.9303 C   0  0  0  0  0  0  0  0  0  0  0  0
    4.0433   -6.5895    1.4659 C   0  0  2  0  0  0  0  0  0  0  0  0
    4.1714   -7.9929    0.7919 C   0  0  0  0  0  0  0  0  0  0  0  0
    5.4310   -5.9030    1.3077 C   0  0  2  0  0  0  0  0  0  0  0  0
    5.4543   -4.5064    0.6953 C   0  0  0  0  0  0  0  0  0  0  0  0
    4.9975   -4.4485   -0.7704 C   0  0  0  0  0  0  0  0  0  0  0  0
    5.4278   -3.2479   -1.3967 O   0  0  0  0  0  0  0  0  0  0  0  0
    4.6167   -2.8779   -2.4668 C   0  0  0  0  0  0  0  0  0  0  0  0
    4.6107   -3.8478   -3.5192 O   0  0  0  0  0  0  0  0  0  0  0  0
    6.7491   -6.6891    1.3019 C   0  0  0  0  0  0  0  0  0  0  0  0
    6.1869   -6.2145    2.5876 C   0  0  2  0  0  0  0  0  0  0  0  0
    1.3705   -5.2566    2.9419 C   0  0  2  0  0  0  0  0  0  0  0  0
    1.9263   -3.8182    2.9503 C   0  0  0  0  0  0  0  0  0  0  0  0
    1.8747   -3.1425    4.3235 C   0  0  0  0  0  0  0  0  0  0  0  0
    2.4921   -1.7359    4.2131 C   0  0  0  0  0  0  0  0  0  0  0  0
    0.4183   -2.9787    4.8301 C   0  0  0  0  0  0  0  0  0  0  0  0
    2.7256   -3.9992    5.2797 C   0  0  0  0  0  0  0  0  0  0  0  0
    2.2326   -5.4464    5.4780 C   0  0  1  0  0  0  0  0  0  0  0  0
    1.3538   -5.3738    6.5980 O   0  0  0  0  0  0  0  0  0  0  0  0
    1.6715   -6.1785    4.1959 C   0  0  2  0  0  0  0  0  0  0  0  0
    0.4160   -7.0358    4.4801 C   0  0  0  0  0  0  0  0  0  0  0  0
   -0.6142   -6.5936    5.0196 O   0  0  0  0  0  0  0  0  0  0  0  0
    0.5016   -8.4419    3.9082 C   0  0  0  0  0  0  0  0  0  0  0  0
   -0.8241   -8.9597    3.3021 C   0  0  0  0  0  0  0  0  0  0  0  0
    0.9604   -9.4414    5.0039 C   0  0  0  0  0  0  0  0  0  0  0  0
    6.8149   -8.0934    4.4674 H   0  0  0  0  0  0  0  0  0  0  0  0
    5.0790   -8.6090    4.8670 H   0  0  0  0  0  0  0  0  0  0  0  0
    3.9166   -5.6727    3.3400 H   0  0  0  0  0  0  0  0  0  0  0  0
    2.9981   -7.8792    4.5466 H   0  0  0  0  0  0  0  0  0  0  0  0
    2.0659   -9.1093    2.5261 H   0  0  0  0  0  0  0  0  0  0  0  0
    1.2060   -7.8769    0.6952 H   0  0  0  0  0  0  0  0  0  0  0  0
   -0.0421   -7.2242    1.6561 H   0  0  0  0  0  0  0  0  0  0  0  0
    2.7011   -6.2581   -0.0738 H   0  0  0  0  0  0  0  0  0  0  0  0
    4.7874   -8.6734    1.3742 H   0  0  0  0  0  0  0  0  0  0  0  0
    4.6098   -7.8971   -0.2025 H   0  0  0  0  0  0  0  0  0  0  0  0
    3.2321   -8.5184    0.6828 H   0  0  0  0  0  0  0  0  0  0  0  0
    4.8889   -3.8129    1.3139 H   0  0  0  0  0  0  0  0  0  0  0  0
    6.4907   -4.1663    0.7344 H   0  0  0  0  0  0  0  0  0  0  0  0
    5.3652   -5.3064   -1.3265 H   0  0  0  0  0  0  0  0  0  0  0  0
    3.9142   -4.4957   -0.8240 H   0  0  0  0  0  0  0  0  0  0  0  0
    3.5849   -2.7021   -2.1485 H   0  0  0  0  0  0  0  0  0  0  0  0
    4.9961   -1.9441   -2.8820 H   0  0  0  0  0  0  0  0  0  0  0  0
    4.1339   -4.6022   -3.2054 H   0  0  0  0  0  0  0  0  0  0  0  0
    6.7717   -7.7730    1.1936 H   0  0  0  0  0  0  0  0  0  0  0  0
    7.6371   -6.1941    0.9479 H   0  0  0  0  0  0  0  0  0  0  0  0
    6.6765   -5.3651    3.0993 H   0  0  0  0  0  0  0  0  0  0  0  0
    0.2831   -5.1155    2.9214 H   0  0  0  0  0  0  0  0  0  0  0  0
    2.9637   -3.8213    2.6127 H   0  0  0  0  0  0  0  0  0  0  0  0
    1.4168   -3.2038    2.2152 H   0  0  0  0  0  0  0  0  0  0  0  0
    2.5135   -1.2355    5.1819 H   0  0  0  0  0  0  0  0  0  0  0  0
    1.9279   -1.1043    3.5244 H   0  0  0  0  0  0  0  0  0  0  0  0
    3.5194   -1.7841    3.8445 H   0  0  0  0  0  0  0  0  0  0  0  0
    0.4039   -2.5376    5.8282 H   0  0  0  0  0  0  0  0  0  0  0  0
   -0.1045   -3.9349    4.8889 H   0  0  0  0  0  0  0  0  0  0  0  0
   -0.1676   -2.3420    4.1643 H   0  0  0  0  0  0  0  0  0  0  0  0
    3.7310   -4.0559    4.8516 H   0  0  0  0  0  0  0  0  0  0  0  0
    2.8641   -3.4972    6.2350 H   0  0  0  0  0  0  0  0  0  0  0  0
    3.0833   -6.0202    5.8449 H   0  0  0  0  0  0  0  0  0  0  0  0
    0.5900   -4.8999    6.3424 H   0  0  0  0  0  0  0  0  0  0  0  0
   -0.6519   -9.7167    2.5374 H   0  0  0  0  0  0  0  0  0  0  0  0
   -1.4509   -8.1757    2.8757 H   0  0  0  0  0  0  0  0  0  0  0  0
   -1.4425   -9.4194    4.0611 H   0  0  0  0  0  0  0  0  0  0  0  0
    1.4690  -10.3025    4.5713 H   0  0  0  0  0  0  0  0  0  0  0  0
    0.1180   -9.8198    5.5854 H   0  0  0  0  0  0  0  0  0  0  0  0
    1.6343   -8.9916    5.7354 H   0  0  0  0  0  0  0  0  0  0  0  0
  1  2  2  0
  1 33  1  0
  1 34  1  0
  2 18  1  0
  2  3  1  0
  3  9  1  0
  3  4  1  0
  3 35  1  1
  4 27  1  0
  4  5  1  0
  4 36  1  1
  5 30  1  0
  5  6  1  0
  5 37  1  6
  6  7  1  0
  6 38  1  0
  6 39  1  0
  7  8  2  0
  7 19  1  0
  8  9  1  0
  8 40  1  0
  9 10  1  6
  9 11  1  0
 10 41  1  0
 10 42  1  0
 10 43  1  0
 11 18  1  0
 11 12  1  6
 11 17  1  0
 12 13  1  0
 12 44  1  0
 12 45  1  0
 13 14  1  0
 13 46  1  0
 13 47  1  0
 14 15  1  0
 15 16  1  0
 15 48  1  0
 15 49  1  0
 16 50  1  0
 17 18  1  0
 17 51  1  0
 17 52  1  0
 18 53  1  1
 19 27  1  0
 19 20  1  0
 19 54  1  6
 20 21  1  0
 20 55  1  0
 20 56  1  0
 21 22  1  0
 21 23  1  0
 21 24  1  0
 22 57  1  0
 22 58  1  0
 22 59  1  0
 23 60  1  0
 23 61  1  0
 23 62  1  0
 24 25  1  0
 24 63  1  0
 24 64  1  0
 25 26  1  0
 25 27  1  0
 25 65  1  1
 26 66  1  0
 27 28  1  1
 28 29  2  0
 28 30  1  0
 30 31  1  0
 30 32  1  0
 31 67  1  0
 31 68  1  0
 31 69  1  0
 32 70  1  0
 32 71  1  0
 32 72  1  0
M  END
>  <i_m_ct_stereo_status>  (301) 
1

>  <s_m_source_file>  (301) 
/var/tmp/pbs.5076255.sched01/tmpy8l6melh/117u1qm2xak.sdf

>  <i_m_source_file_index>  (301) 
17

>  <i_lp_mmshare_version>  (301) 
48012

>  <i_f3d_flags>  (301) 
0

>  <s_epik_input>  (301) 
W09IXVtDSDJdT1tDSDJdW0NIMl1bQ0BAXTEoW0NASF0oW0NIMl0xKUMyPVtDSDJdKVtDQEBdKFtDSDNdKShbQ0BIXTJbQ0BIXTNbQ0BdNDU2KVtDSF09QyhbQ0gyXVtDQEBIXTNDKEM2PU8pKFtDSDNdKVtDSDNdKVtDQEBIXTRbQ0gyXUMoW0NIM10pKFtDSDNdKVtDSDJdW0NASF01W09IXQ==

>  <s_epik_cmdline>  (301) 
J2VwaWtfcHl0aG9uJywgJy1waHQnLCAnMi4wJywgJy1waCcsICc3LjAnLCAnLXRuJywgJzgnLCAnLW1hJywgJzIwMCcsICctaW1hZScsICc8aW5maWxlLm1hZT4nLCAnLW9tYWUnLCAnPG91dGZpbGUubWFlPic=

>  <r_lp_tautomer_probability>  (301) 
1

>  <r_epik_Ionization_Penalty>  (301) 
5.9477e-07

>  <r_epik_Ionization_Penalty_Charging>  (301) 
0

>  <r_epik_Ionization_Penalty_Neutral>  (301) 
5.9477e-07

>  <r_epik_State_Penalty>  (301) 
-0

>  <r_epik_Charging_Adjusted_Penalty>  (301) 
0

>  <i_epik_Tot_Q>  (301) 
0

>  <i_epik_Tot_abs_Q>  (301) 
0

>  <s_epik_Chemistry_Notes>  (301) 
This compound contains an acetal/aminal-like group ( X-CH(R)-Y where X, Y are N, S, or O) that may be acid/base labile, releasing an aldehyde.

>  <s_lp_Force_Field>  (301) 
OPLS3e

>  <r_lp_Energy>  (301) 
134.953

>  <b_lp_Chiralities_Consistent>  (301) 
1

>  <s_lp_Variant>  (301) 
97:0-1

>  <s_i_glide_gridfile>  (301) 
pfpi4k_grid

>  <i_i_glide_lignum>  (301) 
17

>  <i_i_glide_rotatable_bonds>  (301) 
6

>  <r_i_docking_score>  (301) 
-2.58508

>  <r_i_glide_ligand_efficiency>  (301) 
-0.0807839

>  <r_i_glide_ligand_efficiency_sa>  (301) 
-0.256473

>  <r_i_glide_ligand_efficiency_ln>  (301) 
-0.578871

>  <r_i_glide_gscore>  (301) 
-2.58508

>  <r_i_glide_lipo>  (301) 
-0.359297

>  <r_i_glide_hbond>  (301) 
0

>  <r_i_glide_metal>  (301) 
-0

>  <r_i_glide_rewards>  (301) 
-0.504417

>  <r_i_glide_evdw>  (301) 
-24.6852

>  <r_i_glide_ecoul>  (301) 
-5.85455

>  <r_i_glide_erotb>  (301) 
0.411414

>  <r_i_glide_esite>  (301) 
-0.0203406

>  <r_i_glide_emodel>  (301) 
-33.3848

>  <r_i_glide_energy>  (301) 
-30.5398

>  <r_i_glide_einternal>  (301) 
3.31246

>  <r_i_glide_intrahb_reward>  (301) 
-0

>  <i_i_glide_confnum>  (301) 
1

>  <i_i_glide_posenum>  (301) 
26

>  <r_i_glide_eff_state_penalty>  (301) 
0

>  <ligand_id>  (301) 
97

>  <original_smiles>  (301) 
C=C1C2C3C4CC(=CC2(C)C2(CCOCO)CC12)C1CC(C)(C)CC(O)C13C(=O)C4(C)C

>  <smiles>  (301) 
[H]OC([H])([H])OC([H])([H])C([H])([H])C12C([H])([H])C1([H])C(=C([H])[H])C1([H])C3([H])C4([H])C([H])([H])C(=C([H])C12C([H])([H])[H])C1([H])C([H])([H])C(C([H])([H])[H])(C([H])([H])[H])C([H])([H])C([H])(O[H])C13C(=O)C4(C([H])([H])[H])C([H])([H])[H]

$$$$
97:0:1
     RDKit          3D

 72 77  0  0  1  0  0  0  0  0999 V2000
    5.8077   -7.9210    4.2619 C   0  0  0  0  0  0  0  0  0  0  0  0
    5.3830   -6.9787    3.3969 C   0  0  0  0  0  0  0  0  0  0  0  0
    3.9591   -6.6894    2.9572 C   0  0  2  0  0  0  0  0  0  0  0  0
    2.6897   -7.2911    3.6516 C   0  0  2  0  0  0  0  0  0  0  0  0
    1.6674   -8.1728    2.8275 C   0  0  2  0  0  0  0  0  0  0  0  0
    1.0727   -7.3646    1.6067 C   0  0  0  0  0  0  0  0  0  0  0  0
    1.6562   -5.9685    1.5682 C   0  0  0  0  0  0  0  0  0  0  0  0
    2.8149   -5.8613    0.8864 C   0  0  0  0  0  0  0  0  0  0  0  0
    4.0687   -6.5686    1.4169 C   0  0  2  0  0  0  0  0  0  0  0  0
    4.2046   -7.9732    0.7447 C   0  0  0  0  0  0  0  0  0  0  0  0
    5.4498   -5.8687    1.2480 C   0  0  2  0  0  0  0  0  0  0  0  0
    5.4567   -4.4733    0.6306 C   0  0  0  0  0  0  0  0  0  0  0  0
    5.0024   -4.4269   -0.8356 C   0  0  0  0  0  0  0  0  0  0  0  0
    5.4019   -3.2196   -1.4686 O   0  0  0  0  0  0  0  0  0  0  0  0
    4.5864   -2.8719   -2.5422 C   0  0  0  0  0  0  0  0  0  0  0  0
    4.5942   -3.8549   -3.5895 O   0  0  0  0  0  0  0  0  0  0  0  0
    6.7752   -6.6434    1.2380 C   0  0  0  0  0  0  0  0  0  0  0  0
    6.2169   -6.1687    2.5255 C   0  0  2  0  0  0  0  0  0  0  0  0
    1.3917   -5.2585    2.9088 C   0  0  2  0  0  0  0  0  0  0  0  0
    1.9370   -3.8157    2.9100 C   0  0  0  0  0  0  0  0  0  0  0  0
    1.8884   -3.1367    4.2810 C   0  0  0  0  0  0  0  0  0  0  0  0
    2.4918   -1.7247    4.1634 C   0  0  0  0  0  0  0  0  0  0  0  0
    0.4343   -2.9860    4.7988 C   0  0  0  0  0  0  0  0  0  0  0  0
    2.7536   -3.9844    5.2321 C   0  0  0  0  0  0  0  0  0  0  0  0
    2.2782   -5.4372    5.4355 C   0  0  1  0  0  0  0  0  0  0  0  0
    1.4112   -5.3725    6.5630 O   0  0  0  0  0  0  0  0  0  0  0  0
    1.7086   -6.1767    4.1617 C   0  0  2  0  0  0  0  0  0  0  0  0
    0.4610   -7.0500    4.4582 C   0  0  0  0  0  0  0  0  0  0  0  0
   -0.5663   -6.6367    5.0193 O   0  0  0  0  0  0  0  0  0  0  0  0
    0.5618   -8.4546    3.8874 C   0  0  0  0  0  0  0  0  0  0  0  0
   -0.7660   -8.9876    3.2976 C   0  0  0  0  0  0  0  0  0  0  0  0
    1.0399   -9.4425    4.9843 C   0  0  0  0  0  0  0  0  0  0  0  0
    6.8788   -8.0389    4.4001 H   0  0  0  0  0  0  0  0  0  0  0  0
    5.1521   -8.5732    4.8133 H   0  0  0  0  0  0  0  0  0  0  0  0
    3.9460   -5.6498    3.2899 H   0  0  0  0  0  0  0  0  0  0  0  0
    3.0577   -7.8621    4.5057 H   0  0  0  0  0  0  0  0  0  0  0  0
    2.1244   -9.1053    2.4948 H   0  0  0  0  0  0  0  0  0  0  0  0
    1.2382   -7.8875    0.6697 H   0  0  0  0  0  0  0  0  0  0  0  0
   -0.0094   -7.2436    1.6372 H   0  0  0  0  0  0  0  0  0  0  0  0
    2.7137   -6.2551   -0.1139 H   0  0  0  0  0  0  0  0  0  0  0  0
    4.8333   -8.6483    1.3211 H   0  0  0  0  0  0  0  0  0  0  0  0
    4.6158   -7.8744   -0.2588 H   0  0  0  0  0  0  0  0  0  0  0  0
    3.2716   -8.5089    0.6391 H   0  0  0  0  0  0  0  0  0  0  0  0
    4.8840   -3.7838    1.2471 H   0  0  0  0  0  0  0  0  0  0  0  0
    6.4891   -4.1211    0.6648 H   0  0  0  0  0  0  0  0  0  0  0  0
    5.4147   -5.2691   -1.3864 H   0  0  0  0  0  0  0  0  0  0  0  0
    3.9198   -4.5046   -0.8922 H   0  0  0  0  0  0  0  0  0  0  0  0
    3.5514   -2.7129   -2.2282 H   0  0  0  0  0  0  0  0  0  0  0  0
    4.9533   -1.9372   -2.9613 H   0  0  0  0  0  0  0  0  0  0  0  0
    4.1359   -4.6100   -3.2721 H   0  0  0  0  0  0  0  0  0  0  0  0
    6.8045   -7.7277    1.1300 H   0  0  0  0  0  0  0  0  0  0  0  0
    7.6545   -6.1427    0.8717 H   0  0  0  0  0  0  0  0  0  0  0  0
    6.7021   -5.3127    3.0299 H   0  0  0  0  0  0  0  0  0  0  0  0
    0.3038   -5.1238    2.8997 H   0  0  0  0  0  0  0  0  0  0  0  0
    2.9722   -3.8095    2.5655 H   0  0  0  0  0  0  0  0  0  0  0  0
    1.4195   -3.2066    2.1778 H   0  0  0  0  0  0  0  0  0  0  0  0
    2.5151   -1.2219    5.1307 H   0  0  0  0  0  0  0  0  0  0  0  0
    1.9166   -1.1005    3.4779 H   0  0  0  0  0  0  0  0  0  0  0  0
    3.5167   -1.7637    3.7873 H   0  0  0  0  0  0  0  0  0  0  0  0
    0.4243   -2.5448    5.7966 H   0  0  0  0  0  0  0  0  0  0  0  0
   -0.0717   -3.9507    4.8750 H   0  0  0  0  0  0  0  0  0  0  0  0
   -0.1669   -2.3606    4.1369 H   0  0  0  0  0  0  0  0  0  0  0  0
    3.7576   -4.0304    4.8003 H   0  0  0  0  0  0  0  0  0  0  0  0
    2.8885   -3.4813    6.1875 H   0  0  0  0  0  0  0  0  0  0  0  0
    3.1398   -5.9998    5.7958 H   0  0  0  0  0  0  0  0  0  0  0  0
    1.1980   -6.2427    6.8353 H   0  0  0  0  0  0  0  0  0  0  0  0
   -0.5908   -9.7421    2.5314 H   0  0  0  0  0  0  0  0  0  0  0  0
   -1.4011   -8.2096    2.8728 H   0  0  0  0  0  0  0  0  0  0  0  0
   -1.3804   -9.4506    4.0618 H   0  0  0  0  0  0  0  0  0  0  0  0
    1.5534  -10.2998    4.5503 H   0  0  0  0  0  0  0  0  0  0  0  0
    0.2054   -9.8269    5.5732 H   0  0  0  0  0  0  0  0  0  0  0  0
    1.7155   -8.9841    5.7088 H   0  0  0  0  0  0  0  0  0  0  0  0
  1  2  2  0
  1 33  1  0
  1 34  1  0
  2 18  1  0
  2  3  1  0
  3  9  1  0
  3  4  1  0
  3 35  1  1
  4 27  1  0
  4  5  1  0
  4 36  1  1
  5 30  1  0
  5  6  1  0
  5 37  1  6
  6  7  1  0
  6 38  1  0
  6 39  1  0
  7  8  2  0
  7 19  1  0
  8  9  1  0
  8 40  1  0
  9 10  1  6
  9 11  1  0
 10 41  1  0
 10 42  1  0
 10 43  1  0
 11 18  1  0
 11 12  1  6
 11 17  1  0
 12 13  1  0
 12 44  1  0
 12 45  1  0
 13 14  1  0
 13 46  1  0
 13 47  1  0
 14 15  1  0
 15 16  1  0
 15 48  1  0
 15 49  1  0
 16 50  1  0
 17 18  1  0
 17 51  1  0
 17 52  1  0
 18 53  1  1
 19 27  1  0
 19 20  1  0
 19 54  1  6
 20 21  1  0
 20 55  1  0
 20 56  1  0
 21 22  1  0
 21 23  1  0
 21 24  1  0
 22 57  1  0
 22 58  1  0
 22 59  1  0
 23 60  1  0
 23 61  1  0
 23 62  1  0
 24 25  1  0
 24 63  1  0
 24 64  1  0
 25 26  1  0
 25 27  1  0
 25 65  1  1
 26 66  1  0
 27 28  1  1
 28 29  2  0
 28 30  1  0
 30 31  1  0
 30 32  1  0
 31 67  1  0
 31 68  1  0
 31 69  1  0
 32 70  1  0
 32 71  1  0
 32 72  1  0
M  END
>  <i_m_ct_stereo_status>  (302) 
1

>  <s_m_source_file>  (302) 
/var/tmp/pbs.5076255.sched01/tmpy8l6melh/117u1qm2xak.sdf

>  <i_m_source_file_index>  (302) 
17

>  <i_lp_mmshare_version>  (302) 
48012

>  <i_f3d_flags>  (302) 
0

>  <s_epik_input>  (302) 
W09IXVtDSDJdT1tDSDJdW0NIMl1bQ0BAXTEoW0NASF0oW0NIMl0xKUMyPVtDSDJdKVtDQEBdKFtDSDNdKShbQ0BIXTJbQ0BIXTNbQ0BdNDU2KVtDSF09QyhbQ0gyXVtDQEBIXTNDKEM2PU8pKFtDSDNdKVtDSDNdKVtDQEBIXTRbQ0gyXUMoW0NIM10pKFtDSDNdKVtDSDJdW0NASF01W09IXQ==

>  <s_epik_cmdline>  (302) 
J2VwaWtfcHl0aG9uJywgJy1waHQnLCAnMi4wJywgJy1waCcsICc3LjAnLCAnLXRuJywgJzgnLCAnLW1hJywgJzIwMCcsICctaW1hZScsICc8aW5maWxlLm1hZT4nLCAnLW9tYWUnLCAnPG91dGZpbGUubWFlPic=

>  <r_lp_tautomer_probability>  (302) 
1

>  <r_epik_Ionization_Penalty>  (302) 
5.9477e-07

>  <r_epik_Ionization_Penalty_Charging>  (302) 
0

>  <r_epik_Ionization_Penalty_Neutral>  (302) 
5.9477e-07

>  <r_epik_State_Penalty>  (302) 
-0

>  <r_epik_Charging_Adjusted_Penalty>  (302) 
0

>  <i_epik_Tot_Q>  (302) 
0

>  <i_epik_Tot_abs_Q>  (302) 
0

>  <s_epik_Chemistry_Notes>  (302) 
This compound contains an acetal/aminal-like group ( X-CH(R)-Y where X, Y are N, S, or O) that may be acid/base labile, releasing an aldehyde.

>  <s_lp_Force_Field>  (302) 
OPLS3e

>  <r_lp_Energy>  (302) 
134.953

>  <b_lp_Chiralities_Consistent>  (302) 
1

>  <s_lp_Variant>  (302) 
97:0-1

>  <s_i_glide_gridfile>  (302) 
pfpi4k_grid

>  <i_i_glide_lignum>  (302) 
17

>  <i_i_glide_rotatable_bonds>  (302) 
6

>  <r_i_docking_score>  (302) 
-2.57692

>  <r_i_glide_ligand_efficiency>  (302) 
-0.0805287

>  <r_i_glide_ligand_efficiency_sa>  (302) 
-0.255663

>  <r_i_glide_ligand_efficiency_ln>  (302) 
-0.577042

>  <r_i_glide_gscore>  (302) 
-2.57692

>  <r_i_glide_lipo>  (302) 
-0.3591

>  <r_i_glide_hbond>  (302) 
0

>  <r_i_glide_metal>  (302) 
-0

>  <r_i_glide_rewards>  (302) 
-0.509415

>  <r_i_glide_evdw>  (302) 
-24.6904

>  <r_i_glide_ecoul>  (302) 
-5.77017

>  <r_i_glide_erotb>  (302) 
0.411414

>  <r_i_glide_esite>  (302) 
-0.0197687

>  <r_i_glide_emodel>  (302) 
-33.1684

>  <r_i_glide_energy>  (302) 
-30.4606

>  <r_i_glide_einternal>  (302) 
3.55677

>  <r_i_glide_intrahb_reward>  (302) 
-0

>  <i_i_glide_confnum>  (302) 
1

>  <i_i_glide_posenum>  (302) 
1

>  <r_i_glide_eff_state_penalty>  (302) 
0

>  <ligand_id>  (302) 
97

>  <original_smiles>  (302) 
C=C1C2C3C4CC(=CC2(C)C2(CCOCO)CC12)C1CC(C)(C)CC(O)C13C(=O)C4(C)C

>  <smiles>  (302) 
[H]OC([H])([H])OC([H])([H])C([H])([H])C12C([H])([H])C1([H])C(=C([H])[H])C1([H])C3([H])C4([H])C([H])([H])C(=C([H])C12C([H])([H])[H])C1([H])C([H])([H])C(C([H])([H])[H])(C([H])([H])[H])C([H])([H])C([H])(O[H])C13C(=O)C4(C([H])([H])[H])C([H])([H])[H]

$$$$
97:0:2
     RDKit          3D

 72 77  0  0  1  0  0  0  0  0999 V2000
    6.5245   -6.8906    3.7858 C   0  0  0  0  0  0  0  0  0  0  0  0
    5.6673   -6.1425    3.0843 C   0  0  0  0  0  0  0  0  0  0  0  0
    4.1613   -6.2924    2.9672 C   0  0  2  0  0  0  0  0  0  0  0  0
    3.2939   -7.1995    3.9261 C   0  0  2  0  0  0  0  0  0  0  0  0
    2.4130   -8.3722    3.3384 C   0  0  2  0  0  0  0  0  0  0  0  0
    1.3611   -7.8100    2.3020 C   0  0  0  0  0  0  0  0  0  0  0  0
    1.4875   -6.3021    2.1649 C   0  0  0  0  0  0  0  0  0  0  0  0
    2.3791   -5.8956    1.2386 C   0  0  0  0  0  0  0  0  0  0  0  0
    3.8684   -6.1985    1.4521 C   0  0  2  0  0  0  0  0  0  0  0  0
    4.2343   -7.5335    0.7309 C   0  0  0  0  0  0  0  0  0  0  0  0
    4.9211   -5.1566    0.9941 C   0  0  2  0  0  0  0  0  0  0  0  0
    4.3960   -3.8445    0.4361 C   0  0  0  0  0  0  0  0  0  0  0  0
    3.8350   -3.9747   -0.9832 C   0  0  0  0  0  0  0  0  0  0  0  0
    3.6989   -2.6935   -1.5823 O   0  0  0  0  0  0  0  0  0  0  0  0
    2.9235   -2.7019   -2.7446 C   0  0  0  0  0  0  0  0  0  0  0  0
    3.5059   -3.4768   -3.8028 O   0  0  0  0  0  0  0  0  0  0  0  0
    6.3791   -5.5226    0.6561 C   0  0  0  0  0  0  0  0  0  0  0  0
    6.0201   -5.1774    2.0480 C   0  0  2  0  0  0  0  0  0  0  0  0
    1.3503   -5.6503    3.5583 C   0  0  2  0  0  0  0  0  0  0  0  0
    1.4430   -4.1162    3.4752 C   0  0  0  0  0  0  0  0  0  0  0  0
    1.5296   -3.4249    4.8376 C   0  0  0  0  0  0  0  0  0  0  0  0
    1.6579   -1.9049    4.6273 C   0  0  0  0  0  0  0  0  0  0  0  0
    0.2543   -3.6658    5.6844 C   0  0  0  0  0  0  0  0  0  0  0  0
    2.7869   -3.9559    5.5477 C   0  0  0  0  0  0  0  0  0  0  0  0
    2.8013   -5.4765    5.8067 C   0  0  1  0  0  0  0  0  0  0  0  0
    2.2419   -5.6060    7.1027 O   0  0  0  0  0  0  0  0  0  0  0  0
    2.1865   -6.3876    4.6775 C   0  0  2  0  0  0  0  0  0  0  0  0
    1.3422   -7.5650    5.2382 C   0  0  0  0  0  0  0  0  0  0  0  0
    0.4281   -7.4427    6.0345 O   0  0  0  0  0  0  0  0  0  0  0  0
    1.7058   -8.9085    4.6196 C   0  0  0  0  0  0  0  0  0  0  0  0
    0.4896   -9.8264    4.3530 C   0  0  0  0  0  0  0  0  0  0  0  0
    2.6848   -9.6742    5.5472 C   0  0  0  0  0  0  0  0  0  0  0  0
    7.5865   -6.7073    3.6732 H   0  0  0  0  0  0  0  0  0  0  0  0
    6.2302   -7.6924    4.4598 H   0  0  0  0  0  0  0  0  0  0  0  0
    3.9276   -5.2946    3.3298 H   0  0  0  0  0  0  0  0  0  0  0  0
    3.9965   -7.6066    4.6526 H   0  0  0  0  0  0  0  0  0  0  0  0
    3.0332   -9.1476    2.8841 H   0  0  0  0  0  0  0  0  0  0  0  0
    1.4441   -8.3037    1.3338 H   0  0  0  0  0  0  0  0  0  0  0  0
    0.3272   -7.9972    2.5885 H   0  0  0  0  0  0  0  0  0  0  0  0
    2.1895   -6.3491    0.2760 H   0  0  0  0  0  0  0  0  0  0  0  0
    5.1297   -7.9979    1.1436 H   0  0  0  0  0  0  0  0  0  0  0  0
    4.4067   -7.3608   -0.3316 H   0  0  0  0  0  0  0  0  0  0  0  0
    3.4730   -8.3029    0.8029 H   0  0  0  0  0  0  0  0  0  0  0  0
    3.6725   -3.3925    1.1098 H   0  0  0  0  0  0  0  0  0  0  0  0
    5.2387   -3.1537    0.3905 H   0  0  0  0  0  0  0  0  0  0  0  0
    4.5111   -4.5821   -1.5878 H   0  0  0  0  0  0  0  0  0  0  0  0
    2.8681   -4.4736   -0.9456 H   0  0  0  0  0  0  0  0  0  0  0  0
    1.9081   -3.0694   -2.5538 H   0  0  0  0  0  0  0  0  0  0  0  0
    2.8256   -1.6753   -3.1020 H   0  0  0  0  0  0  0  0  0  0  0  0
    3.4298   -4.3847   -3.5299 H   0  0  0  0  0  0  0  0  0  0  0  0
    6.6800   -6.5521    0.5237 H   0  0  0  0  0  0  0  0  0  0  0  0
    6.9666   -4.7986    0.1126 H   0  0  0  0  0  0  0  0  0  0  0  0
    6.3214   -4.2158    2.4574 H   0  0  0  0  0  0  0  0  0  0  0  0
    0.2907   -5.8293    3.7821 H   0  0  0  0  0  0  0  0  0  0  0  0
    2.3273   -3.8319    2.9084 H   0  0  0  0  0  0  0  0  0  0  0  0
    0.6138   -3.7075    2.9032 H   0  0  0  0  0  0  0  0  0  0  0  0
    1.7585   -1.3772    5.5768 H   0  0  0  0  0  0  0  0  0  0  0  0
    0.7887   -1.4961    4.1093 H   0  0  0  0  0  0  0  0  0  0  0  0
    2.5359   -1.6674    4.0252 H   0  0  0  0  0  0  0  0  0  0  0  0
    0.3447   -3.2123    6.6746 H   0  0  0  0  0  0  0  0  0  0  0  0
    0.0663   -4.7319    5.8483 H   0  0  0  0  0  0  0  0  0  0  0  0
   -0.6322   -3.2561    5.2005 H   0  0  0  0  0  0  0  0  0  0  0  0
    3.6328   -3.7329    4.8930 H   0  0  0  0  0  0  0  0  0  0  0  0
    2.9905   -3.3958    6.4584 H   0  0  0  0  0  0  0  0  0  0  0  0
    3.8455   -5.7583    5.9420 H   0  0  0  0  0  0  0  0  0  0  0  0
    2.2791   -6.5072    7.3716 H   0  0  0  0  0  0  0  0  0  0  0  0
    0.6896  -10.5305    3.5445 H   0  0  0  0  0  0  0  0  0  0  0  0
   -0.4183   -9.2789    4.1020 H   0  0  0  0  0  0  0  0  0  0  0  0
    0.2230  -10.4154    5.2306 H   0  0  0  0  0  0  0  0  0  0  0  0
    3.3085  -10.3697    4.9832 H   0  0  0  0  0  0  0  0  0  0  0  0
    2.1559  -10.2563    6.3041 H   0  0  0  0  0  0  0  0  0  0  0  0
    3.3497   -9.0152    6.1087 H   0  0  0  0  0  0  0  0  0  0  0  0
  1  2  2  0
  1 33  1  0
  1 34  1  0
  2 18  1  0
  2  3  1  0
  3  9  1  0
  3  4  1  0
  3 35  1  1
  4 27  1  0
  4  5  1  0
  4 36  1  1
  5 30  1  0
  5  6  1  0
  5 37  1  6
  6  7  1  0
  6 38  1  0
  6 39  1  0
  7  8  2  0
  7 19  1  0
  8  9  1  0
  8 40  1  0
  9 10  1  6
  9 11  1  0
 10 41  1  0
 10 42  1  0
 10 43  1  0
 11 18  1  0
 11 12  1  6
 11 17  1  0
 12 13  1  0
 12 44  1  0
 12 45  1  0
 13 14  1  0
 13 46  1  0
 13 47  1  0
 14 15  1  0
 15 16  1  0
 15 48  1  0
 15 49  1  0
 16 50  1  0
 17 18  1  0
 17 51  1  0
 17 52  1  0
 18 53  1  1
 19 27  1  0
 19 20  1  0
 19 54  1  1
 20 21  1  0
 20 55  1  0
 20 56  1  0
 21 22  1  0
 21 23  1  0
 21 24  1  0
 22 57  1  0
 22 58  1  0
 22 59  1  0
 23 60  1  0
 23 61  1  0
 23 62  1  0
 24 25  1  0
 24 63  1  0
 24 64  1  0
 25 26  1  0
 25 27  1  0
 25 65  1  1
 26 66  1  0
 27 28  1  1
 28 29  2  0
 28 30  1  0
 30 31  1  0
 30 32  1  0
 31 67  1  0
 31 68  1  0
 31 69  1  0
 32 70  1  0
 32 71  1  0
 32 72  1  0
M  END
>  <i_m_ct_stereo_status>  (303) 
1

>  <s_m_source_file>  (303) 
/var/tmp/pbs.5076255.sched01/tmpy8l6melh/117u1qm2xak.sdf

>  <i_m_source_file_index>  (303) 
17

>  <i_lp_mmshare_version>  (303) 
48012

>  <i_f3d_flags>  (303) 
0

>  <s_epik_input>  (303) 
W09IXVtDSDJdT1tDSDJdW0NIMl1bQ0BAXTEoW0NASF0oW0NIMl0xKUMyPVtDSDJdKVtDQEBdKFtDSDNdKShbQ0BIXTJbQ0BIXTNbQ0BdNDU2KVtDSF09QyhbQ0gyXVtDQEBIXTNDKEM2PU8pKFtDSDNdKVtDSDNdKVtDQEBIXTRbQ0gyXUMoW0NIM10pKFtDSDNdKVtDSDJdW0NASF01W09IXQ==

>  <s_epik_cmdline>  (303) 
J2VwaWtfcHl0aG9uJywgJy1waHQnLCAnMi4wJywgJy1waCcsICc3LjAnLCAnLXRuJywgJzgnLCAnLW1hJywgJzIwMCcsICctaW1hZScsICc8aW5maWxlLm1hZT4nLCAnLW9tYWUnLCAnPG91dGZpbGUubWFlPic=

>  <r_lp_tautomer_probability>  (303) 
1

>  <r_epik_Ionization_Penalty>  (303) 
5.9477e-07

>  <r_epik_Ionization_Penalty_Charging>  (303) 
0

>  <r_epik_Ionization_Penalty_Neutral>  (303) 
5.9477e-07

>  <r_epik_State_Penalty>  (303) 
-0

>  <r_epik_Charging_Adjusted_Penalty>  (303) 
0

>  <i_epik_Tot_Q>  (303) 
0

>  <i_epik_Tot_abs_Q>  (303) 
0

>  <s_epik_Chemistry_Notes>  (303) 
This compound contains an acetal/aminal-like group ( X-CH(R)-Y where X, Y are N, S, or O) that may be acid/base labile, releasing an aldehyde.

>  <s_lp_Force_Field>  (303) 
OPLS3e

>  <r_lp_Energy>  (303) 
134.953

>  <b_lp_Chiralities_Consistent>  (303) 
1

>  <s_lp_Variant>  (303) 
97:0-1

>  <s_i_glide_gridfile>  (303) 
pfpi4k_grid

>  <i_i_glide_lignum>  (303) 
17

>  <i_i_glide_rotatable_bonds>  (303) 
6

>  <r_i_docking_score>  (303) 
-2.52244

>  <r_i_glide_ligand_efficiency>  (303) 
-0.0788262

>  <r_i_glide_ligand_efficiency_sa>  (303) 
-0.250258

>  <r_i_glide_ligand_efficiency_ln>  (303) 
-0.564843

>  <r_i_glide_gscore>  (303) 
-2.52244

>  <r_i_glide_lipo>  (303) 
-0.406557

>  <r_i_glide_hbond>  (303) 
0

>  <r_i_glide_metal>  (303) 
-0

>  <r_i_glide_rewards>  (303) 
-0.404899

>  <r_i_glide_evdw>  (303) 
-23.7927

>  <r_i_glide_ecoul>  (303) 
-6.01895

>  <r_i_glide_erotb>  (303) 
0.411414

>  <r_i_glide_esite>  (303) 
-0.0299186

>  <r_i_glide_emodel>  (303) 
-33.7551

>  <r_i_glide_energy>  (303) 
-29.8116

>  <r_i_glide_einternal>  (303) 
1.22901

>  <r_i_glide_intrahb_reward>  (303) 
-0

>  <i_i_glide_confnum>  (303) 
1

>  <i_i_glide_posenum>  (303) 
19

>  <r_i_glide_eff_state_penalty>  (303) 
0

>  <ligand_id>  (303) 
97

>  <original_smiles>  (303) 
C=C1C2C3C4CC(=CC2(C)C2(CCOCO)CC12)C1CC(C)(C)CC(O)C13C(=O)C4(C)C

>  <smiles>  (303) 
[H]OC([H])([H])OC([H])([H])C([H])([H])C12C([H])([H])C1([H])C(=C([H])[H])C1([H])C3([H])C4([H])C([H])([H])C(=C([H])C12C([H])([H])[H])C1([H])C([H])([H])C(C([H])([H])[H])(C([H])([H])[H])C([H])([H])C([H])(O[H])C13C(=O)C4(C([H])([H])[H])C([H])([H])[H]

$$$$
98:0:0
     RDKit          3D

 62 67  0  0  1  0  0  0  0  0999 V2000
    5.9876   -7.1752    3.2945 C   0  0  0  0  0  0  0  0  0  0  0  0
    4.8102   -6.5483    3.1090 C   0  0  0  0  0  0  0  0  0  0  0  0
    4.4656   -5.1787    2.3746 C   0  0  2  0  0  0  0  0  0  0  0  0
    3.3535   -4.3078    3.0761 O   0  0  0  0  0  0  0  0  0  0  0  0
    2.3866   -5.1379    3.7798 C   0  0  2  0  0  0  0  0  0  0  0  0
    1.7559   -5.7350    2.4935 C   0  0  0  0  0  0  0  0  0  0  0  0
    2.8480   -6.6022    2.0918 C   0  0  1  0  0  0  0  0  0  0  0  0
    3.8049   -5.8017    1.1724 C   0  0  0  0  0  0  0  0  0  0  0  0
    3.2286   -4.7533    0.1807 C   0  0  0  0  0  0  0  0  0  0  0  0
    4.7185   -6.7165    0.3124 C   0  0  0  0  0  0  0  0  0  0  0  0
    3.4477   -6.9142    3.5568 C   0  0  1  0  0  0  0  0  0  0  0  0
    2.4865   -8.0582    4.0189 C   0  0  0  0  0  0  0  0  0  0  0  0
    2.8303   -9.4285    3.7187 N   0  0  0  0  0  0  0  0  0  0  0  0
    2.4482  -10.5467    4.4347 C   0  0  0  0  0  0  0  0  0  0  0  0
    2.9721  -11.6311    3.8337 C   0  0  0  0  0  0  0  0  0  0  0  0
    3.7857  -11.1756    2.8134 N   0  0  0  0  0  0  0  0  0  0  0  0
    3.6848   -9.8115    2.7470 C   0  0  0  0  0  0  0  0  0  0  0  0
    1.2679   -7.6555    4.5772 C   0  0  0  0  0  0  0  0  0  0  0  0
   -0.1417   -8.2902    4.6787 C   0  0  1  0  0  0  0  0  0  0  0  0
   -0.5410   -9.2770    3.5730 C   0  0  0  0  0  0  0  0  0  0  0  0
   -0.5612   -8.7016    5.9997 O   0  0  0  0  0  0  0  0  0  0  0  0
    0.0846   -9.8249    6.6025 C   0  0  0  0  0  0  0  0  0  0  0  0
   -0.6483   -6.8267    4.4323 C   0  0  0  0  0  0  0  0  0  0  0  0
    0.6244   -6.1785    5.0283 C   0  0  1  0  0  0  0  0  0  0  0  0
    0.3102   -5.8290    6.5049 C   0  0  0  0  0  0  0  0  0  0  0  0
    1.2033   -4.8952    4.4885 O   0  0  0  0  0  0  0  0  0  0  0  0
    3.3985   -5.8606    4.7102 C   0  0  0  0  0  0  0  0  0  0  0  0
    4.5932   -4.8676    5.1783 C   0  0  0  0  0  0  0  0  0  0  0  0
    3.2065   -6.3759    6.2141 C   0  0  0  0  0  0  0  0  0  0  0  0
    6.0309   -8.1082    3.8325 H   0  0  0  0  0  0  0  0  0  0  0  0
    6.9026   -6.7666    2.8899 H   0  0  0  0  0  0  0  0  0  0  0  0
    5.3434   -4.5855    2.1070 H   0  0  0  0  0  0  0  0  0  0  0  0
    0.8855   -6.3476    2.5693 H   0  0  0  0  0  0  0  0  0  0  0  0
    1.4370   -4.9484    1.8249 H   0  0  0  0  0  0  0  0  0  0  0  0
    2.4797   -7.4856    1.5692 H   0  0  0  0  0  0  0  0  0  0  0  0
    2.4333   -5.1835   -0.4281 H   0  0  0  0  0  0  0  0  0  0  0  0
    3.9994   -4.4048   -0.5078 H   0  0  0  0  0  0  0  0  0  0  0  0
    2.8411   -3.8540    0.6587 H   0  0  0  0  0  0  0  0  0  0  0  0
    4.2140   -7.0409   -0.5937 H   0  0  0  0  0  0  0  0  0  0  0  0
    5.0491   -7.6251    0.8044 H   0  0  0  0  0  0  0  0  0  0  0  0
    5.6097   -6.1830   -0.0097 H   0  0  0  0  0  0  0  0  0  0  0  0
    1.9229  -10.5965    5.3191 H   0  0  0  0  0  0  0  0  0  0  0  0
    2.8581  -12.6667    4.1150 H   0  0  0  0  0  0  0  0  0  0  0  0
    4.2050   -9.1854    1.9985 H   0  0  0  0  0  0  0  0  0  0  0  0
   -0.1998   -8.9454    2.5890 H   0  0  0  0  0  0  0  0  0  0  0  0
   -1.6288   -9.3292    3.5235 H   0  0  0  0  0  0  0  0  0  0  0  0
   -0.1873  -10.2928    3.7276 H   0  0  0  0  0  0  0  0  0  0  0  0
   -0.2986  -10.2046    7.5453 H   0  0  0  0  0  0  0  0  0  0  0  0
    1.1184   -9.5645    6.8309 H   0  0  0  0  0  0  0  0  0  0  0  0
    0.0049  -10.6963    5.9588 H   0  0  0  0  0  0  0  0  0  0  0  0
   -0.8920   -6.5902    3.3973 H   0  0  0  0  0  0  0  0  0  0  0  0
   -1.5468   -6.6215    5.0150 H   0  0  0  0  0  0  0  0  0  0  0  0
    0.2116   -6.7017    7.1517 H   0  0  0  0  0  0  0  0  0  0  0  0
   -0.6410   -5.2976    6.5732 H   0  0  0  0  0  0  0  0  0  0  0  0
    1.0120   -5.1302    6.9567 H   0  0  0  0  0  0  0  0  0  0  0  0
    5.3942   -5.3954    5.6937 H   0  0  0  0  0  0  0  0  0  0  0  0
    4.2328   -4.1119    5.8761 H   0  0  0  0  0  0  0  0  0  0  0  0
    5.1487   -4.2648    4.4642 H   0  0  0  0  0  0  0  0  0  0  0  0
    4.1242   -6.8590    6.5469 H   0  0  0  0  0  0  0  0  0  0  0  0
    2.4878   -7.1294    6.5012 H   0  0  0  0  0  0  0  0  0  0  0  0
    3.0629   -5.5561    6.9176 H   0  0  0  0  0  0  0  0  0  0  0  0
    4.2358  -11.7762    2.1205 H   0  0  0  0  0  0  0  0  0  0  0  0
  1  2  2  0
  1 30  1  0
  1 31  1  0
  2 11  1  0
  2  3  1  0
  3  8  1  0
  3  4  1  0
  3 32  1  6
  4  5  1  0
  5 26  1  1
  5 27  1  0
  5  6  1  0
  6  7  1  0
  6 33  1  0
  6 34  1  0
  7  8  1  0
  7 11  1  0
  7 35  1  6
  8  9  1  0
  8 10  1  0
  9 36  1  0
  9 37  1  0
  9 38  1  0
 10 39  1  0
 10 40  1  0
 10 41  1  0
 11 12  1  1
 11 27  1  0
 12 13  1  0
 12 18  2  0
 13 17  1  0
 13 14  1  0
 14 15  2  0
 14 42  1  0
 15 16  1  0
 15 43  1  0
 16 17  2  0
 16 62  1  0
 17 44  1  0
 18 24  1  0
 18 19  1  0
 19 20  1  0
 19 21  1  1
 19 23  1  0
 20 45  1  0
 20 46  1  0
 20 47  1  0
 21 22  1  0
 22 48  1  0
 22 49  1  0
 22 50  1  0
 23 24  1  0
 23 51  1  0
 23 52  1  0
 24 25  1  1
 24 26  1  0
 25 53  1  0
 25 54  1  0
 25 55  1  0
 27 28  1  0
 27 29  1  0
 28 56  1  0
 28 57  1  0
 28 58  1  0
 29 59  1  0
 29 60  1  0
 29 61  1  0
M  CHG  1  16   1
M  END
>  <i_m_ct_stereo_status>  (304) 
1

>  <s_m_source_file>  (304) 
/var/tmp/pbs.5076255.sched01/tmpy8l6melh/117u1qm2xak.sdf

>  <i_m_source_file_index>  (304) 
18

>  <i_lp_mmshare_version>  (304) 
48012

>  <i_f3d_flags>  (304) 
0

>  <s_epik_input>  (304) 
W0NAQF0xMjNPW0NASF00Qyg9W0NIMl0pQyhDMyhbQ0gzXSlbQ0gzXSkoW0NAQEhdKFtDSDJdMSlDNChbQ0gzXSlbQ0gzXSlDKG41W2NIXVtjSF1uW2NIXTUpPUM2W0NAXShPMikoW0NIM10pW0NIMl1bQ0BdNihbQ0gzXSlPW0NIM10=

>  <s_epik_cmdline>  (304) 
J2VwaWtfcHl0aG9uJywgJy1waHQnLCAnMi4wJywgJy1waCcsICc3LjAnLCAnLXRuJywgJzgnLCAnLW1hJywgJzIwMCcsICctaW1hZScsICc8aW5maWxlLm1hZT4nLCAnLW9tYWUnLCAnPG91dGZpbGUubWFlPic=

>  <r_epik_Ionization_Penalty>  (304) 
0.142201

>  <r_epik_Ionization_Penalty_Charging>  (304) 
0

>  <r_epik_Ionization_Penalty_Neutral>  (304) 
0.142201

>  <r_epik_State_Penalty>  (304) 
0.131511

>  <r_epik_Charging_Adjusted_Penalty>  (304) 
0.131511

>  <i_epik_Tot_Q>  (304) 
1

>  <i_epik_Tot_abs_Q>  (304) 
1

>  <s_lp_Force_Field>  (304) 
OPLS3e

>  <r_lp_Energy>  (304) 
277.306

>  <b_lp_Chiralities_Consistent>  (304) 
1

>  <s_lp_Variant>  (304) 
98:0-1

>  <s_i_glide_gridfile>  (304) 
pfpi4k_grid

>  <i_i_glide_lignum>  (304) 
18

>  <i_i_glide_rotatable_bonds>  (304) 
2

>  <r_i_docking_score>  (304) 
-2.67798

>  <r_i_glide_ligand_efficiency>  (304) 
-0.0923442

>  <r_i_glide_ligand_efficiency_sa>  (304) 
-0.283711

>  <r_i_glide_ligand_efficiency_ln>  (304) 
-0.61319

>  <r_i_glide_gscore>  (304) 
-2.67798

>  <r_i_glide_lipo>  (304) 
-0.161115

>  <r_i_glide_hbond>  (304) 
-0.151392

>  <r_i_glide_metal>  (304) 
-0

>  <r_i_glide_rewards>  (304) 
-0.698656

>  <r_i_glide_evdw>  (304) 
-18.4963

>  <r_i_glide_ecoul>  (304) 
-4.83251

>  <r_i_glide_erotb>  (304) 
0.123873

>  <r_i_glide_esite>  (304) 
-0.140998

>  <r_i_glide_emodel>  (304) 
-26.7001

>  <r_i_glide_energy>  (304) 
-23.3289

>  <r_i_glide_einternal>  (304) 
1.06742

>  <r_i_glide_intrahb_reward>  (304) 
-0

>  <i_i_glide_confnum>  (304) 
3

>  <i_i_glide_posenum>  (304) 
1

>  <r_i_glide_eff_state_penalty>  (304) 
0

>  <ligand_id>  (304) 
98

>  <original_smiles>  (304) 
C=C1C2OC34CC(C2(C)C)C1(C(n1ccnc1)=C1C(C)(OC)CC1(C)O3)C4(C)C

>  <smiles>  (304) 
[H]C([H])=C1C2([H])OC34OC5(C([H])([H])[H])C(=C(n6c([H])c([H])[n+]([H])c6[H])C1(C([H])(C3([H])[H])C2(C([H])([H])[H])C([H])([H])[H])C4(C([H])([H])[H])C([H])([H])[H])C(OC([H])([H])[H])(C([H])([H])[H])C5([H])[H]

$$$$
98:0:1
     RDKit          3D

 62 67  0  0  1  0  0  0  0  0999 V2000
    5.4144   -5.4076    4.5692 C   0  0  0  0  0  0  0  0  0  0  0  0
    4.0916   -5.3465    4.7539 C   0  0  0  0  0  0  0  0  0  0  0  0
    3.1485   -4.1001    5.1153 C   0  0  2  0  0  0  0  0  0  0  0  0
    1.9838   -4.4160    6.1248 O   0  0  0  0  0  0  0  0  0  0  0  0
    1.5211   -5.7914    5.9972 C   0  0  2  0  0  0  0  0  0  0  0  0
    0.8847   -5.5953    4.5938 C   0  0  0  0  0  0  0  0  0  0  0  0
    2.0963   -5.4847    3.8045 C   0  0  1  0  0  0  0  0  0  0  0  0
    2.5129   -3.9851    3.7549 C   0  0  0  0  0  0  0  0  0  0  0  0
    1.4258   -2.8775    3.6933 C   0  0  0  0  0  0  0  0  0  0  0  0
    3.4776   -3.6654    2.5795 C   0  0  0  0  0  0  0  0  0  0  0  0
    3.0505   -6.4095    4.7269 C   0  0  1  0  0  0  0  0  0  0  0  0
    2.6721   -7.8243    4.1992 C   0  0  0  0  0  0  0  0  0  0  0  0
    3.3919   -8.3296    3.0551 N   0  0  0  0  0  0  0  0  0  0  0  0
    4.2742   -7.6512    2.2246 C   0  0  0  0  0  0  0  0  0  0  0  0
    4.7190   -8.5524    1.2899 C   0  0  0  0  0  0  0  0  0  0  0  0
    4.1285   -9.7477    1.6016 N   0  0  0  0  0  0  0  0  0  0  0  0
    3.3054   -9.6057    2.6451 C   0  0  0  0  0  0  0  0  0  0  0  0
    1.5057   -8.4111    4.7769 C   0  0  0  0  0  0  0  0  0  0  0  0
    0.4636   -9.4293    4.2989 C   0  0  1  0  0  0  0  0  0  0  0  0
    0.1614   -9.5064    2.7949 C   0  0  0  0  0  0  0  0  0  0  0  0
    0.5404  -10.7255    4.9575 O   0  0  0  0  0  0  0  0  0  0  0  0
    1.5925  -11.6261    4.6292 C   0  0  0  0  0  0  0  0  0  0  0  0
   -0.5495   -8.4965    5.0757 C   0  0  0  0  0  0  0  0  0  0  0  0
    0.5338   -7.9727    6.0467 C   0  0  1  0  0  0  0  0  0  0  0  0
    0.4319   -8.8275    7.3465 C   0  0  0  0  0  0  0  0  0  0  0  0
    0.5151   -6.5592    6.5712 O   0  0  0  0  0  0  0  0  0  0  0  0
    2.8956   -6.4783    6.2695 C   0  0  0  0  0  0  0  0  0  0  0  0
    3.7510   -5.6644    7.3856 C   0  0  0  0  0  0  0  0  0  0  0  0
    3.2051   -7.8638    7.0065 C   0  0  0  0  0  0  0  0  0  0  0  0
    5.8972   -6.3501    4.3380 H   0  0  0  0  0  0  0  0  0  0  0  0
    6.0263   -4.5197    4.6234 H   0  0  0  0  0  0  0  0  0  0  0  0
    3.7109   -3.2069    5.3807 H   0  0  0  0  0  0  0  0  0  0  0  0
    0.3067   -6.3865    4.1643 H   0  0  0  0  0  0  0  0  0  0  0  0
    0.1835   -4.7665    4.6099 H   0  0  0  0  0  0  0  0  0  0  0  0
    1.9517   -5.8666    2.7964 H   0  0  0  0  0  0  0  0  0  0  0  0
    0.7175   -3.0568    2.8842 H   0  0  0  0  0  0  0  0  0  0  0  0
    1.8731   -1.9020    3.4985 H   0  0  0  0  0  0  0  0  0  0  0  0
    0.8592   -2.7515    4.6153 H   0  0  0  0  0  0  0  0  0  0  0  0
    2.9219   -3.4899    1.6593 H   0  0  0  0  0  0  0  0  0  0  0  0
    4.1915   -4.4502    2.3537 H   0  0  0  0  0  0  0  0  0  0  0  0
    4.0494   -2.7585    2.7797 H   0  0  0  0  0  0  0  0  0  0  0  0
    4.5267   -6.5675    2.3453 H   0  0  0  0  0  0  0  0  0  0  0  0
    5.4022   -8.4671    0.4109 H   0  0  0  0  0  0  0  0  0  0  0  0
    2.7323  -10.4317    2.9833 H   0  0  0  0  0  0  0  0  0  0  0  0
    0.1784   -8.5120    2.3345 H   0  0  0  0  0  0  0  0  0  0  0  0
   -0.8384   -9.9154    2.6379 H   0  0  0  0  0  0  0  0  0  0  0  0
    0.8166  -10.1505    2.2141 H   0  0  0  0  0  0  0  0  0  0  0  0
    1.5953  -12.5873    5.1464 H   0  0  0  0  0  0  0  0  0  0  0  0
    2.5502  -11.1681    4.8687 H   0  0  0  0  0  0  0  0  0  0  0  0
    1.5313  -11.8946    3.5796 H   0  0  0  0  0  0  0  0  0  0  0  0
   -1.0725   -7.7567    4.4599 H   0  0  0  0  0  0  0  0  0  0  0  0
   -1.3365   -9.0579    5.5795 H   0  0  0  0  0  0  0  0  0  0  0  0
    0.7715   -9.8539    7.2173 H   0  0  0  0  0  0  0  0  0  0  0  0
   -0.6041   -8.8989    7.6848 H   0  0  0  0  0  0  0  0  0  0  0  0
    0.9345   -8.3843    8.2056 H   0  0  0  0  0  0  0  0  0  0  0  0
    4.7718   -6.0386    7.4632 H   0  0  0  0  0  0  0  0  0  0  0  0
    3.3070   -5.7659    8.3738 H   0  0  0  0  0  0  0  0  0  0  0  0
    3.9056   -4.5942    7.3104 H   0  0  0  0  0  0  0  0  0  0  0  0
    4.2832   -8.0368    6.9882 H   0  0  0  0  0  0  0  0  0  0  0  0
    2.8611   -8.8266    6.6468 H   0  0  0  0  0  0  0  0  0  0  0  0
    2.9462   -7.8382    8.0648 H   0  0  0  0  0  0  0  0  0  0  0  0
    4.2059  -10.6501    1.1070 H   0  0  0  0  0  0  0  0  0  0  0  0
  1  2  2  0
  1 30  1  0
  1 31  1  0
  2 11  1  0
  2  3  1  0
  3  8  1  0
  3  4  1  0
  3 32  1  1
  4  5  1  0
  5 26  1  1
  5 27  1  0
  5  6  1  0
  6  7  1  0
  6 33  1  0
  6 34  1  0
  7  8  1  0
  7 11  1  0
  7 35  1  6
  8  9  1  0
  8 10  1  0
  9 36  1  0
  9 37  1  0
  9 38  1  0
 10 39  1  0
 10 40  1  0
 10 41  1  0
 11 12  1  6
 11 27  1  0
 12 13  1  0
 12 18  2  0
 13 17  1  0
 13 14  1  0
 14 15  2  0
 14 42  1  0
 15 16  1  0
 15 43  1  0
 16 17  2  0
 16 62  1  0
 17 44  1  0
 18 24  1  0
 18 19  1  0
 19 20  1  0
 19 21  1  1
 19 23  1  0
 20 45  1  0
 20 46  1  0
 20 47  1  0
 21 22  1  0
 22 48  1  0
 22 49  1  0
 22 50  1  0
 23 24  1  0
 23 51  1  0
 23 52  1  0
 24 25  1  1
 24 26  1  0
 25 53  1  0
 25 54  1  0
 25 55  1  0
 27 28  1  0
 27 29  1  0
 28 56  1  0
 28 57  1  0
 28 58  1  0
 29 59  1  0
 29 60  1  0
 29 61  1  0
M  CHG  1  16   1
M  END
>  <i_m_ct_stereo_status>  (305) 
1

>  <s_m_source_file>  (305) 
/var/tmp/pbs.5076255.sched01/tmpy8l6melh/117u1qm2xak.sdf

>  <i_m_source_file_index>  (305) 
18

>  <i_lp_mmshare_version>  (305) 
48012

>  <i_f3d_flags>  (305) 
0

>  <s_epik_input>  (305) 
W0NAQF0xMjNPW0NASF00Qyg9W0NIMl0pQyhDMyhbQ0gzXSlbQ0gzXSkoW0NAQEhdKFtDSDJdMSlDNChbQ0gzXSlbQ0gzXSlDKG41W2NIXVtjSF1uW2NIXTUpPUM2W0NAXShPMikoW0NIM10pW0NIMl1bQ0BdNihbQ0gzXSlPW0NIM10=

>  <s_epik_cmdline>  (305) 
J2VwaWtfcHl0aG9uJywgJy1waHQnLCAnMi4wJywgJy1waCcsICc3LjAnLCAnLXRuJywgJzgnLCAnLW1hJywgJzIwMCcsICctaW1hZScsICc8aW5maWxlLm1hZT4nLCAnLW9tYWUnLCAnPG91dGZpbGUubWFlPic=

>  <r_epik_Ionization_Penalty>  (305) 
0.142201

>  <r_epik_Ionization_Penalty_Charging>  (305) 
0

>  <r_epik_Ionization_Penalty_Neutral>  (305) 
0.142201

>  <r_epik_State_Penalty>  (305) 
0.131511

>  <r_epik_Charging_Adjusted_Penalty>  (305) 
0.131511

>  <i_epik_Tot_Q>  (305) 
1

>  <i_epik_Tot_abs_Q>  (305) 
1

>  <s_lp_Force_Field>  (305) 
OPLS3e

>  <r_lp_Energy>  (305) 
277.306

>  <b_lp_Chiralities_Consistent>  (305) 
1

>  <s_lp_Variant>  (305) 
98:0-1

>  <s_i_glide_gridfile>  (305) 
pfpi4k_grid

>  <i_i_glide_lignum>  (305) 
18

>  <i_i_glide_rotatable_bonds>  (305) 
2

>  <r_i_docking_score>  (305) 
-2.6587

>  <r_i_glide_ligand_efficiency>  (305) 
-0.0916793

>  <r_i_glide_ligand_efficiency_sa>  (305) 
-0.281668

>  <r_i_glide_ligand_efficiency_ln>  (305) 
-0.608775

>  <r_i_glide_gscore>  (305) 
-2.6587

>  <r_i_glide_lipo>  (305) 
-0.0396521

>  <r_i_glide_hbond>  (305) 
-0.2

>  <r_i_glide_metal>  (305) 
-0

>  <r_i_glide_rewards>  (305) 
-0.698656

>  <r_i_glide_evdw>  (305) 
-17.9569

>  <r_i_glide_ecoul>  (305) 
-5.43561

>  <r_i_glide_erotb>  (305) 
0.123873

>  <r_i_glide_esite>  (305) 
-0.131077

>  <r_i_glide_emodel>  (305) 
-27.6238

>  <r_i_glide_energy>  (305) 
-23.3925

>  <r_i_glide_einternal>  (305) 
0.234038

>  <r_i_glide_intrahb_reward>  (305) 
-0

>  <i_i_glide_confnum>  (305) 
2

>  <i_i_glide_posenum>  (305) 
19

>  <r_i_glide_eff_state_penalty>  (305) 
0

>  <ligand_id>  (305) 
98

>  <original_smiles>  (305) 
C=C1C2OC34CC(C2(C)C)C1(C(n1ccnc1)=C1C(C)(OC)CC1(C)O3)C4(C)C

>  <smiles>  (305) 
[H]C([H])=C1C2([H])OC34OC5(C([H])([H])[H])C(=C(n6c([H])c([H])[n+]([H])c6[H])C1(C([H])(C3([H])[H])C2(C([H])([H])[H])C([H])([H])[H])C4(C([H])([H])[H])C([H])([H])[H])C(OC([H])([H])[H])(C([H])([H])[H])C5([H])[H]

$$$$
98:0:2
     RDKit          3D

 62 67  0  0  1  0  0  0  0  0999 V2000
    5.9146   -9.8801    3.5588 C   0  0  0  0  0  0  0  0  0  0  0  0
    5.3135   -8.6821    3.4213 C   0  0  0  0  0  0  0  0  0  0  0  0
    5.7281   -7.3980    2.5838 C   0  0  2  0  0  0  0  0  0  0  0  0
    5.4490   -6.0149    3.2935 O   0  0  0  0  0  0  0  0  0  0  0  0
    4.2895   -6.0934    4.1663 C   0  0  2  0  0  0  0  0  0  0  0  0
    3.2520   -6.2345    3.0156 C   0  0  0  0  0  0  0  0  0  0  0  0
    3.5646   -7.5949    2.6089 C   0  0  1  0  0  0  0  0  0  0  0  0
    4.6672   -7.5460    1.5229 C   0  0  0  0  0  0  0  0  0  0  0  0
    4.6777   -6.3860    0.4862 C   0  0  0  0  0  0  0  0  0  0  0  0
    4.7385   -8.8568    0.6887 C   0  0  0  0  0  0  0  0  0  0  0  0
    4.0756   -8.1593    4.0348 C   0  0  1  0  0  0  0  0  0  0  0  0
    2.7099   -8.5021    4.7000 C   0  0  0  0  0  0  0  0  0  0  0  0
    2.1463   -9.8148    4.5052 N   0  0  0  0  0  0  0  0  0  0  0  0
    1.0470  -10.3060    5.1398 C   0  0  0  0  0  0  0  0  0  0  0  0
    0.8418  -11.5801    4.7478 C   0  0  0  0  0  0  0  0  0  0  0  0
    1.8290  -11.8591    3.8232 N   0  0  0  0  0  0  0  0  0  0  0  0
    2.6437  -10.7856    3.6818 C   0  0  0  0  0  0  0  0  0  0  0  0
    2.0329   -7.4364    5.3180 C   0  0  0  0  0  0  0  0  0  0  0  0
    0.5493   -7.1096    5.6408 C   0  0  1  0  0  0  0  0  0  0  0  0
   -0.5343   -7.6578    4.6816 C   0  0  0  0  0  0  0  0  0  0  0  0
    0.2028   -7.1911    7.0513 O   0  0  0  0  0  0  0  0  0  0  0  0
    0.1329   -8.4746    7.6911 C   0  0  0  0  0  0  0  0  0  0  0  0
    0.9637   -5.6338    5.2861 C   0  0  0  0  0  0  0  0  0  0  0  0
    2.4459   -5.8528    5.6781 C   0  0  1  0  0  0  0  0  0  0  0  0
    2.6026   -5.3428    7.1341 C   0  0  0  0  0  0  0  0  0  0  0  0
    3.5844   -5.1804    4.9599 O   0  0  0  0  0  0  0  0  0  0  0  0
    4.8053   -7.2470    5.0693 C   0  0  0  0  0  0  0  0  0  0  0  0
    6.4040   -7.1479    5.3150 C   0  0  0  0  0  0  0  0  0  0  0  0
    4.5547   -7.5105    6.6302 C   0  0  0  0  0  0  0  0  0  0  0  0
    5.4836  -10.6438    4.1869 H   0  0  0  0  0  0  0  0  0  0  0  0
    6.8242  -10.1083    3.0198 H   0  0  0  0  0  0  0  0  0  0  0  0
    6.7392   -7.4497    2.1689 H   0  0  0  0  0  0  0  0  0  0  0  0
    2.2075   -6.2052    3.2377 H   0  0  0  0  0  0  0  0  0  0  0  0
    3.3603   -5.4300    2.3008 H   0  0  0  0  0  0  0  0  0  0  0  0
    2.6803   -8.1082    2.2231 H   0  0  0  0  0  0  0  0  0  0  0  0
    3.7099   -6.2800   -0.0070 H   0  0  0  0  0  0  0  0  0  0  0  0
    5.4063   -6.5686   -0.2997 H   0  0  0  0  0  0  0  0  0  0  0  0
    4.9580   -5.4183    0.9047 H   0  0  0  0  0  0  0  0  0  0  0  0
    4.0246   -8.8389   -0.1269 H   0  0  0  0  0  0  0  0  0  0  0  0
    4.5240   -9.7667    1.2410 H   0  0  0  0  0  0  0  0  0  0  0  0
    5.7213   -8.9946    0.2482 H   0  0  0  0  0  0  0  0  0  0  0  0
    0.4894   -9.7781    5.7934 H   0  0  0  0  0  0  0  0  0  0  0  0
    0.0758  -12.2667    5.0539 H   0  0  0  0  0  0  0  0  0  0  0  0
    3.5091  -10.7267    2.9960 H   0  0  0  0  0  0  0  0  0  0  0  0
   -0.1836   -7.6451    3.6453 H   0  0  0  0  0  0  0  0  0  0  0  0
   -1.4259   -7.0369    4.7356 H   0  0  0  0  0  0  0  0  0  0  0  0
   -0.9052   -8.6504    4.8974 H   0  0  0  0  0  0  0  0  0  0  0  0
   -0.1407   -8.4943    8.7443 H   0  0  0  0  0  0  0  0  0  0  0  0
    1.0934   -8.9786    7.6248 H   0  0  0  0  0  0  0  0  0  0  0  0
   -0.6392   -9.0947    7.2381 H   0  0  0  0  0  0  0  0  0  0  0  0
    0.7665   -5.3145    4.2607 H   0  0  0  0  0  0  0  0  0  0  0  0
    0.4482   -4.9094    5.9235 H   0  0  0  0  0  0  0  0  0  0  0  0
    2.1022   -5.9653    7.8773 H   0  0  0  0  0  0  0  0  0  0  0  0
    2.1651   -4.3450    7.2400 H   0  0  0  0  0  0  0  0  0  0  0  0
    3.6335   -5.1849    7.4432 H   0  0  0  0  0  0  0  0  0  0  0  0
    6.8015   -8.0362    5.8035 H   0  0  0  0  0  0  0  0  0  0  0  0
    6.6533   -6.3072    5.9609 H   0  0  0  0  0  0  0  0  0  0  0  0
    7.0976   -7.0144    4.4898 H   0  0  0  0  0  0  0  0  0  0  0  0
    5.0456   -8.4379    6.9198 H   0  0  0  0  0  0  0  0  0  0  0  0
    3.5760   -7.6797    7.0606 H   0  0  0  0  0  0  0  0  0  0  0  0
    5.0175   -6.7482    7.2567 H   0  0  0  0  0  0  0  0  0  0  0  0
    1.9052  -12.8014    3.3468 H   0  0  0  0  0  0  0  0  0  0  0  0
  1  2  2  0
  1 30  1  0
  1 31  1  0
  2 11  1  0
  2  3  1  0
  3  8  1  0
  3  4  1  0
  3 32  1  6
  4  5  1  0
  5 26  1  1
  5 27  1  0
  5  6  1  0
  6  7  1  0
  6 33  1  0
  6 34  1  0
  7  8  1  0
  7 11  1  0
  7 35  1  6
  8  9  1  0
  8 10  1  0
  9 36  1  0
  9 37  1  0
  9 38  1  0
 10 39  1  0
 10 40  1  0
 10 41  1  0
 11 12  1  1
 11 27  1  0
 12 13  1  0
 12 18  2  0
 13 17  1  0
 13 14  1  0
 14 15  2  0
 14 42  1  0
 15 16  1  0
 15 43  1  0
 16 17  2  0
 16 62  1  0
 17 44  1  0
 18 24  1  0
 18 19  1  0
 19 20  1  0
 19 21  1  1
 19 23  1  0
 20 45  1  0
 20 46  1  0
 20 47  1  0
 21 22  1  0
 22 48  1  0
 22 49  1  0
 22 50  1  0
 23 24  1  0
 23 51  1  0
 23 52  1  0
 24 25  1  1
 24 26  1  0
 25 53  1  0
 25 54  1  0
 25 55  1  0
 27 28  1  0
 27 29  1  0
 28 56  1  0
 28 57  1  0
 28 58  1  0
 29 59  1  0
 29 60  1  0
 29 61  1  0
M  CHG  1  16   1
M  END
>  <i_m_ct_stereo_status>  (306) 
1

>  <s_m_source_file>  (306) 
/var/tmp/pbs.5076255.sched01/tmpy8l6melh/117u1qm2xak.sdf

>  <i_m_source_file_index>  (306) 
18

>  <i_lp_mmshare_version>  (306) 
48012

>  <i_f3d_flags>  (306) 
0

>  <s_epik_input>  (306) 
W0NAQF0xMjNPW0NASF00Qyg9W0NIMl0pQyhDMyhbQ0gzXSlbQ0gzXSkoW0NAQEhdKFtDSDJdMSlDNChbQ0gzXSlbQ0gzXSlDKG41W2NIXVtjSF1uW2NIXTUpPUM2W0NAXShPMikoW0NIM10pW0NIMl1bQ0BdNihbQ0gzXSlPW0NIM10=

>  <s_epik_cmdline>  (306) 
J2VwaWtfcHl0aG9uJywgJy1waHQnLCAnMi4wJywgJy1waCcsICc3LjAnLCAnLXRuJywgJzgnLCAnLW1hJywgJzIwMCcsICctaW1hZScsICc8aW5maWxlLm1hZT4nLCAnLW9tYWUnLCAnPG91dGZpbGUubWFlPic=

>  <r_epik_Ionization_Penalty>  (306) 
0.142201

>  <r_epik_Ionization_Penalty_Charging>  (306) 
0

>  <r_epik_Ionization_Penalty_Neutral>  (306) 
0.142201

>  <r_epik_State_Penalty>  (306) 
0.131511

>  <r_epik_Charging_Adjusted_Penalty>  (306) 
0.131511

>  <i_epik_Tot_Q>  (306) 
1

>  <i_epik_Tot_abs_Q>  (306) 
1

>  <s_lp_Force_Field>  (306) 
OPLS3e

>  <r_lp_Energy>  (306) 
277.306

>  <b_lp_Chiralities_Consistent>  (306) 
1

>  <s_lp_Variant>  (306) 
98:0-1

>  <s_i_glide_gridfile>  (306) 
pfpi4k_grid

>  <i_i_glide_lignum>  (306) 
18

>  <i_i_glide_rotatable_bonds>  (306) 
2

>  <r_i_docking_score>  (306) 
-2.51453

>  <r_i_glide_ligand_efficiency>  (306) 
-0.0867081

>  <r_i_glide_ligand_efficiency_sa>  (306) 
-0.266395

>  <r_i_glide_ligand_efficiency_ln>  (306) 
-0.575765

>  <r_i_glide_gscore>  (306) 
-2.51453

>  <r_i_glide_lipo>  (306) 
-0.225868

>  <r_i_glide_hbond>  (306) 
0

>  <r_i_glide_metal>  (306) 
-0

>  <r_i_glide_rewards>  (306) 
-0.698656

>  <r_i_glide_evdw>  (306) 
-15.9084

>  <r_i_glide_ecoul>  (306) 
-5.84219

>  <r_i_glide_erotb>  (306) 
0.123873

>  <r_i_glide_esite>  (306) 
-0.0421351

>  <r_i_glide_emodel>  (306) 
-25.4426

>  <r_i_glide_energy>  (306) 
-21.7506

>  <r_i_glide_einternal>  (306) 
0.00504626

>  <r_i_glide_intrahb_reward>  (306) 
-0

>  <i_i_glide_confnum>  (306) 
1

>  <i_i_glide_posenum>  (306) 
10

>  <r_i_glide_eff_state_penalty>  (306) 
0

>  <ligand_id>  (306) 
98

>  <original_smiles>  (306) 
C=C1C2OC34CC(C2(C)C)C1(C(n1ccnc1)=C1C(C)(OC)CC1(C)O3)C4(C)C

>  <smiles>  (306) 
[H]C([H])=C1C2([H])OC34OC5(C([H])([H])[H])C(=C(n6c([H])c([H])[n+]([H])c6[H])C1(C([H])(C3([H])[H])C2(C([H])([H])[H])C([H])([H])[H])C4(C([H])([H])[H])C([H])([H])[H])C(OC([H])([H])[H])(C([H])([H])[H])C5([H])[H]

$$$$
98:1:0
     RDKit          3D

 61 66  0  0  1  0  0  0  0  0999 V2000
    4.6664   -5.7771    1.4033 C   0  0  0  0  0  0  0  0  0  0  0  0
    4.8979   -6.4048    2.5694 C   0  0  0  0  0  0  0  0  0  0  0  0
    6.0131   -6.1612    3.6812 C   0  0  2  0  0  0  0  0  0  0  0  0
    6.6035   -7.4730    4.3318 O   0  0  0  0  0  0  0  0  0  0  0  0
    5.6045   -8.5334    4.3790 C   0  0  2  0  0  0  0  0  0  0  0  0
    4.7109   -7.8496    5.4514 C   0  0  0  0  0  0  0  0  0  0  0  0
    4.1604   -6.7860    4.6209 C   0  0  1  0  0  0  0  0  0  0  0  0
    5.0980   -5.5514    4.7078 C   0  0  0  0  0  0  0  0  0  0  0  0
    5.8240   -5.2187    6.0422 C   0  0  0  0  0  0  0  0  0  0  0  0
    4.3925   -4.2321    4.2919 C   0  0  0  0  0  0  0  0  0  0  0  0
    4.2086   -7.5616    3.2065 C   0  0  1  0  0  0  0  0  0  0  0  0
    2.8762   -8.3841    3.2906 C   0  0  0  0  0  0  0  0  0  0  0  0
    1.6879   -7.7136    2.8284 N   0  0  0  0  0  0  0  0  0  0  0  0
    0.4352   -8.3388    2.7834 C   0  0  0  0  0  0  0  0  0  0  0  0
   -0.4281   -7.3918    2.2722 C   0  0  0  0  0  0  0  0  0  0  0  0
    0.2414   -6.2383    1.9865 N   0  0  0  0  0  0  0  0  0  0  0  0
    1.5005   -6.4518    2.3555 C   0  0  0  0  0  0  0  0  0  0  0  0
    2.9550   -9.6151    3.9988 C   0  0  0  0  0  0  0  0  0  0  0  0
    1.9496  -10.4749    4.8057 C   0  0  1  0  0  0  0  0  0  0  0  0
    0.7814   -9.7718    5.5526 C   0  0  0  0  0  0  0  0  0  0  0  0
    1.5502  -11.7065    4.1561 O   0  0  0  0  0  0  0  0  0  0  0  0
    0.6748  -11.5957    3.0308 C   0  0  0  0  0  0  0  0  0  0  0  0
    3.1827  -10.7450    5.7416 C   0  0  0  0  0  0  0  0  0  0  0  0
    4.2234  -10.4950    4.6207 C   0  0  1  0  0  0  0  0  0  0  0  0
    4.6239  -11.8817    4.0564 C   0  0  0  0  0  0  0  0  0  0  0  0
    5.5654   -9.8395    4.8907 O   0  0  0  0  0  0  0  0  0  0  0  0
    5.3115   -8.5892    2.8538 C   0  0  0  0  0  0  0  0  0  0  0  0
    6.6437   -8.3240    1.9700 C   0  0  0  0  0  0  0  0  0  0  0  0
    4.9127   -9.8376    1.9341 C   0  0  0  0  0  0  0  0  0  0  0  0
    3.8580   -6.0836    0.7549 H   0  0  0  0  0  0  0  0  0  0  0  0
    5.2669   -4.9309    1.1039 H   0  0  0  0  0  0  0  0  0  0  0  0
    6.7855   -5.4664    3.3535 H   0  0  0  0  0  0  0  0  0  0  0  0
    3.8831   -8.3775    5.8681 H   0  0  0  0  0  0  0  0  0  0  0  0
    5.2972   -7.5841    6.3244 H   0  0  0  0  0  0  0  0  0  0  0  0
    3.1523   -6.5171    4.9476 H   0  0  0  0  0  0  0  0  0  0  0  0
    5.1230   -5.1660    6.8729 H   0  0  0  0  0  0  0  0  0  0  0  0
    6.3142   -4.2455    5.9832 H   0  0  0  0  0  0  0  0  0  0  0  0
    6.6142   -5.9198    6.3033 H   0  0  0  0  0  0  0  0  0  0  0  0
    3.8504   -3.8014    5.1313 H   0  0  0  0  0  0  0  0  0  0  0  0
    3.6646   -4.3435    3.4896 H   0  0  0  0  0  0  0  0  0  0  0  0
    5.1225   -3.4847    3.9712 H   0  0  0  0  0  0  0  0  0  0  0  0
    0.2059   -9.3215    3.0771 H   0  0  0  0  0  0  0  0  0  0  0  0
   -1.4810   -7.5301    2.1206 H   0  0  0  0  0  0  0  0  0  0  0  0
    2.2881   -5.6851    2.2769 H   0  0  0  0  0  0  0  0  0  0  0  0
    1.1132   -8.8024    5.9404 H   0  0  0  0  0  0  0  0  0  0  0  0
    0.4838  -10.3851    6.4022 H   0  0  0  0  0  0  0  0  0  0  0  0
   -0.1332   -9.6288    4.9725 H   0  0  0  0  0  0  0  0  0  0  0  0
    0.4250  -12.5611    2.5581 H   0  0  0  0  0  0  0  0  0  0  0  0
    1.0784  -10.9723    2.2414 H   0  0  0  0  0  0  0  0  0  0  0  0
   -0.2147  -11.0772    3.3593 H   0  0  0  0  0  0  0  0  0  0  0  0
    3.2400  -10.0952    6.6181 H   0  0  0  0  0  0  0  0  0  0  0  0
    3.1812  -11.7696    6.1103 H   0  0  0  0  0  0  0  0  0  0  0  0
    3.8292  -12.3524    3.4722 H   0  0  0  0  0  0  0  0  0  0  0  0
    4.8613  -12.5682    4.8675 H   0  0  0  0  0  0  0  0  0  0  0  0
    5.5410  -11.8689    3.4675 H   0  0  0  0  0  0  0  0  0  0  0  0
    6.4065   -8.1877    0.9162 H   0  0  0  0  0  0  0  0  0  0  0  0
    7.3273   -9.1672    2.0373 H   0  0  0  0  0  0  0  0  0  0  0  0
    7.2928   -7.4770    2.1733 H   0  0  0  0  0  0  0  0  0  0  0  0
    4.7405   -9.4876    0.9135 H   0  0  0  0  0  0  0  0  0  0  0  0
    4.0146  -10.4272    2.0777 H   0  0  0  0  0  0  0  0  0  0  0  0
    5.7231  -10.5606    1.8452 H   0  0  0  0  0  0  0  0  0  0  0  0
  1  2  2  0
  1 30  1  0
  1 31  1  0
  2 11  1  0
  2  3  1  0
  3  8  1  0
  3  4  1  0
  3 32  1  6
  4  5  1  0
  5 26  1  1
  5 27  1  0
  5  6  1  0
  6  7  1  0
  6 33  1  0
  6 34  1  0
  7  8  1  0
  7 11  1  0
  7 35  1  1
  8  9  1  0
  8 10  1  0
  9 36  1  0
  9 37  1  0
  9 38  1  0
 10 39  1  0
 10 40  1  0
 10 41  1  0
 11 12  1  6
 11 27  1  0
 12 13  1  0
 12 18  2  0
 13 17  1  0
 13 14  1  0
 14 15  2  0
 14 42  1  0
 15 16  1  0
 15 43  1  0
 16 17  2  0
 17 44  1  0
 18 24  1  0
 18 19  1  0
 19 20  1  0
 19 21  1  6
 19 23  1  0
 20 45  1  0
 20 46  1  0
 20 47  1  0
 21 22  1  0
 22 48  1  0
 22 49  1  0
 22 50  1  0
 23 24  1  0
 23 51  1  0
 23 52  1  0
 24 25  1  6
 24 26  1  0
 25 53  1  0
 25 54  1  0
 25 55  1  0
 27 28  1  0
 27 29  1  0
 28 56  1  0
 28 57  1  0
 28 58  1  0
 29 59  1  0
 29 60  1  0
 29 61  1  0
M  END
>  <i_m_ct_stereo_status>  (307) 
1

>  <s_m_source_file>  (307) 
/var/tmp/pbs.5076255.sched01/tmpy8l6melh/117u1qm2xak.sdf

>  <i_m_source_file_index>  (307) 
19

>  <i_lp_mmshare_version>  (307) 
48012

>  <i_f3d_flags>  (307) 
0

>  <s_epik_input>  (307) 
W0NAQF0xMjNPW0NASF00Qyg9W0NIMl0pQyhDMyhbQ0gzXSlbQ0gzXSkoW0NAQEhdKFtDSDJdMSlDNChbQ0gzXSlbQ0gzXSlDKG41W2NIXVtjSF1uW2NIXTUpPUM2W0NAXShPMikoW0NIM10pW0NIMl1bQ0BdNihbQ0gzXSlPW0NIM10=

>  <s_epik_cmdline>  (307) 
J2VwaWtfcHl0aG9uJywgJy1waHQnLCAnMi4wJywgJy1waCcsICc3LjAnLCAnLXRuJywgJzgnLCAnLW1hJywgJzIwMCcsICctaW1hZScsICc8aW5maWxlLm1hZT4nLCAnLW9tYWUnLCAnPG91dGZpbGUubWFlPic=

>  <r_epik_Ionization_Penalty>  (307) 
0.915209

>  <r_epik_Ionization_Penalty_Charging>  (307) 
0.915209

>  <r_epik_Ionization_Penalty_Neutral>  (307) 
9.61691e-14

>  <r_epik_State_Penalty>  (307) 
0.956372

>  <r_epik_Charging_Adjusted_Penalty>  (307) 
1.87158

>  <i_epik_Tot_Q>  (307) 
0

>  <i_epik_Tot_abs_Q>  (307) 
0

>  <s_lp_Force_Field>  (307) 
OPLS3e

>  <r_lp_Energy>  (307) 
271.366

>  <b_lp_Chiralities_Consistent>  (307) 
1

>  <s_lp_Variant>  (307) 
98:0-2

>  <s_i_glide_gridfile>  (307) 
pfpi4k_grid

>  <i_i_glide_lignum>  (307) 
19

>  <i_i_glide_rotatable_bonds>  (307) 
2

>  <r_i_docking_score>  (307) 
-2.62728

>  <r_i_glide_ligand_efficiency>  (307) 
-0.0905959

>  <r_i_glide_ligand_efficiency_sa>  (307) 
-0.278339

>  <r_i_glide_ligand_efficiency_ln>  (307) 
-0.601581

>  <r_i_glide_gscore>  (307) 
-2.62728

>  <r_i_glide_lipo>  (307) 
-0.207101

>  <r_i_glide_hbond>  (307) 
-0.264137

>  <r_i_glide_metal>  (307) 
-0

>  <r_i_glide_rewards>  (307) 
-0.705529

>  <r_i_glide_evdw>  (307) 
-19.5473

>  <r_i_glide_ecoul>  (307) 
-3.66164

>  <r_i_glide_erotb>  (307) 
0.12444

>  <r_i_glide_esite>  (307) 
-0.0483464

>  <r_i_glide_emodel>  (307) 
-25.4859

>  <r_i_glide_energy>  (307) 
-23.2089

>  <r_i_glide_einternal>  (307) 
0.0950457

>  <r_i_glide_intrahb_reward>  (307) 
-0

>  <i_i_glide_confnum>  (307) 
2

>  <i_i_glide_posenum>  (307) 
24

>  <r_i_glide_eff_state_penalty>  (307) 
0

>  <ligand_id>  (307) 
98

>  <original_smiles>  (307) 
C=C1C2OC34CC(C2(C)C)C1(C(n1ccnc1)=C1C(C)(OC)CC1(C)O3)C4(C)C

>  <smiles>  (307) 
[H]C([H])=C1C2([H])OC34OC5(C([H])([H])[H])C(=C(n6c([H])nc([H])c6[H])C1(C([H])(C3([H])[H])C2(C([H])([H])[H])C([H])([H])[H])C4(C([H])([H])[H])C([H])([H])[H])C(OC([H])([H])[H])(C([H])([H])[H])C5([H])[H]

$$$$
98:1:1
     RDKit          3D

 61 66  0  0  1  0  0  0  0  0999 V2000
    2.6838   -5.5832    0.6823 C   0  0  0  0  0  0  0  0  0  0  0  0
    3.3182   -5.9740    1.8054 C   0  0  0  0  0  0  0  0  0  0  0  0
    4.5573   -5.3277    2.5691 C   0  0  2  0  0  0  0  0  0  0  0  0
    5.5880   -6.3661    3.1634 O   0  0  0  0  0  0  0  0  0  0  0  0
    4.9274   -7.6067    3.5543 C   0  0  2  0  0  0  0  0  0  0  0  0
    4.1539   -6.9857    4.7520 C   0  0  0  0  0  0  0  0  0  0  0  0
    3.1844   -6.2076    4.0019 C   0  0  1  0  0  0  0  0  0  0  0  0
    3.7707   -4.7949    3.7379 C   0  0  0  0  0  0  0  0  0  0  0  0
    4.6732   -4.1162    4.8115 C   0  0  0  0  0  0  0  0  0  0  0  0
    2.6850   -3.7365    3.3980 C   0  0  0  0  0  0  0  0  0  0  0  0
    3.1200   -7.1502    2.6930 C   0  0  1  0  0  0  0  0  0  0  0  0
    2.1158   -8.2344    3.1793 C   0  0  0  0  0  0  0  0  0  0  0  0
    0.7104   -7.9449    2.9800 N   0  0  0  0  0  0  0  0  0  0  0  0
   -0.3188   -8.8370    3.3265 C   0  0  0  0  0  0  0  0  0  0  0  0
   -1.4956   -8.2031    2.9910 C   0  0  0  0  0  0  0  0  0  0  0  0
   -1.2452   -6.9493    2.4507 N   0  0  0  0  0  0  0  0  0  0  0  0
    0.0858   -6.8601    2.4462 C   0  0  0  0  0  0  0  0  0  0  0  0
    2.6445   -9.2889    3.9505 C   0  0  0  0  0  0  0  0  0  0  0  0
    2.0897  -10.2358    5.0461 C   0  0  1  0  0  0  0  0  0  0  0  0
    0.9641   -9.7087    5.9926 C   0  0  0  0  0  0  0  0  0  0  0  0
    1.8671  -11.5946    4.5930 O   0  0  0  0  0  0  0  0  0  0  0  0
    0.8181  -11.7938    3.6287 C   0  0  0  0  0  0  0  0  0  0  0  0
    3.5189  -10.0781    5.6732 C   0  0  0  0  0  0  0  0  0  0  0  0
    4.1905   -9.7707    4.3099 C   0  0  1  0  0  0  0  0  0  0  0  0
    4.7856  -11.1001    3.7811 C   0  0  0  0  0  0  0  0  0  0  0  0
    5.3437   -8.7971    4.1704 O   0  0  0  0  0  0  0  0  0  0  0  0
    4.3331   -7.9510    2.1576 C   0  0  0  0  0  0  0  0  0  0  0  0
    5.3166   -7.5166    0.9500 C   0  0  0  0  0  0  0  0  0  0  0  0
    4.0617   -9.3727    1.4795 C   0  0  0  0  0  0  0  0  0  0  0  0
    1.8597   -6.1502    0.2951 H   0  0  0  0  0  0  0  0  0  0  0  0
    2.9695   -4.6814    0.1682 H   0  0  0  0  0  0  0  0  0  0  0  0
    5.0557   -4.5343    2.0077 H   0  0  0  0  0  0  0  0  0  0  0  0
    3.6038   -7.6180    5.4100 H   0  0  0  0  0  0  0  0  0  0  0  0
    4.8318   -6.4750    5.4234 H   0  0  0  0  0  0  0  0  0  0  0  0
    2.2388   -6.1211    4.5415 H   0  0  0  0  0  0  0  0  0  0  0  0
    4.1857   -4.1047    5.7884 H   0  0  0  0  0  0  0  0  0  0  0  0
    4.8775   -3.0762    4.5506 H   0  0  0  0  0  0  0  0  0  0  0  0
    5.6549   -4.5788    4.9264 H   0  0  0  0  0  0  0  0  0  0  0  0
    2.2533   -3.3188    4.3042 H   0  0  0  0  0  0  0  0  0  0  0  0
    1.8493   -4.1203    2.8215 H   0  0  0  0  0  0  0  0  0  0  0  0
    3.1091   -2.9014    2.8421 H   0  0  0  0  0  0  0  0  0  0  0  0
   -0.1885   -9.7861    3.7605 H   0  0  0  0  0  0  0  0  0  0  0  0
   -2.5126   -8.6017    3.1477 H   0  0  0  0  0  0  0  0  0  0  0  0
    0.6210   -5.9668    2.0956 H   0  0  0  0  0  0  0  0  0  0  0  0
    1.1066   -8.6347    6.1980 H   0  0  0  0  0  0  0  0  0  0  0  0
    1.0269  -10.2236    6.9534 H   0  0  0  0  0  0  0  0  0  0  0  0
   -0.0670   -9.8867    5.6571 H   0  0  0  0  0  0  0  0  0  0  0  0
    0.6962  -12.8249    3.3125 H   0  0  0  0  0  0  0  0  0  0  0  0
    0.9808  -11.2260    2.7035 H   0  0  0  0  0  0  0  0  0  0  0  0
   -0.1567  -11.5507    4.0446 H   0  0  0  0  0  0  0  0  0  0  0  0
    3.6001   -9.3087    6.4432 H   0  0  0  0  0  0  0  0  0  0  0  0
    3.8563  -11.0089    6.1237 H   0  0  0  0  0  0  0  0  0  0  0  0
    4.0272  -11.8141    3.4628 H   0  0  0  0  0  0  0  0  0  0  0  0
    5.3597  -11.5870    4.5676 H   0  0  0  0  0  0  0  0  0  0  0  0
    5.5109  -10.9681    2.9804 H   0  0  0  0  0  0  0  0  0  0  0  0
    4.8217   -7.5901   -0.0154 H   0  0  0  0  0  0  0  0  0  0  0  0
    6.1832   -8.1673    0.9118 H   0  0  0  0  0  0  0  0  0  0  0  0
    5.7632   -6.5288    0.9048 H   0  0  0  0  0  0  0  0  0  0  0  0
    3.5876   -9.2264    0.5094 H   0  0  0  0  0  0  0  0  0  0  0  0
    3.3973  -10.1187    1.8896 H   0  0  0  0  0  0  0  0  0  0  0  0
    4.9848   -9.8991    1.2571 H   0  0  0  0  0  0  0  0  0  0  0  0
  1  2  2  0
  1 30  1  0
  1 31  1  0
  2 11  1  0
  2  3  1  0
  3  8  1  0
  3  4  1  0
  3 32  1  6
  4  5  1  0
  5 26  1  1
  5 27  1  0
  5  6  1  0
  6  7  1  0
  6 33  1  0
  6 34  1  0
  7  8  1  0
  7 11  1  0
  7 35  1  1
  8  9  1  0
  8 10  1  0
  9 36  1  0
  9 37  1  0
  9 38  1  0
 10 39  1  0
 10 40  1  0
 10 41  1  0
 11 12  1  6
 11 27  1  0
 12 13  1  0
 12 18  2  0
 13 17  1  0
 13 14  1  0
 14 15  2  0
 14 42  1  0
 15 16  1  0
 15 43  1  0
 16 17  2  0
 17 44  1  0
 18 24  1  0
 18 19  1  0
 19 20  1  0
 19 21  1  6
 19 23  1  0
 20 45  1  0
 20 46  1  0
 20 47  1  0
 21 22  1  0
 22 48  1  0
 22 49  1  0
 22 50  1  0
 23 24  1  0
 23 51  1  0
 23 52  1  0
 24 25  1  6
 24 26  1  0
 25 53  1  0
 25 54  1  0
 25 55  1  0
 27 28  1  0
 27 29  1  0
 28 56  1  0
 28 57  1  0
 28 58  1  0
 29 59  1  0
 29 60  1  0
 29 61  1  0
M  END
>  <i_m_ct_stereo_status>  (308) 
1

>  <s_m_source_file>  (308) 
/var/tmp/pbs.5076255.sched01/tmpy8l6melh/117u1qm2xak.sdf

>  <i_m_source_file_index>  (308) 
19

>  <i_lp_mmshare_version>  (308) 
48012

>  <i_f3d_flags>  (308) 
0

>  <s_epik_input>  (308) 
W0NAQF0xMjNPW0NASF00Qyg9W0NIMl0pQyhDMyhbQ0gzXSlbQ0gzXSkoW0NAQEhdKFtDSDJdMSlDNChbQ0gzXSlbQ0gzXSlDKG41W2NIXVtjSF1uW2NIXTUpPUM2W0NAXShPMikoW0NIM10pW0NIMl1bQ0BdNihbQ0gzXSlPW0NIM10=

>  <s_epik_cmdline>  (308) 
J2VwaWtfcHl0aG9uJywgJy1waHQnLCAnMi4wJywgJy1waCcsICc3LjAnLCAnLXRuJywgJzgnLCAnLW1hJywgJzIwMCcsICctaW1hZScsICc8aW5maWxlLm1hZT4nLCAnLW9tYWUnLCAnPG91dGZpbGUubWFlPic=

>  <r_epik_Ionization_Penalty>  (308) 
0.915209

>  <r_epik_Ionization_Penalty_Charging>  (308) 
0.915209

>  <r_epik_Ionization_Penalty_Neutral>  (308) 
9.61691e-14

>  <r_epik_State_Penalty>  (308) 
0.956372

>  <r_epik_Charging_Adjusted_Penalty>  (308) 
1.87158

>  <i_epik_Tot_Q>  (308) 
0

>  <i_epik_Tot_abs_Q>  (308) 
0

>  <s_lp_Force_Field>  (308) 
OPLS3e

>  <r_lp_Energy>  (308) 
271.366

>  <b_lp_Chiralities_Consistent>  (308) 
1

>  <s_lp_Variant>  (308) 
98:0-2

>  <s_i_glide_gridfile>  (308) 
pfpi4k_grid

>  <i_i_glide_lignum>  (308) 
19

>  <i_i_glide_rotatable_bonds>  (308) 
2

>  <r_i_docking_score>  (308) 
-2.3948

>  <r_i_glide_ligand_efficiency>  (308) 
-0.0825794

>  <r_i_glide_ligand_efficiency_sa>  (308) 
-0.25371

>  <r_i_glide_ligand_efficiency_ln>  (308) 
-0.548349

>  <r_i_glide_gscore>  (308) 
-2.3948

>  <r_i_glide_lipo>  (308) 
-0.0983565

>  <r_i_glide_hbond>  (308) 
-0.16

>  <r_i_glide_metal>  (308) 
-0

>  <r_i_glide_rewards>  (308) 
-0.705529

>  <r_i_glide_evdw>  (308) 
-18.336

>  <r_i_glide_ecoul>  (308) 
-3.47161

>  <r_i_glide_erotb>  (308) 
0.12444

>  <r_i_glide_esite>  (308) 
-0.117818

>  <r_i_glide_emodel>  (308) 
-23.0081

>  <r_i_glide_energy>  (308) 
-21.8076

>  <r_i_glide_einternal>  (308) 
0.0900043

>  <r_i_glide_intrahb_reward>  (308) 
-0

>  <i_i_glide_confnum>  (308) 
1

>  <i_i_glide_posenum>  (308) 
23

>  <r_i_glide_eff_state_penalty>  (308) 
0

>  <ligand_id>  (308) 
98

>  <original_smiles>  (308) 
C=C1C2OC34CC(C2(C)C)C1(C(n1ccnc1)=C1C(C)(OC)CC1(C)O3)C4(C)C

>  <smiles>  (308) 
[H]C([H])=C1C2([H])OC34OC5(C([H])([H])[H])C(=C(n6c([H])nc([H])c6[H])C1(C([H])(C3([H])[H])C2(C([H])([H])[H])C([H])([H])[H])C4(C([H])([H])[H])C([H])([H])[H])C(OC([H])([H])[H])(C([H])([H])[H])C5([H])[H]

$$$$
98:1:2
     RDKit          3D

 61 66  0  0  1  0  0  0  0  0999 V2000
    3.0410    2.1270    4.7977 C   0  0  0  0  0  0  0  0  0  0  0  0
    1.9778    1.2889    4.8156 C   0  0  0  0  0  0  0  0  0  0  0  0
    0.4181    1.5888    4.8699 C   0  0  2  0  0  0  0  0  0  0  0  0
   -0.4244    0.5984    5.7718 O   0  0  0  0  0  0  0  0  0  0  0  0
    0.1665   -0.7328    5.7753 C   0  0  2  0  0  0  0  0  0  0  0  0
   -0.1740   -1.0541    4.2924 C   0  0  0  0  0  0  0  0  0  0  0  0
    0.7900   -0.1683    3.6541 C   0  0  1  0  0  0  0  0  0  0  0  0
    0.1308    1.2159    3.4390 C   0  0  0  0  0  0  0  0  0  0  0  0
   -1.3791    1.3133    3.0852 C   0  0  0  0  0  0  0  0  0  0  0  0
    0.8556    2.0612    2.3553 C   0  0  0  0  0  0  0  0  0  0  0  0
    1.9222   -0.1941    4.8107 C   0  0  1  0  0  0  0  0  0  0  0  0
    2.6568   -1.5209    4.4519 C   0  0  0  0  0  0  0  0  0  0  0  0
    3.7286   -1.3902    3.4721 N   0  0  0  0  0  0  0  0  0  0  0  0
    4.5470   -2.5016    3.1198 C   0  0  0  0  0  0  0  0  0  0  0  0
    5.4159   -1.9665    2.1943 C   0  0  0  0  0  0  0  0  0  0  0  0
    5.2101   -0.6270    1.9739 N   0  0  0  0  0  0  0  0  0  0  0  0
    4.1740   -0.3321    2.7536 C   0  0  0  0  0  0  0  0  0  0  0  0
    2.0909   -2.7098    4.9399 C   0  0  0  0  0  0  0  0  0  0  0  0
    2.0757   -4.1925    4.4915 C   0  0  1  0  0  0  0  0  0  0  0  0
    2.1719   -4.5058    2.9697 C   0  0  0  0  0  0  0  0  0  0  0  0
    2.8815   -5.0891    5.2989 O   0  0  0  0  0  0  0  0  0  0  0  0
    4.3055   -4.9480    5.2666 C   0  0  0  0  0  0  0  0  0  0  0  0
    0.5889   -4.1676    5.0053 C   0  0  0  0  0  0  0  0  0  0  0  0
    0.8477   -3.0259    6.0196 C   0  0  1  0  0  0  0  0  0  0  0  0
    1.0993   -3.6917    7.3943 C   0  0  0  0  0  0  0  0  0  0  0  0
   -0.1866   -1.9690    6.3359 O   0  0  0  0  0  0  0  0  0  0  0  0
    1.5629   -0.3197    6.3212 C   0  0  0  0  0  0  0  0  0  0  0  0
    1.4666    0.8851    7.4005 C   0  0  0  0  0  0  0  0  0  0  0  0
    2.5765   -1.1261    7.2633 C   0  0  0  0  0  0  0  0  0  0  0  0
    4.0507    1.7426    4.7594 H   0  0  0  0  0  0  0  0  0  0  0  0
    2.8973    3.1944    4.7864 H   0  0  0  0  0  0  0  0  0  0  0  0
    0.1951    2.6353    5.0720 H   0  0  0  0  0  0  0  0  0  0  0  0
    0.0047   -2.0344    3.9023 H   0  0  0  0  0  0  0  0  0  0  0  0
   -1.2285   -0.9018    4.0985 H   0  0  0  0  0  0  0  0  0  0  0  0
    1.1301   -0.5746    2.6963 H   0  0  0  0  0  0  0  0  0  0  0  0
   -1.6238    0.6889    2.2264 H   0  0  0  0  0  0  0  0  0  0  0  0
   -1.6494    2.3315    2.8101 H   0  0  0  0  0  0  0  0  0  0  0  0
   -2.0441    1.0507    3.9063 H   0  0  0  0  0  0  0  0  0  0  0  0
    0.4932    1.8110    1.3581 H   0  0  0  0  0  0  0  0  0  0  0  0
    1.9369    1.9381    2.3236 H   0  0  0  0  0  0  0  0  0  0  0  0
    0.6588    3.1220    2.5033 H   0  0  0  0  0  0  0  0  0  0  0  0
    4.4834   -3.4485    3.5138 H   0  0  0  0  0  0  0  0  0  0  0  0
    6.1857   -2.5456    1.6965 H   0  0  0  0  0  0  0  0  0  0  0  0
    3.7323    0.6785    2.7988 H   0  0  0  0  0  0  0  0  0  0  0  0
    1.6445   -3.7399    2.3934 H   0  0  0  0  0  0  0  0  0  0  0  0
    1.6937   -5.4675    2.7702 H   0  0  0  0  0  0  0  0  0  0  0  0
    3.1793   -4.6117    2.5744 H   0  0  0  0  0  0  0  0  0  0  0  0
    4.8335   -5.6142    5.9516 H   0  0  0  0  0  0  0  0  0  0  0  0
    4.6158   -3.9413    5.5332 H   0  0  0  0  0  0  0  0  0  0  0  0
    4.6755   -5.1254    4.2616 H   0  0  0  0  0  0  0  0  0  0  0  0
   -0.1611   -3.9730    4.2354 H   0  0  0  0  0  0  0  0  0  0  0  0
    0.3112   -5.1177    5.4711 H   0  0  0  0  0  0  0  0  0  0  0  0
    2.0554   -4.2207    7.4491 H   0  0  0  0  0  0  0  0  0  0  0  0
    0.3261   -4.4352    7.6048 H   0  0  0  0  0  0  0  0  0  0  0  0
    1.0248   -3.0055    8.2372 H   0  0  0  0  0  0  0  0  0  0  0  0
    2.4498    1.2901    7.6441 H   0  0  0  0  0  0  0  0  0  0  0  0
    1.0289    0.5347    8.3318 H   0  0  0  0  0  0  0  0  0  0  0  0
    0.8946    1.7824    7.1882 H   0  0  0  0  0  0  0  0  0  0  0  0
    3.4858   -0.5349    7.3975 H   0  0  0  0  0  0  0  0  0  0  0  0
    3.0236   -2.0797    6.9966 H   0  0  0  0  0  0  0  0  0  0  0  0
    2.1807   -1.2613    8.2711 H   0  0  0  0  0  0  0  0  0  0  0  0
  1  2  2  0
  1 30  1  0
  1 31  1  0
  2 11  1  0
  2  3  1  0
  3  8  1  0
  3  4  1  0
  3 32  1  6
  4  5  1  0
  5 26  1  1
  5 27  1  0
  5  6  1  0
  6  7  1  0
  6 33  1  0
  6 34  1  0
  7  8  1  0
  7 11  1  0
  7 35  1  6
  8  9  1  0
  8 10  1  0
  9 36  1  0
  9 37  1  0
  9 38  1  0
 10 39  1  0
 10 40  1  0
 10 41  1  0
 11 12  1  6
 11 27  1  0
 12 13  1  0
 12 18  2  0
 13 17  1  0
 13 14  1  0
 14 15  2  0
 14 42  1  0
 15 16  1  0
 15 43  1  0
 16 17  2  0
 17 44  1  0
 18 24  1  0
 18 19  1  0
 19 20  1  0
 19 21  1  1
 19 23  1  0
 20 45  1  0
 20 46  1  0
 20 47  1  0
 21 22  1  0
 22 48  1  0
 22 49  1  0
 22 50  1  0
 23 24  1  0
 23 51  1  0
 23 52  1  0
 24 25  1  1
 24 26  1  0
 25 53  1  0
 25 54  1  0
 25 55  1  0
 27 28  1  0
 27 29  1  0
 28 56  1  0
 28 57  1  0
 28 58  1  0
 29 59  1  0
 29 60  1  0
 29 61  1  0
M  END
>  <i_m_ct_stereo_status>  (309) 
1

>  <s_m_source_file>  (309) 
/var/tmp/pbs.5076255.sched01/tmpy8l6melh/117u1qm2xak.sdf

>  <i_m_source_file_index>  (309) 
19

>  <i_lp_mmshare_version>  (309) 
48012

>  <i_f3d_flags>  (309) 
0

>  <s_epik_input>  (309) 
W0NAQF0xMjNPW0NASF00Qyg9W0NIMl0pQyhDMyhbQ0gzXSlbQ0gzXSkoW0NAQEhdKFtDSDJdMSlDNChbQ0gzXSlbQ0gzXSlDKG41W2NIXVtjSF1uW2NIXTUpPUM2W0NAXShPMikoW0NIM10pW0NIMl1bQ0BdNihbQ0gzXSlPW0NIM10=

>  <s_epik_cmdline>  (309) 
J2VwaWtfcHl0aG9uJywgJy1waHQnLCAnMi4wJywgJy1waCcsICc3LjAnLCAnLXRuJywgJzgnLCAnLW1hJywgJzIwMCcsICctaW1hZScsICc8aW5maWxlLm1hZT4nLCAnLW9tYWUnLCAnPG91dGZpbGUubWFlPic=

>  <r_epik_Ionization_Penalty>  (309) 
0.915209

>  <r_epik_Ionization_Penalty_Charging>  (309) 
0.915209

>  <r_epik_Ionization_Penalty_Neutral>  (309) 
9.61691e-14

>  <r_epik_State_Penalty>  (309) 
0.956372

>  <r_epik_Charging_Adjusted_Penalty>  (309) 
1.87158

>  <i_epik_Tot_Q>  (309) 
0

>  <i_epik_Tot_abs_Q>  (309) 
0

>  <s_lp_Force_Field>  (309) 
OPLS3e

>  <r_lp_Energy>  (309) 
271.366

>  <b_lp_Chiralities_Consistent>  (309) 
1

>  <s_lp_Variant>  (309) 
98:0-2

>  <s_i_glide_gridfile>  (309) 
pfpi4k_grid

>  <i_i_glide_lignum>  (309) 
19

>  <i_i_glide_rotatable_bonds>  (309) 
2

>  <r_i_docking_score>  (309) 
-2.06667

>  <r_i_glide_ligand_efficiency>  (309) 
-0.0712645

>  <r_i_glide_ligand_efficiency_sa>  (309) 
-0.218947

>  <r_i_glide_ligand_efficiency_ln>  (309) 
-0.473215

>  <r_i_glide_gscore>  (309) 
-2.06667

>  <r_i_glide_lipo>  (309) 
-0.103853

>  <r_i_glide_hbond>  (309) 
0

>  <r_i_glide_metal>  (309) 
-0

>  <r_i_glide_rewards>  (309) 
-0.776675

>  <r_i_glide_evdw>  (309) 
-17.6177

>  <r_i_glide_ecoul>  (309) 
-2.75377

>  <r_i_glide_erotb>  (309) 
0.12444

>  <r_i_glide_esite>  (309) 
-0.0166278

>  <r_i_glide_emodel>  (309) 
-21.8783

>  <r_i_glide_energy>  (309) 
-20.3715

>  <r_i_glide_einternal>  (309) 
0.0575174

>  <r_i_glide_intrahb_reward>  (309) 
-0

>  <i_i_glide_confnum>  (309) 
1

>  <i_i_glide_posenum>  (309) 
4

>  <r_i_glide_eff_state_penalty>  (309) 
0

>  <ligand_id>  (309) 
98

>  <original_smiles>  (309) 
C=C1C2OC34CC(C2(C)C)C1(C(n1ccnc1)=C1C(C)(OC)CC1(C)O3)C4(C)C

>  <smiles>  (309) 
[H]C([H])=C1C2([H])OC34OC5(C([H])([H])[H])C(=C(n6c([H])nc([H])c6[H])C1(C([H])(C3([H])[H])C2(C([H])([H])[H])C([H])([H])[H])C4(C([H])([H])[H])C([H])([H])[H])C(OC([H])([H])[H])(C([H])([H])[H])C5([H])[H]

$$$$
99:0:0
     RDKit          3D

 60 65  0  0  1  0  0  0  0  0999 V2000
    3.5327   -1.8343   -2.0532 C   0  0  0  0  0  0  0  0  0  0  0  0
    3.3551   -2.6107   -0.9728 C   0  0  0  0  0  0  0  0  0  0  0  0
    2.6047   -3.7548   -1.1205 O   0  0  0  0  0  0  0  0  0  0  0  0
    2.3427   -4.5098    0.0516 C   0  0  1  0  0  0  0  0  0  0  0  0
    1.3410   -5.6185   -0.2800 C   0  0  0  0  0  0  0  0  0  0  0  0
    3.6242   -4.9143    0.7960 C   0  0  1  0  0  0  0  0  0  0  0  0
    4.4299   -5.9822    0.0738 C   0  0  0  0  0  0  0  0  0  0  0  0
    5.3016   -5.2185   -0.7212 O   0  0  0  0  0  0  0  0  0  0  0  0
    5.7912   -4.1480    0.0575 C   0  0  2  0  0  0  0  0  0  0  0  0
    7.1229   -4.5976    0.7149 C   0  0  1  0  0  0  0  0  0  0  0  0
    8.1917   -3.4887    0.6667 C   0  0  0  0  0  0  0  0  0  0  0  0
    6.9837   -5.2589    2.1062 C   0  0  0  0  0  0  0  0  0  0  0  0
    5.7970   -4.7752    2.9674 C   0  0  0  0  0  0  0  0  0  0  0  0
    5.1042   -3.4952    2.4324 C   0  0  2  0  0  0  0  0  0  0  0  0
    4.1219   -2.7853    3.4312 C   0  0  2  0  0  0  0  0  0  0  0  0
    4.9122   -2.3749    4.7103 C   0  0  0  0  0  0  0  0  0  0  0  0
    2.7899   -3.5043    3.7734 C   0  0  1  0  0  0  0  0  0  0  0  0
    2.8271   -4.6129    4.8117 C   0  0  0  0  0  0  0  0  0  0  0  0
    2.6333   -6.0070    4.5646 C   0  0  0  0  0  0  0  0  0  0  0  0
    2.7467   -6.6386    5.7717 C   0  0  0  0  0  0  0  0  0  0  0  0
    2.9893   -5.7440    6.7617 O   0  0  0  0  0  0  0  0  0  0  0  0
    3.0242   -4.5243    6.1649 C   0  0  0  0  0  0  0  0  0  0  0  0
    1.9078   -2.3227    4.1694 C   0  0  0  0  0  0  0  0  0  0  0  0
    0.9053   -2.3964    4.8778 O   0  0  0  0  0  0  0  0  0  0  0  0
    2.4304   -1.2143    3.6340 O   0  0  0  0  0  0  0  0  0  0  0  0
    3.5758   -1.4684    2.8211 C   0  0  2  0  0  0  0  0  0  0  0  0
    3.0766   -1.5836    1.3639 C   0  0  1  0  0  0  0  0  0  0  0  0
    2.9336   -0.2715    0.8781 O   0  0  0  0  0  0  0  0  0  0  0  0
    4.0099   -2.3773    0.3975 C   0  0  1  0  0  0  0  0  0  0  0  0
    4.5980   -3.7132    0.9718 C   0  0  2  0  0  0  0  0  0  0  0  0
    4.1359   -0.9389   -2.0198 H   0  0  0  0  0  0  0  0  0  0  0  0
    3.0614   -2.0900   -2.9904 H   0  0  0  0  0  0  0  0  0  0  0  0
    1.8171   -3.8783    0.7556 H   0  0  0  0  0  0  0  0  0  0  0  0
    1.0929   -6.2433    0.5801 H   0  0  0  0  0  0  0  0  0  0  0  0
    1.6491   -6.2554   -1.0876 H   0  0  0  0  0  0  0  0  0  0  0  0
    0.4415   -5.2225   -0.7305 H   0  0  0  0  0  0  0  0  0  0  0  0
    3.3118   -5.3434    1.7440 H   0  0  0  0  0  0  0  0  0  0  0  0
    4.9784   -6.6070    0.7746 H   0  0  0  0  0  0  0  0  0  0  0  0
    3.8293   -6.6367   -0.5519 H   0  0  0  0  0  0  0  0  0  0  0  0
    6.0398   -3.3739   -0.6689 H   0  0  0  0  0  0  0  0  0  0  0  0
    7.5528   -5.3644    0.0751 H   0  0  0  0  0  0  0  0  0  0  0  0
    7.8787   -2.6238    1.2452 H   0  0  0  0  0  0  0  0  0  0  0  0
    8.3816   -3.1481   -0.3534 H   0  0  0  0  0  0  0  0  0  0  0  0
    9.1475   -3.8385    1.0616 H   0  0  0  0  0  0  0  0  0  0  0  0
    6.9407   -6.3476    2.0044 H   0  0  0  0  0  0  0  0  0  0  0  0
    7.9020   -5.0718    2.6616 H   0  0  0  0  0  0  0  0  0  0  0  0
    5.0767   -5.5857    3.0256 H   0  0  0  0  0  0  0  0  0  0  0  0
    6.1523   -4.6395    3.9882 H   0  0  0  0  0  0  0  0  0  0  0  0
    5.8977   -2.7577    2.3297 H   0  0  0  0  0  0  0  0  0  0  0  0
    4.3165   -1.7510    5.3829 H   0  0  0  0  0  0  0  0  0  0  0  0
    5.7898   -1.8041    4.4382 H   0  0  0  0  0  0  0  0  0  0  0  0
    5.2311   -3.2336    5.2989 H   0  0  0  0  0  0  0  0  0  0  0  0
    2.3059   -3.8956    2.8850 H   0  0  0  0  0  0  0  0  0  0  0  0
    2.4401   -6.4979    3.6253 H   0  0  0  0  0  0  0  0  0  0  0  0
    2.6818   -7.6704    6.0765 H   0  0  0  0  0  0  0  0  0  0  0  0
    3.2123   -3.7076    6.8488 H   0  0  0  0  0  0  0  0  0  0  0  0
    4.3201   -0.6721    2.8969 H   0  0  0  0  0  0  0  0  0  0  0  0
    2.0619   -1.9734    1.3637 H   0  0  0  0  0  0  0  0  0  0  0  0
    2.1968   -0.2886    0.2709 H   0  0  0  0  0  0  0  0  0  0  0  0
    4.8597   -1.7159    0.2156 H   0  0  0  0  0  0  0  0  0  0  0  0
  1  2  2  0
  1 31  1  0
  1 32  1  0
  2 29  1  0
  2  3  1  0
  3  4  1  0
  4  5  1  0
  4  6  1  0
  4 33  1  1
  5 34  1  0
  5 35  1  0
  5 36  1  0
 30  6  1  1
  6  7  1  0
  6 37  1  1
  7  8  1  0
  7 38  1  0
  7 39  1  0
  8  9  1  0
  9 30  1  0
  9 10  1  0
  9 40  1  6
 10 11  1  0
 10 12  1  0
 10 41  1  6
 11 42  1  0
 11 43  1  0
 11 44  1  0
 12 13  1  0
 12 45  1  0
 12 46  1  0
 13 14  1  0
 13 47  1  0
 13 48  1  0
 14 30  1  0
 14 15  1  0
 14 49  1  6
 15 26  1  0
 15 16  1  1
 15 17  1  0
 16 50  1  0
 16 51  1  0
 16 52  1  0
 17 18  1  0
 17 23  1  0
 17 53  1  6
 18 22  2  0
 18 19  1  0
 19 20  2  0
 19 54  1  0
 20 21  1  0
 20 55  1  0
 21 22  1  0
 22 56  1  0
 23 24  2  0
 23 25  1  0
 25 26  1  0
 26 27  1  0
 26 57  1  6
 27 28  1  0
 27 29  1  0
 27 58  1  1
 28 59  1  0
 29 30  1  0
 29 60  1  6
M  END
>  <i_m_ct_stereo_status>  (310) 
1

>  <s_m_source_file>  (310) 
/var/tmp/pbs.5076255.sched01/tmpy8l6melh/117u1qm2xak.sdf

>  <i_m_source_file_index>  (310) 
20

>  <i_lp_mmshare_version>  (310) 
48012

>  <i_f3d_flags>  (310) 
0

>  <s_epik_input>  (310) 
W0NAQF0xMjNbQ0BIXTRbQ0BIXShbQ0gzXSlPQyg9W0NIMl0pW0NASF0zW0NASF0oW09IXSlbQ0BASF01W0NAQF0oW0NIM10pKFtDQEhdKEMoPU8pTzUpYzZbY0hdW2NIXW9bY0hdNilbQ0BIXTJbQ0gyXVtDSDJdW0NASF0oW0NIM10pW0NASF0xT1tDSDJdNA==

>  <s_epik_cmdline>  (310) 
J2VwaWtfcHl0aG9uJywgJy1waHQnLCAnMi4wJywgJy1waCcsICc3LjAnLCAnLXRuJywgJzgnLCAnLW1hJywgJzIwMCcsICctaW1hZScsICc8aW5maWxlLm1hZT4nLCAnLW9tYWUnLCAnPG91dGZpbGUubWFlPic=

>  <r_lp_tautomer_probability>  (310) 
1

>  <r_epik_Ionization_Penalty>  (310) 
7.91624e-07

>  <r_epik_Ionization_Penalty_Charging>  (310) 
0

>  <r_epik_Ionization_Penalty_Neutral>  (310) 
7.91624e-07

>  <r_epik_State_Penalty>  (310) 
-0

>  <r_epik_Charging_Adjusted_Penalty>  (310) 
0

>  <i_epik_Tot_Q>  (310) 
0

>  <i_epik_Tot_abs_Q>  (310) 
0

>  <s_epik_Chemistry_Notes>  (310) 
This compound has an ester and may undergo hydrolysis at high or low pH.

>  <s_lp_Force_Field>  (310) 
OPLS3e

>  <r_lp_Energy>  (310) 
53.5131

>  <b_lp_Chiralities_Consistent>  (310) 
1

>  <s_lp_Variant>  (310) 
99:0-1

>  <s_i_glide_gridfile>  (310) 
pfpi4k_grid

>  <i_i_glide_lignum>  (310) 
20

>  <i_i_glide_rotatable_bonds>  (310) 
2

>  <r_i_docking_score>  (310) 
-1.82279

>  <r_i_glide_ligand_efficiency>  (310) 
-0.0607596

>  <r_i_glide_ligand_efficiency_sa>  (310) 
-0.188794

>  <r_i_glide_ligand_efficiency_ln>  (310) 
-0.414157

>  <r_i_glide_gscore>  (310) 
-1.82279

>  <r_i_glide_lipo>  (310) 
-0.572853

>  <r_i_glide_hbond>  (310) 
0

>  <r_i_glide_metal>  (310) 
-0

>  <r_i_glide_rewards>  (310) 
-0.587227

>  <r_i_glide_evdw>  (310) 
-13.1514

>  <r_i_glide_ecoul>  (310) 
-0.800166

>  <r_i_glide_erotb>  (310) 
0.114887

>  <r_i_glide_esite>  (310) 
0

>  <r_i_glide_emodel>  (310) 
-13.9446

>  <r_i_glide_energy>  (310) 
-13.9516

>  <r_i_glide_einternal>  (310) 
0.908731

>  <r_i_glide_intrahb_reward>  (310) 
-0

>  <i_i_glide_confnum>  (310) 
1

>  <i_i_glide_posenum>  (310) 
8

>  <r_i_glide_eff_state_penalty>  (310) 
0

>  <ligand_id>  (310) 
99

>  <original_smiles>  (310) 
C=C1OC(C)C2COC3C(C)CCC4C5(C)C(c6ccoc6)C(=O)OC5C(O)C1C234

>  <smiles>  (310) 
[H]OC1([H])C2([H])OC(=O)C([H])(c3c([H])oc([H])c3[H])C2(C([H])([H])[H])C2([H])C([H])([H])C([H])([H])C([H])(C([H])([H])[H])C3([H])OC([H])([H])C4([H])C([H])(C([H])([H])[H])OC(=C([H])[H])C1([H])C342

$$$$
99:0:1
     RDKit          3D

 60 65  0  0  1  0  0  0  0  0999 V2000
    4.5592   -0.3580   -2.4037 C   0  0  0  0  0  0  0  0  0  0  0  0
    4.1712   -1.2359   -1.4368 C   0  0  0  0  0  0  0  0  0  0  0  0
    3.3437   -2.2052   -1.8716 O   0  0  0  0  0  0  0  0  0  0  0  0
    2.8235   -3.0566   -0.8789 C   0  0  1  0  0  0  0  0  0  0  0  0
    1.7508   -3.8533   -1.6340 C   0  0  0  0  0  0  0  0  0  0  0  0
    3.9799   -3.7889   -0.1436 C   0  0  1  0  0  0  0  0  0  0  0  0
    4.7946   -4.7087   -1.0445 C   0  0  0  0  0  0  0  0  0  0  0  0
    5.8461   -3.8916   -1.5162 O   0  0  0  0  0  0  0  0  0  0  0  0
    6.3473   -3.1332   -0.4534 C   0  0  2  0  0  0  0  0  0  0  0  0
    7.5206   -3.9343    0.1765 C   0  0  1  0  0  0  0  0  0  0  0  0
    8.6890   -2.9898    0.4576 C   0  0  0  0  0  0  0  0  0  0  0  0
    7.1385   -4.8316    1.3675 C   0  0  0  0  0  0  0  0  0  0  0  0
    5.9084   -4.3928    2.1581 C   0  0  0  0  0  0  0  0  0  0  0  0
    5.4026   -2.9580    1.8926 C   0  0  2  0  0  0  0  0  0  0  0  0
    4.3466   -2.3822    2.9133 C   0  0  2  0  0  0  0  0  0  0  0  0
    4.9652   -2.3263    4.3334 C   0  0  0  0  0  0  0  0  0  0  0  0
    2.9293   -2.9987    2.9373 C   0  0  1  0  0  0  0  0  0  0  0  0
    2.6634   -4.3074    3.6901 C   0  0  0  0  0  0  0  0  0  0  0  0
    1.4397   -4.9268    3.9526 C   0  0  0  0  0  0  0  0  0  0  0  0
    1.6951   -6.1156    4.6295 C   0  0  0  0  0  0  0  0  0  0  0  0
    3.0109   -6.2725    4.7794 O   0  0  0  0  0  0  0  0  0  0  0  0
    3.6195   -5.2084    4.2392 C   0  0  0  0  0  0  0  0  0  0  0  0
    2.1182   -1.8260    3.4840 C   0  0  0  0  0  0  0  0  0  0  0  0
    1.0316   -1.8849    4.0381 O   0  0  0  0  0  0  0  0  0  0  0  0
    2.8236   -0.6871    3.2632 O   0  0  0  0  0  0  0  0  0  0  0  0
    4.0359   -0.9295    2.5375 C   0  0  2  0  0  0  0  0  0  0  0  0
    3.7230   -0.6993    1.0502 C   0  0  1  0  0  0  0  0  0  0  0  0
    3.7470    0.6968    0.8892 O   0  0  0  0  0  0  0  0  0  0  0  0
    4.6963   -1.3195    0.0194 C   0  0  1  0  0  0  0  0  0  0  0  0
    5.0660   -2.7902    0.3832 C   0  0  2  0  0  0  0  0  0  0  0  0
    5.3207    0.3734   -2.2319 H   0  0  0  0  0  0  0  0  0  0  0  0
    4.1543   -0.3742   -3.3806 H   0  0  0  0  0  0  0  0  0  0  0  0
    2.2344   -2.5051   -0.1628 H   0  0  0  0  0  0  0  0  0  0  0  0
    1.4504   -4.7139   -1.0449 H   0  0  0  0  0  0  0  0  0  0  0  0
    2.1661   -4.2211   -2.6021 H   0  0  0  0  0  0  0  0  0  0  0  0
    0.8414   -3.2306   -1.8304 H   0  0  0  0  0  0  0  0  0  0  0  0
    3.5223   -4.3918    0.6412 H   0  0  0  0  0  0  0  0  0  0  0  0
    5.1682   -5.5581   -0.4808 H   0  0  0  0  0  0  0  0  0  0  0  0
    4.3038   -5.0451   -1.9062 H   0  0  0  0  0  0  0  0  0  0  0  0
    6.7644   -2.2799   -0.9866 H   0  0  0  0  0  0  0  0  0  0  0  0
    7.9549   -4.6065   -0.5451 H   0  0  0  0  0  0  0  0  0  0  0  0
    8.3523   -2.2033    1.1097 H   0  0  0  0  0  0  0  0  0  0  0  0
    9.0531   -2.4848   -0.4523 H   0  0  0  0  0  0  0  0  0  0  0  0
    9.5202   -3.5245    0.9071 H   0  0  0  0  0  0  0  0  0  0  0  0
    6.9983   -5.8818    1.0390 H   0  0  0  0  0  0  0  0  0  0  0  0
    7.9701   -4.8661    2.0576 H   0  0  0  0  0  0  0  0  0  0  0  0
    5.1287   -5.1160    1.9808 H   0  0  0  0  0  0  0  0  0  0  0  0
    6.2157   -4.4583    3.2112 H   0  0  0  0  0  0  0  0  0  0  0  0
    6.2712   -2.3189    2.0316 H   0  0  0  0  0  0  0  0  0  0  0  0
    4.3690   -1.7573    5.0436 H   0  0  0  0  0  0  0  0  0  0  0  0
    5.8939   -1.7871    4.2541 H   0  0  0  0  0  0  0  0  0  0  0  0
    5.2030   -3.2919    4.7999 H   0  0  0  0  0  0  0  0  0  0  0  0
    2.5284   -3.1103    1.9315 H   0  0  0  0  0  0  0  0  0  0  0  0
    0.4352   -4.5804    3.7045 H   0  0  0  0  0  0  0  0  0  0  0  0
    1.1196   -6.9159    5.0445 H   0  0  0  0  0  0  0  0  0  0  0  0
    4.6860   -5.2784    4.3223 H   0  0  0  0  0  0  0  0  0  0  0  0
    4.8321   -0.2553    2.8772 H   0  0  0  0  0  0  0  0  0  0  0  0
    2.6876   -0.9263    0.8466 H   0  0  0  0  0  0  0  0  0  0  0  0
    4.6259    1.0294    1.0599 H   0  0  0  0  0  0  0  0  0  0  0  0
    5.6223   -0.7494    0.0806 H   0  0  0  0  0  0  0  0  0  0  0  0
  1  2  2  0
  1 31  1  0
  1 32  1  0
  2 29  1  0
  2  3  1  0
  3  4  1  0
  4  5  1  0
  4  6  1  0
  4 33  1  1
  5 34  1  0
  5 35  1  0
  5 36  1  0
 30  6  1  6
  6  7  1  0
  6 37  1  1
  7  8  1  0
  7 38  1  0
  7 39  1  0
  8  9  1  0
  9 30  1  0
  9 10  1  0
  9 40  1  6
 10 11  1  0
 10 12  1  0
 10 41  1  6
 11 42  1  0
 11 43  1  0
 11 44  1  0
 12 13  1  0
 12 45  1  0
 12 46  1  0
 13 14  1  0
 13 47  1  0
 13 48  1  0
 14 30  1  0
 14 15  1  0
 14 49  1  6
 15 26  1  0
 15 16  1  1
 15 17  1  0
 16 50  1  0
 16 51  1  0
 16 52  1  0
 17 18  1  0
 17 23  1  0
 17 53  1  6
 18 22  2  0
 18 19  1  0
 19 20  2  0
 19 54  1  0
 20 21  1  0
 20 55  1  0
 21 22  1  0
 22 56  1  0
 23 24  2  0
 23 25  1  0
 25 26  1  0
 26 27  1  0
 26 57  1  1
 27 28  1  0
 27 29  1  0
 27 58  1  6
 28 59  1  0
 29 30  1  0
 29 60  1  6
M  END
>  <i_m_ct_stereo_status>  (311) 
1

>  <s_m_source_file>  (311) 
/var/tmp/pbs.5076255.sched01/tmpy8l6melh/117u1qm2xak.sdf

>  <i_m_source_file_index>  (311) 
20

>  <i_lp_mmshare_version>  (311) 
48012

>  <i_f3d_flags>  (311) 
0

>  <s_epik_input>  (311) 
W0NAQF0xMjNbQ0BIXTRbQ0BIXShbQ0gzXSlPQyg9W0NIMl0pW0NASF0zW0NASF0oW09IXSlbQ0BASF01W0NAQF0oW0NIM10pKFtDQEhdKEMoPU8pTzUpYzZbY0hdW2NIXW9bY0hdNilbQ0BIXTJbQ0gyXVtDSDJdW0NASF0oW0NIM10pW0NASF0xT1tDSDJdNA==

>  <s_epik_cmdline>  (311) 
J2VwaWtfcHl0aG9uJywgJy1waHQnLCAnMi4wJywgJy1waCcsICc3LjAnLCAnLXRuJywgJzgnLCAnLW1hJywgJzIwMCcsICctaW1hZScsICc8aW5maWxlLm1hZT4nLCAnLW9tYWUnLCAnPG91dGZpbGUubWFlPic=

>  <r_lp_tautomer_probability>  (311) 
1

>  <r_epik_Ionization_Penalty>  (311) 
7.91624e-07

>  <r_epik_Ionization_Penalty_Charging>  (311) 
0

>  <r_epik_Ionization_Penalty_Neutral>  (311) 
7.91624e-07

>  <r_epik_State_Penalty>  (311) 
-0

>  <r_epik_Charging_Adjusted_Penalty>  (311) 
0

>  <i_epik_Tot_Q>  (311) 
0

>  <i_epik_Tot_abs_Q>  (311) 
0

>  <s_epik_Chemistry_Notes>  (311) 
This compound has an ester and may undergo hydrolysis at high or low pH.

>  <s_lp_Force_Field>  (311) 
OPLS3e

>  <r_lp_Energy>  (311) 
53.5131

>  <b_lp_Chiralities_Consistent>  (311) 
1

>  <s_lp_Variant>  (311) 
99:0-1

>  <s_i_glide_gridfile>  (311) 
pfpi4k_grid

>  <i_i_glide_lignum>  (311) 
20

>  <i_i_glide_rotatable_bonds>  (311) 
2

>  <r_i_docking_score>  (311) 
-1.61578

>  <r_i_glide_ligand_efficiency>  (311) 
-0.0538592

>  <r_i_glide_ligand_efficiency_sa>  (311) 
-0.167353

>  <r_i_glide_ligand_efficiency_ln>  (311) 
-0.367122

>  <r_i_glide_gscore>  (311) 
-1.61578

>  <r_i_glide_lipo>  (311) 
-0.647852

>  <r_i_glide_hbond>  (311) 
0

>  <r_i_glide_metal>  (311) 
-0

>  <r_i_glide_rewards>  (311) 
-0.583013

>  <r_i_glide_evdw>  (311) 
-5.93689

>  <r_i_glide_ecoul>  (311) 
-1.35303

>  <r_i_glide_erotb>  (311) 
0.114887

>  <r_i_glide_esite>  (311) 
0

>  <r_i_glide_emodel>  (311) 
-5.50952

>  <r_i_glide_energy>  (311) 
-7.28992

>  <r_i_glide_einternal>  (311) 
0.88962

>  <r_i_glide_intrahb_reward>  (311) 
-0

>  <i_i_glide_confnum>  (311) 
1

>  <i_i_glide_posenum>  (311) 
4

>  <r_i_glide_eff_state_penalty>  (311) 
0

>  <ligand_id>  (311) 
99

>  <original_smiles>  (311) 
C=C1OC(C)C2COC3C(C)CCC4C5(C)C(c6ccoc6)C(=O)OC5C(O)C1C234

>  <smiles>  (311) 
[H]OC1([H])C2([H])OC(=O)C([H])(c3c([H])oc([H])c3[H])C2(C([H])([H])[H])C2([H])C([H])([H])C([H])([H])C([H])(C([H])([H])[H])C3([H])OC([H])([H])C4([H])C([H])(C([H])([H])[H])OC(=C([H])[H])C1([H])C342

$$$$
99:0:2
     RDKit          3D

 60 65  0  0  1  0  0  0  0  0999 V2000
    4.2557   -0.3376   -2.3769 C   0  0  0  0  0  0  0  0  0  0  0  0
    3.9363   -1.2620   -1.4594 C   0  0  0  0  0  0  0  0  0  0  0  0
    3.1732   -2.3044   -1.8861 O   0  0  0  0  0  0  0  0  0  0  0  0
    2.7093   -3.1921   -0.8906 C   0  0  1  0  0  0  0  0  0  0  0  0
    1.6102   -4.0658   -1.5256 C   0  0  0  0  0  0  0  0  0  0  0  0
    3.9242   -3.8173   -0.1382 C   0  0  1  0  0  0  0  0  0  0  0  0
    4.8088   -4.6983   -1.0071 C   0  0  0  0  0  0  0  0  0  0  0  0
    5.8201   -3.8615   -1.4972 O   0  0  0  0  0  0  0  0  0  0  0  0
    6.2378   -3.0326   -0.4618 C   0  0  2  0  0  0  0  0  0  0  0  0
    7.4528   -3.7384    0.1890 C   0  0  1  0  0  0  0  0  0  0  0  0
    8.5640   -2.7251    0.4738 C   0  0  0  0  0  0  0  0  0  0  0  0
    7.1220   -4.6549    1.3926 C   0  0  0  0  0  0  0  0  0  0  0  0
    5.8491   -4.3018    2.1912 C   0  0  0  0  0  0  0  0  0  0  0  0
    5.2821   -2.8918    1.8869 C   0  0  2  0  0  0  0  0  0  0  0  0
    4.2171   -2.3539    2.9027 C   0  0  2  0  0  0  0  0  0  0  0  0
    4.8729   -2.2757    4.3121 C   0  0  0  0  0  0  0  0  0  0  0  0
    2.8244   -3.0362    2.9417 C   0  0  1  0  0  0  0  0  0  0  0  0
    2.6988   -4.3434    3.7201 C   0  0  0  0  0  0  0  0  0  0  0  0
    2.5424   -5.6465    3.1641 C   0  0  0  0  0  0  0  0  0  0  0  0
    2.4647   -6.5131    4.2146 C   0  0  0  0  0  0  0  0  0  0  0  0
    2.5560   -5.8450    5.3924 O   0  0  0  0  0  0  0  0  0  0  0  0
    2.6914   -4.5329    5.0700 C   0  0  0  0  0  0  0  0  0  0  0  0
    1.9588   -1.9032    3.4904 C   0  0  0  0  0  0  0  0  0  0  0  0
    0.8809   -2.0456    4.0652 O   0  0  0  0  0  0  0  0  0  0  0  0
    2.5910   -0.7527    3.2549 O   0  0  0  0  0  0  0  0  0  0  0  0
    3.8044   -0.9205    2.5246 C   0  0  2  0  0  0  0  0  0  0  0  0
    3.4618   -0.7338    1.0376 C   0  0  1  0  0  0  0  0  0  0  0  0
    3.4989    0.6438    0.8885 O   0  0  0  0  0  0  0  0  0  0  0  0
    4.4636   -1.3156    0.0094 C   0  0  1  0  0  0  0  0  0  0  0  0
    4.9390   -2.7500    0.3762 C   0  0  2  0  0  0  0  0  0  0  0  0
    4.8799    0.4897   -2.1523 H   0  0  0  0  0  0  0  0  0  0  0  0
    3.8726   -0.3753   -3.3865 H   0  0  0  0  0  0  0  0  0  0  0  0
    2.1208   -2.6462   -0.1766 H   0  0  0  0  0  0  0  0  0  0  0  0
    1.3781   -4.9544   -0.9019 H   0  0  0  0  0  0  0  0  0  0  0  0
    1.8739   -4.3300   -2.5287 H   0  0  0  0  0  0  0  0  0  0  0  0
    0.7095   -3.5031   -1.7672 H   0  0  0  0  0  0  0  0  0  0  0  0
    3.5006   -4.4392    0.6519 H   0  0  0  0  0  0  0  0  0  0  0  0
    5.2139   -5.5483   -0.4399 H   0  0  0  0  0  0  0  0  0  0  0  0
    4.3075   -5.0134   -1.8983 H   0  0  0  0  0  0  0  0  0  0  0  0
    6.5895   -2.1571   -1.0147 H   0  0  0  0  0  0  0  0  0  0  0  0
    7.9118   -4.3899   -0.5519 H   0  0  0  0  0  0  0  0  0  0  0  0
    8.2027   -1.9500    1.1361 H   0  0  0  0  0  0  0  0  0  0  0  0
    8.8777   -2.2160   -0.4440 H   0  0  0  0  0  0  0  0  0  0  0  0
    9.4491   -3.2107    0.8793 H   0  0  0  0  0  0  0  0  0  0  0  0
    7.0524   -5.6952    1.0653 H   0  0  0  0  0  0  0  0  0  0  0  0
    7.9744   -4.6446    2.0662 H   0  0  0  0  0  0  0  0  0  0  0  0
    5.0995   -5.0672    2.0051 H   0  0  0  0  0  0  0  0  0  0  0  0
    6.0875   -4.3987    3.2473 H   0  0  0  0  0  0  0  0  0  0  0  0
    6.1165   -2.2097    2.0138 H   0  0  0  0  0  0  0  0  0  0  0  0
    4.2473   -1.7486    5.0342 H   0  0  0  0  0  0  0  0  0  0  0  0
    5.8085   -1.7231    4.2586 H   0  0  0  0  0  0  0  0  0  0  0  0
    5.0842   -3.2569    4.7418 H   0  0  0  0  0  0  0  0  0  0  0  0
    2.4371   -3.2042    1.9415 H   0  0  0  0  0  0  0  0  0  0  0  0
    2.4996   -5.9288    2.1213 H   0  0  0  0  0  0  0  0  0  0  0  0
    2.3503   -7.5835    4.2932 H   0  0  0  0  0  0  0  0  0  0  0  0
    2.7795   -3.8747    5.9230 H   0  0  0  0  0  0  0  0  0  0  0  0
    4.5682   -0.2074    2.8462 H   0  0  0  0  0  0  0  0  0  0  0  0
    2.4350   -1.0100    0.8500 H   0  0  0  0  0  0  0  0  0  0  0  0
    2.7438    1.0121    1.3526 H   0  0  0  0  0  0  0  0  0  0  0  0
    5.3477   -0.6849    0.0587 H   0  0  0  0  0  0  0  0  0  0  0  0
  1  2  2  0
  1 31  1  0
  1 32  1  0
  2 29  1  0
  2  3  1  0
  3  4  1  0
  4  5  1  0
  4  6  1  0
  4 33  1  1
  5 34  1  0
  5 35  1  0
  5 36  1  0
 30  6  1  6
  6  7  1  0
  6 37  1  1
  7  8  1  0
  7 38  1  0
  7 39  1  0
  8  9  1  0
  9 30  1  0
  9 10  1  0
  9 40  1  6
 10 11  1  0
 10 12  1  0
 10 41  1  6
 11 42  1  0
 11 43  1  0
 11 44  1  0
 12 13  1  0
 12 45  1  0
 12 46  1  0
 13 14  1  0
 13 47  1  0
 13 48  1  0
 14 30  1  0
 14 15  1  0
 14 49  1  6
 15 26  1  0
 15 16  1  1
 15 17  1  0
 16 50  1  0
 16 51  1  0
 16 52  1  0
 17 18  1  0
 17 23  1  0
 17 53  1  6
 18 22  2  0
 18 19  1  0
 19 20  2  0
 19 54  1  0
 20 21  1  0
 20 55  1  0
 21 22  1  0
 22 56  1  0
 23 24  2  0
 23 25  1  0
 25 26  1  0
 26 27  1  0
 26 57  1  1
 27 28  1  0
 27 29  1  0
 27 58  1  1
 28 59  1  0
 29 30  1  0
 29 60  1  6
M  END
>  <i_m_ct_stereo_status>  (312) 
1

>  <s_m_source_file>  (312) 
/var/tmp/pbs.5076255.sched01/tmpy8l6melh/117u1qm2xak.sdf

>  <i_m_source_file_index>  (312) 
20

>  <i_lp_mmshare_version>  (312) 
48012

>  <i_f3d_flags>  (312) 
0

>  <s_epik_input>  (312) 
W0NAQF0xMjNbQ0BIXTRbQ0BIXShbQ0gzXSlPQyg9W0NIMl0pW0NASF0zW0NASF0oW09IXSlbQ0BASF01W0NAQF0oW0NIM10pKFtDQEhdKEMoPU8pTzUpYzZbY0hdW2NIXW9bY0hdNilbQ0BIXTJbQ0gyXVtDSDJdW0NASF0oW0NIM10pW0NASF0xT1tDSDJdNA==

>  <s_epik_cmdline>  (312) 
J2VwaWtfcHl0aG9uJywgJy1waHQnLCAnMi4wJywgJy1waCcsICc3LjAnLCAnLXRuJywgJzgnLCAnLW1hJywgJzIwMCcsICctaW1hZScsICc8aW5maWxlLm1hZT4nLCAnLW9tYWUnLCAnPG91dGZpbGUubWFlPic=

>  <r_lp_tautomer_probability>  (312) 
1

>  <r_epik_Ionization_Penalty>  (312) 
7.91624e-07

>  <r_epik_Ionization_Penalty_Charging>  (312) 
0

>  <r_epik_Ionization_Penalty_Neutral>  (312) 
7.91624e-07

>  <r_epik_State_Penalty>  (312) 
-0

>  <r_epik_Charging_Adjusted_Penalty>  (312) 
0

>  <i_epik_Tot_Q>  (312) 
0

>  <i_epik_Tot_abs_Q>  (312) 
0

>  <s_epik_Chemistry_Notes>  (312) 
This compound has an ester and may undergo hydrolysis at high or low pH.

>  <s_lp_Force_Field>  (312) 
OPLS3e

>  <r_lp_Energy>  (312) 
53.5131

>  <b_lp_Chiralities_Consistent>  (312) 
1

>  <s_lp_Variant>  (312) 
99:0-1

>  <s_i_glide_gridfile>  (312) 
pfpi4k_grid

>  <i_i_glide_lignum>  (312) 
20

>  <i_i_glide_rotatable_bonds>  (312) 
2

>  <r_i_docking_score>  (312) 
-1.58886

>  <r_i_glide_ligand_efficiency>  (312) 
-0.0529619

>  <r_i_glide_ligand_efficiency_sa>  (312) 
-0.164565

>  <r_i_glide_ligand_efficiency_ln>  (312) 
-0.361005

>  <r_i_glide_gscore>  (312) 
-1.58886

>  <r_i_glide_lipo>  (312) 
-0.671075

>  <r_i_glide_hbond>  (312) 
0

>  <r_i_glide_metal>  (312) 
-0

>  <r_i_glide_rewards>  (312) 
-0.588242

>  <r_i_glide_evdw>  (312) 
-5.62276

>  <r_i_glide_ecoul>  (312) 
-1.08859

>  <r_i_glide_erotb>  (312) 
0.114887

>  <r_i_glide_esite>  (312) 
0

>  <r_i_glide_emodel>  (312) 
-5.25478

>  <r_i_glide_energy>  (312) 
-6.71135

>  <r_i_glide_einternal>  (312) 
0.451254

>  <r_i_glide_intrahb_reward>  (312) 
-0

>  <i_i_glide_confnum>  (312) 
2

>  <i_i_glide_posenum>  (312) 
1

>  <r_i_glide_eff_state_penalty>  (312) 
0

>  <ligand_id>  (312) 
99

>  <original_smiles>  (312) 
C=C1OC(C)C2COC3C(C)CCC4C5(C)C(c6ccoc6)C(=O)OC5C(O)C1C234

>  <smiles>  (312) 
[H]OC1([H])C2([H])OC(=O)C([H])(c3c([H])oc([H])c3[H])C2(C([H])([H])[H])C2([H])C([H])([H])C([H])([H])C([H])(C([H])([H])[H])C3([H])OC([H])([H])C4([H])C([H])(C([H])([H])[H])OC(=C([H])[H])C1([H])C342

$$$$
100:0:0
     RDKit          3D

 32 34  0  0  1  0  0  0  0  0999 V2000
    5.8497   -4.7067    1.6097 C   0  0  0  0  0  0  0  0  0  0  0  0
    5.2051   -3.4894    2.0663 N   0  0  0  0  0  0  0  0  0  0  0  0
    5.0880   -3.1236    3.3955 C   0  0  0  0  0  0  0  0  0  0  0  0
    4.4430   -1.9221    3.4543 C   0  0  0  0  0  0  0  0  0  0  0  0
    4.1411   -1.5429    2.1214 C   0  0  0  0  0  0  0  0  0  0  0  0
    4.6155   -2.5073    1.2739 C   0  0  0  0  0  0  0  0  0  0  0  0
    4.5420   -2.5900   -0.2345 C   0  0  2  0  0  0  0  0  0  0  0  0
    4.5175   -1.1929   -0.9249 C   0  0  0  0  0  0  0  0  0  0  0  0
    3.9805   -1.2541   -2.3738 C   0  0  1  0  0  0  0  0  0  0  0  0
    4.7598   -2.2318   -3.2704 C   0  0  0  0  0  0  0  0  0  0  0  0
    4.0053   -3.5497   -3.1890 C   0  0  0  0  0  0  0  0  0  0  0  0
    2.8819   -3.2805   -2.1922 C   0  0  2  0  0  0  0  0  0  0  0  0
    2.6313   -1.8335   -2.2725 N   0  0  0  0  0  0  0  0  0  0  0  0
    3.3523   -3.4841   -0.7216 C   0  0  0  0  0  0  0  0  0  0  0  0
    2.8476   -4.3363    0.0119 O   0  0  0  0  0  0  0  0  0  0  0  0
    6.2427   -5.2738    2.4550 H   0  0  0  0  0  0  0  0  0  0  0  0
    6.6771   -4.4676    0.9362 H   0  0  0  0  0  0  0  0  0  0  0  0
    5.1310   -5.3361    1.0804 H   0  0  0  0  0  0  0  0  0  0  0  0
    5.4794   -3.7474    4.1896 H   0  0  0  0  0  0  0  0  0  0  0  0
    4.2093   -1.3809    4.3591 H   0  0  0  0  0  0  0  0  0  0  0  0
    3.6201   -0.6430    1.8253 H   0  0  0  0  0  0  0  0  0  0  0  0
    5.4371   -3.1018   -0.5818 H   0  0  0  0  0  0  0  0  0  0  0  0
    3.8676   -0.5180   -0.3675 H   0  0  0  0  0  0  0  0  0  0  0  0
    5.5124   -0.7525   -0.8882 H   0  0  0  0  0  0  0  0  0  0  0  0
    3.9487   -0.2412   -2.7846 H   0  0  0  0  0  0  0  0  0  0  0  0
    4.6886   -1.8613   -4.2895 H   0  0  0  0  0  0  0  0  0  0  0  0
    5.8065   -2.3057   -3.0043 H   0  0  0  0  0  0  0  0  0  0  0  0
    3.5582   -3.8248   -4.1389 H   0  0  0  0  0  0  0  0  0  0  0  0
    4.6385   -4.3674   -2.8635 H   0  0  0  0  0  0  0  0  0  0  0  0
    1.9698   -3.8540   -2.3705 H   0  0  0  0  0  0  0  0  0  0  0  0
    2.0017   -1.4674   -1.5447 H   0  0  0  0  0  0  0  0  0  0  0  0
    2.1768   -1.6688   -3.1769 H   0  0  0  0  0  0  0  0  0  0  0  0
  1  2  1  0
  1 16  1  0
  1 17  1  0
  1 18  1  0
  2  6  1  0
  2  3  1  0
  3  4  2  0
  3 19  1  0
  4  5  1  0
  4 20  1  0
  5  6  2  0
  5 21  1  0
  6  7  1  0
  7 14  1  0
  7  8  1  0
  7 22  1  6
  8  9  1  0
  8 23  1  0
  8 24  1  0
  9 13  1  0
  9 10  1  0
  9 25  1  6
 10 11  1  0
 10 26  1  0
 10 27  1  0
 11 12  1  0
 11 28  1  0
 11 29  1  0
 12 13  1  0
 12 14  1  0
 12 30  1  6
 13 31  1  0
 13 32  1  0
 14 15  2  0
M  CHG  1  13   1
M  END
>  <i_m_ct_stereo_status>  (313) 
1

>  <s_m_source_file>  (313) 
/var/tmp/pbs.5076255.sched01/tmpy8l6melh/117u1qm2xak.sdf

>  <i_m_source_file_index>  (313) 
21

>  <i_lp_mmshare_version>  (313) 
48012

>  <i_f3d_flags>  (313) 
0

>  <s_epik_input>  (313) 
W0NIM11uMVtjSF1bY0hdW2NIXWMxW0NASF0oW0NIMl1bQ0BASF0yMylDKD1PKVtDQEBIXShbTkhdMylbQ0gyXVtDSDJdMg==

>  <s_epik_cmdline>  (313) 
J2VwaWtfcHl0aG9uJywgJy1waHQnLCAnMi4wJywgJy1waCcsICc3LjAnLCAnLXRuJywgJzgnLCAnLW1hJywgJzIwMCcsICctaW1hZScsICc8aW5maWxlLm1hZT4nLCAnLW9tYWUnLCAnPG91dGZpbGUubWFlPic=

>  <r_lp_tautomer_probability>  (313) 
0.99995

>  <r_epik_Ionization_Penalty>  (313) 
0.27187

>  <r_epik_Ionization_Penalty_Charging>  (313) 
0.27187

>  <r_epik_Ionization_Penalty_Neutral>  (313) 
1.72027e-09

>  <r_epik_State_Penalty>  (313) 
0.264051

>  <r_epik_Charging_Adjusted_Penalty>  (313) 
0.535921

>  <i_epik_Tot_Q>  (313) 
1

>  <i_epik_Tot_abs_Q>  (313) 
1

>  <s_lp_Force_Field>  (313) 
OPLS3e

>  <r_lp_Energy>  (313) 
29.507

>  <b_lp_Chiralities_Consistent>  (313) 
1

>  <s_lp_Variant>  (313) 
100:0-1

>  <s_i_glide_gridfile>  (313) 
pfpi4k_grid

>  <i_i_glide_lignum>  (313) 
21

>  <i_i_glide_rotatable_bonds>  (313) 
1

>  <r_i_docking_score>  (313) 
-4.17419

>  <r_i_glide_ligand_efficiency>  (313) 
-0.27828

>  <r_i_glide_ligand_efficiency_sa>  (313) 
-0.686296

>  <r_i_glide_ligand_efficiency_ln>  (313) 
-1.12571

>  <r_i_glide_gscore>  (313) 
-4.17419

>  <r_i_glide_lipo>  (313) 
-0.239752

>  <r_i_glide_hbond>  (313) 
-0.198792

>  <r_i_glide_metal>  (313) 
-0

>  <r_i_glide_rewards>  (313) 
-2.13014

>  <r_i_glide_evdw>  (313) 
-14.5397

>  <r_i_glide_ecoul>  (313) 
-7.9839

>  <r_i_glide_erotb>  (313) 
0.390962

>  <r_i_glide_esite>  (313) 
-0.0719061

>  <r_i_glide_emodel>  (313) 
-30.1689

>  <r_i_glide_energy>  (313) 
-22.5236

>  <r_i_glide_einternal>  (313) 
0.0979913

>  <r_i_glide_intrahb_reward>  (313) 
-0

>  <i_i_glide_confnum>  (313) 
3

>  <i_i_glide_posenum>  (313) 
20

>  <r_i_glide_eff_state_penalty>  (313) 
0

>  <ligand_id>  (313) 
100

>  <original_smiles>  (313) 
Cn1cccc1C1CC2CCC(N2)C1=O

>  <smiles>  (313) 
[H]c1c([H])c(C2([H])C(=O)C3([H])C([H])([H])C([H])([H])C([H])(C2([H])[H])[N+]3([H])[H])n(C([H])([H])[H])c1[H]

$$$$
100:0:1
     RDKit          3D

 32 34  0  0  1  0  0  0  0  0999 V2000
    2.1278   -1.4560    1.5621 C   0  0  0  0  0  0  0  0  0  0  0  0
    3.3991   -1.9753    2.0477 N   0  0  0  0  0  0  0  0  0  0  0  0
    3.6998   -2.0512    3.3932 C   0  0  0  0  0  0  0  0  0  0  0  0
    4.9266   -2.6293    3.5350 C   0  0  0  0  0  0  0  0  0  0  0  0
    5.4064   -2.9248    2.2252 C   0  0  0  0  0  0  0  0  0  0  0  0
    4.4611   -2.5095    1.3118 C   0  0  0  0  0  0  0  0  0  0  0  0
    4.4828   -2.6176   -0.1905 C   0  0  2  0  0  0  0  0  0  0  0  0
    4.5624   -1.2127   -0.9143 C   0  0  0  0  0  0  0  0  0  0  0  0
    4.0118   -1.3007   -2.3625 C   0  0  1  0  0  0  0  0  0  0  0  0
    4.8069   -2.2723   -3.2295 C   0  0  0  0  0  0  0  0  0  0  0  0
    4.0530   -3.5980   -3.1741 C   0  0  0  0  0  0  0  0  0  0  0  0
    2.9051   -3.3255   -2.2016 C   0  0  2  0  0  0  0  0  0  0  0  0
    2.6438   -1.8763   -2.2651 N   0  0  0  0  0  0  0  0  0  0  0  0
    3.3482   -3.5416   -0.7406 C   0  0  0  0  0  0  0  0  0  0  0  0
    2.8418   -4.4286   -0.0446 O   0  0  0  0  0  0  0  0  0  0  0  0
    1.4670   -1.2304    2.4048 H   0  0  0  0  0  0  0  0  0  0  0  0
    1.6454   -2.2309    0.9638 H   0  0  0  0  0  0  0  0  0  0  0  0
    2.2594   -0.5474    0.9703 H   0  0  0  0  0  0  0  0  0  0  0  0
    3.0037   -1.7026    4.1378 H   0  0  0  0  0  0  0  0  0  0  0  0
    5.4005   -2.8215    4.4941 H   0  0  0  0  0  0  0  0  0  0  0  0
    6.3482   -3.4011    1.9870 H   0  0  0  0  0  0  0  0  0  0  0  0
    5.3953   -3.1421   -0.4698 H   0  0  0  0  0  0  0  0  0  0  0  0
    3.9828   -0.4364   -0.4001 H   0  0  0  0  0  0  0  0  0  0  0  0
    5.5986   -0.8363   -0.9044 H   0  0  0  0  0  0  0  0  0  0  0  0
    3.9618   -0.2994   -2.7891 H   0  0  0  0  0  0  0  0  0  0  0  0
    4.7707   -1.8956   -4.2498 H   0  0  0  0  0  0  0  0  0  0  0  0
    5.8495   -2.3430   -2.9224 H   0  0  0  0  0  0  0  0  0  0  0  0
    3.6515   -3.8752   -4.1513 H   0  0  0  0  0  0  0  0  0  0  0  0
    4.6934   -4.4155   -2.8347 H   0  0  0  0  0  0  0  0  0  0  0  0
    2.0091   -3.9093   -2.4269 H   0  0  0  0  0  0  0  0  0  0  0  0
    2.0394   -1.5121   -1.5276 H   0  0  0  0  0  0  0  0  0  0  0  0
    2.1912   -1.7289   -3.1483 H   0  0  0  0  0  0  0  0  0  0  0  0
  1  2  1  0
  1 16  1  0
  1 17  1  0
  1 18  1  0
  2  6  1  0
  2  3  1  0
  3  4  2  0
  3 19  1  0
  4  5  1  0
  4 20  1  0
  5  6  2  0
  5 21  1  0
  6  7  1  0
  7 14  1  0
  7  8  1  0
  7 22  1  1
  8  9  1  0
  8 23  1  0
  8 24  1  0
  9 13  1  0
  9 10  1  0
  9 25  1  6
 10 11  1  0
 10 26  1  0
 10 27  1  0
 11 12  1  0
 11 28  1  0
 11 29  1  0
 12 13  1  0
 12 14  1  0
 12 30  1  6
 13 31  1  0
 13 32  1  0
 14 15  2  0
M  CHG  1  13   1
M  END
>  <i_m_ct_stereo_status>  (314) 
1

>  <s_m_source_file>  (314) 
/var/tmp/pbs.5076255.sched01/tmpy8l6melh/117u1qm2xak.sdf

>  <i_m_source_file_index>  (314) 
21

>  <i_lp_mmshare_version>  (314) 
48012

>  <i_f3d_flags>  (314) 
0

>  <s_epik_input>  (314) 
W0NIM11uMVtjSF1bY0hdW2NIXWMxW0NASF0oW0NIMl1bQ0BASF0yMylDKD1PKVtDQEBIXShbTkhdMylbQ0gyXVtDSDJdMg==

>  <s_epik_cmdline>  (314) 
J2VwaWtfcHl0aG9uJywgJy1waHQnLCAnMi4wJywgJy1waCcsICc3LjAnLCAnLXRuJywgJzgnLCAnLW1hJywgJzIwMCcsICctaW1hZScsICc8aW5maWxlLm1hZT4nLCAnLW9tYWUnLCAnPG91dGZpbGUubWFlPic=

>  <r_lp_tautomer_probability>  (314) 
0.99995

>  <r_epik_Ionization_Penalty>  (314) 
0.27187

>  <r_epik_Ionization_Penalty_Charging>  (314) 
0.27187

>  <r_epik_Ionization_Penalty_Neutral>  (314) 
1.72027e-09

>  <r_epik_State_Penalty>  (314) 
0.264051

>  <r_epik_Charging_Adjusted_Penalty>  (314) 
0.535921

>  <i_epik_Tot_Q>  (314) 
1

>  <i_epik_Tot_abs_Q>  (314) 
1

>  <s_lp_Force_Field>  (314) 
OPLS3e

>  <r_lp_Energy>  (314) 
29.507

>  <b_lp_Chiralities_Consistent>  (314) 
1

>  <s_lp_Variant>  (314) 
100:0-1

>  <s_i_glide_gridfile>  (314) 
pfpi4k_grid

>  <i_i_glide_lignum>  (314) 
21

>  <i_i_glide_rotatable_bonds>  (314) 
1

>  <r_i_docking_score>  (314) 
-4.15446

>  <r_i_glide_ligand_efficiency>  (314) 
-0.276964

>  <r_i_glide_ligand_efficiency_sa>  (314) 
-0.683052

>  <r_i_glide_ligand_efficiency_ln>  (314) 
-1.12039

>  <r_i_glide_gscore>  (314) 
-4.15446

>  <r_i_glide_lipo>  (314) 
-0.181846

>  <r_i_glide_hbond>  (314) 
-0.2

>  <r_i_glide_metal>  (314) 
-0

>  <r_i_glide_rewards>  (314) 
-2.05665

>  <r_i_glide_evdw>  (314) 
-14.0962

>  <r_i_glide_ecoul>  (314) 
-8.82737

>  <r_i_glide_erotb>  (314) 
0.390962

>  <r_i_glide_esite>  (314) 
-0.0780078

>  <r_i_glide_emodel>  (314) 
-29.8692

>  <r_i_glide_energy>  (314) 
-22.9236

>  <r_i_glide_einternal>  (314) 
1.24556

>  <r_i_glide_intrahb_reward>  (314) 
-0

>  <i_i_glide_confnum>  (314) 
1

>  <i_i_glide_posenum>  (314) 
14

>  <r_i_glide_eff_state_penalty>  (314) 
0

>  <ligand_id>  (314) 
100

>  <original_smiles>  (314) 
Cn1cccc1C1CC2CCC(N2)C1=O

>  <smiles>  (314) 
[H]c1c([H])c(C2([H])C(=O)C3([H])C([H])([H])C([H])([H])C([H])(C2([H])[H])[N+]3([H])[H])n(C([H])([H])[H])c1[H]

$$$$
100:0:2
     RDKit          3D

 32 34  0  0  1  0  0  0  0  0999 V2000
    4.6323   -6.1531    0.5318 C   0  0  0  0  0  0  0  0  0  0  0  0
    4.3248   -4.9750    1.3208 N   0  0  0  0  0  0  0  0  0  0  0  0
    4.2173   -4.9732    2.7072 C   0  0  0  0  0  0  0  0  0  0  0  0
    3.9266   -3.7091    3.1121 C   0  0  0  0  0  0  0  0  0  0  0  0
    3.8468   -2.8998    1.9432 C   0  0  0  0  0  0  0  0  0  0  0  0
    4.0937   -3.6870    0.8473 C   0  0  0  0  0  0  0  0  0  0  0  0
    4.1433   -3.3080   -0.6073 C   0  0  2  0  0  0  0  0  0  0  0  0
    4.8464   -1.9238   -0.8625 C   0  0  0  0  0  0  0  0  0  0  0  0
    4.4762   -1.3677   -2.2535 C   0  0  1  0  0  0  0  0  0  0  0  0
    4.8128   -2.3261   -3.4132 C   0  0  0  0  0  0  0  0  0  0  0  0
    3.5467   -3.1064   -3.6978 C   0  0  0  0  0  0  0  0  0  0  0  0
    2.5803   -2.6312   -2.6224 C   0  0  2  0  0  0  0  0  0  0  0  0
    3.0100   -1.2797   -2.2407 N   0  0  0  0  0  0  0  0  0  0  0  0
    2.7430   -3.4136   -1.2958 C   0  0  0  0  0  0  0  0  0  0  0  0
    1.8324   -4.0814   -0.7971 O   0  0  0  0  0  0  0  0  0  0  0  0
    4.7661   -7.0235    1.1799 H   0  0  0  0  0  0  0  0  0  0  0  0
    5.5532   -5.9908   -0.0307 H   0  0  0  0  0  0  0  0  0  0  0  0
    3.8120   -6.3518   -0.1575 H   0  0  0  0  0  0  0  0  0  0  0  0
    4.3356   -5.8776    3.2915 H   0  0  0  0  0  0  0  0  0  0  0  0
    3.7597   -3.4095    4.1426 H   0  0  0  0  0  0  0  0  0  0  0  0
    3.6218   -1.8477    1.8985 H   0  0  0  0  0  0  0  0  0  0  0  0
    4.7442   -4.0380   -1.1464 H   0  0  0  0  0  0  0  0  0  0  0  0
    4.5487   -1.1644   -0.1332 H   0  0  0  0  0  0  0  0  0  0  0  0
    5.9327   -2.0261   -0.7542 H   0  0  0  0  0  0  0  0  0  0  0  0
    4.9345   -0.3863   -2.3991 H   0  0  0  0  0  0  0  0  0  0  0  0
    5.0179   -1.7103   -4.2793 H   0  0  0  0  0  0  0  0  0  0  0  0
    5.6902   -2.9408   -3.2332 H   0  0  0  0  0  0  0  0  0  0  0  0
    3.1416   -2.8774   -4.6715 H   0  0  0  0  0  0  0  0  0  0  0  0
    3.6942   -4.1744   -3.6679 H   0  0  0  0  0  0  0  0  0  0  0  0
    1.5386   -2.6395   -2.9439 H   0  0  0  0  0  0  0  0  0  0  0  0
    2.5479   -0.9786   -1.3710 H   0  0  0  0  0  0  0  0  0  0  0  0
    2.7322   -0.6540   -2.9916 H   0  0  0  0  0  0  0  0  0  0  0  0
  1  2  1  0
  1 16  1  0
  1 17  1  0
  1 18  1  0
  2  6  1  0
  2  3  1  0
  3  4  2  0
  3 19  1  0
  4  5  1  0
  4 20  1  0
  5  6  2  0
  5 21  1  0
  6  7  1  0
  7 14  1  0
  7  8  1  0
  7 22  1  6
  8  9  1  0
  8 23  1  0
  8 24  1  0
  9 13  1  0
  9 10  1  0
  9 25  1  6
 10 11  1  0
 10 26  1  0
 10 27  1  0
 11 12  1  0
 11 28  1  0
 11 29  1  0
 12 13  1  0
 12 14  1  0
 12 30  1  6
 13 31  1  0
 13 32  1  0
 14 15  2  0
M  CHG  1  13   1
M  END
>  <i_m_ct_stereo_status>  (315) 
1

>  <s_m_source_file>  (315) 
/var/tmp/pbs.5076255.sched01/tmpy8l6melh/117u1qm2xak.sdf

>  <i_m_source_file_index>  (315) 
21

>  <i_lp_mmshare_version>  (315) 
48012

>  <i_f3d_flags>  (315) 
0

>  <s_epik_input>  (315) 
W0NIM11uMVtjSF1bY0hdW2NIXWMxW0NASF0oW0NIMl1bQ0BASF0yMylDKD1PKVtDQEBIXShbTkhdMylbQ0gyXVtDSDJdMg==

>  <s_epik_cmdline>  (315) 
J2VwaWtfcHl0aG9uJywgJy1waHQnLCAnMi4wJywgJy1waCcsICc3LjAnLCAnLXRuJywgJzgnLCAnLW1hJywgJzIwMCcsICctaW1hZScsICc8aW5maWxlLm1hZT4nLCAnLW9tYWUnLCAnPG91dGZpbGUubWFlPic=

>  <r_lp_tautomer_probability>  (315) 
0.99995

>  <r_epik_Ionization_Penalty>  (315) 
0.27187

>  <r_epik_Ionization_Penalty_Charging>  (315) 
0.27187

>  <r_epik_Ionization_Penalty_Neutral>  (315) 
1.72027e-09

>  <r_epik_State_Penalty>  (315) 
0.264051

>  <r_epik_Charging_Adjusted_Penalty>  (315) 
0.535921

>  <i_epik_Tot_Q>  (315) 
1

>  <i_epik_Tot_abs_Q>  (315) 
1

>  <s_lp_Force_Field>  (315) 
OPLS3e

>  <r_lp_Energy>  (315) 
29.507

>  <b_lp_Chiralities_Consistent>  (315) 
1

>  <s_lp_Variant>  (315) 
100:0-1

>  <s_i_glide_gridfile>  (315) 
pfpi4k_grid

>  <i_i_glide_lignum>  (315) 
21

>  <i_i_glide_rotatable_bonds>  (315) 
1

>  <r_i_docking_score>  (315) 
-4.02189

>  <r_i_glide_ligand_efficiency>  (315) 
-0.268126

>  <r_i_glide_ligand_efficiency_sa>  (315) 
-0.661256

>  <r_i_glide_ligand_efficiency_ln>  (315) 
-1.08464

>  <r_i_glide_gscore>  (315) 
-4.02189

>  <r_i_glide_lipo>  (315) 
-0.411646

>  <r_i_glide_hbond>  (315) 
-0.130391

>  <r_i_glide_metal>  (315) 
-0

>  <r_i_glide_rewards>  (315) 
-2.14923

>  <r_i_glide_evdw>  (315) 
-14.6112

>  <r_i_glide_ecoul>  (315) 
-6.03387

>  <r_i_glide_erotb>  (315) 
0.390962

>  <r_i_glide_esite>  (315) 
-0.0859532

>  <r_i_glide_emodel>  (315) 
-28.0414

>  <r_i_glide_energy>  (315) 
-20.6451

>  <r_i_glide_einternal>  (315) 
0.000300247

>  <r_i_glide_intrahb_reward>  (315) 
-0

>  <i_i_glide_confnum>  (315) 
3

>  <i_i_glide_posenum>  (315) 
19

>  <r_i_glide_eff_state_penalty>  (315) 
0

>  <ligand_id>  (315) 
100

>  <original_smiles>  (315) 
Cn1cccc1C1CC2CCC(N2)C1=O

>  <smiles>  (315) 
[H]c1c([H])c(C2([H])C(=O)C3([H])C([H])([H])C([H])([H])C([H])(C2([H])[H])[N+]3([H])[H])n(C([H])([H])[H])c1[H]

$$$$
100:1:0
     RDKit          3D

 31 33  0  0  1  0  0  0  0  0999 V2000
    2.6165   -3.4913   -3.8145 C   0  0  0  0  0  0  0  0  0  0  0  0
    3.2502   -2.2379   -3.4649 N   0  0  0  0  0  0  0  0  0  0  0  0
    3.1258   -1.0596   -4.1834 C   0  0  0  0  0  0  0  0  0  0  0  0
    3.8323   -0.0892   -3.5395 C   0  0  0  0  0  0  0  0  0  0  0  0
    4.4194   -0.6916   -2.3945 C   0  0  0  0  0  0  0  0  0  0  0  0
    4.0646   -2.0113   -2.3611 C   0  0  0  0  0  0  0  0  0  0  0  0
    4.3846   -3.0782   -1.3481 C   0  0  2  0  0  0  0  0  0  0  0  0
    3.2630   -3.2195   -0.2844 C   0  0  0  0  0  0  0  0  0  0  0  0
    3.7066   -3.9183    1.0235 C   0  0  1  0  0  0  0  0  0  0  0  0
    4.3291   -5.3108    0.8047 C   0  0  0  0  0  0  0  0  0  0  0  0
    5.8236   -5.0378    0.6250 C   0  0  0  0  0  0  0  0  0  0  0  0
    5.9166   -3.5110    0.7169 C   0  0  2  0  0  0  0  0  0  0  0  0
    4.8012   -3.1422    1.5951 N   0  0  0  0  0  0  0  0  0  0  0  0
    5.7658   -2.8796   -0.6785 C   0  0  0  0  0  0  0  0  0  0  0  0
    6.6934   -2.2941   -1.2442 O   0  0  0  0  0  0  0  0  0  0  0  0
    2.0157   -3.3831   -4.7175 H   0  0  0  0  0  0  0  0  0  0  0  0
    1.9541   -3.8089   -3.0080 H   0  0  0  0  0  0  0  0  0  0  0  0
    3.3781   -4.2526   -3.9799 H   0  0  0  0  0  0  0  0  0  0  0  0
    2.5410   -0.9956   -5.0890 H   0  0  0  0  0  0  0  0  0  0  0  0
    3.9195    0.9429   -3.8555 H   0  0  0  0  0  0  0  0  0  0  0  0
    5.0382   -0.2175   -1.6476 H   0  0  0  0  0  0  0  0  0  0  0  0
    4.4632   -4.0297   -1.8682 H   0  0  0  0  0  0  0  0  0  0  0  0
    2.8763   -2.2297   -0.0299 H   0  0  0  0  0  0  0  0  0  0  0  0
    2.4176   -3.7559   -0.7156 H   0  0  0  0  0  0  0  0  0  0  0  0
    2.8677   -3.9605    1.7204 H   0  0  0  0  0  0  0  0  0  0  0  0
    4.1714   -5.9387    1.6818 H   0  0  0  0  0  0  0  0  0  0  0  0
    3.8906   -5.8251   -0.0519 H   0  0  0  0  0  0  0  0  0  0  0  0
    6.3994   -5.4967    1.4267 H   0  0  0  0  0  0  0  0  0  0  0  0
    6.2026   -5.4373   -0.3158 H   0  0  0  0  0  0  0  0  0  0  0  0
    6.8651   -3.1911    1.1533 H   0  0  0  0  0  0  0  0  0  0  0  0
    4.9701   -3.4758    2.5321 H   0  0  0  0  0  0  0  0  0  0  0  0
  1  2  1  0
  1 16  1  0
  1 17  1  0
  1 18  1  0
  2  6  1  0
  2  3  1  0
  3  4  2  0
  3 19  1  0
  4  5  1  0
  4 20  1  0
  5  6  2  0
  5 21  1  0
  6  7  1  0
  7 14  1  0
  7  8  1  0
  7 22  1  6
  8  9  1  0
  8 23  1  0
  8 24  1  0
  9 13  1  0
  9 10  1  0
  9 25  1  1
 10 11  1  0
 10 26  1  0
 10 27  1  0
 11 12  1  0
 11 28  1  0
 11 29  1  0
 12 13  1  0
 12 14  1  0
 12 30  1  1
 13 31  1  0
 14 15  2  0
M  END
>  <i_m_ct_stereo_status>  (316) 
1

>  <s_m_source_file>  (316) 
/var/tmp/pbs.5076255.sched01/tmpy8l6melh/117u1qm2xak.sdf

>  <i_m_source_file_index>  (316) 
22

>  <i_lp_mmshare_version>  (316) 
48012

>  <i_f3d_flags>  (316) 
0

>  <s_epik_input>  (316) 
W0NIM11uMVtjSF1bY0hdW2NIXWMxW0NASF0oW0NIMl1bQ0BASF0yMylDKD1PKVtDQEBIXShbTkhdMylbQ0gyXVtDSDJdMg==

>  <s_epik_cmdline>  (316) 
J2VwaWtfcHl0aG9uJywgJy1waHQnLCAnMi4wJywgJy1waCcsICc3LjAnLCAnLXRuJywgJzgnLCAnLW1hJywgJzIwMCcsICctaW1hZScsICc8aW5maWxlLm1hZT4nLCAnLW9tYWUnLCAnPG91dGZpbGUubWFlPic=

>  <r_lp_tautomer_probability>  (316) 
1

>  <r_epik_Ionization_Penalty>  (316) 
0.592294

>  <r_epik_Ionization_Penalty_Charging>  (316) 
0

>  <r_epik_Ionization_Penalty_Neutral>  (316) 
0.592294

>  <r_epik_State_Penalty>  (316) 
0.605969

>  <r_epik_Charging_Adjusted_Penalty>  (316) 
0.605969

>  <i_epik_Tot_Q>  (316) 
0

>  <i_epik_Tot_abs_Q>  (316) 
0

>  <s_lp_Force_Field>  (316) 
OPLS3e

>  <r_lp_Energy>  (316) 
25.2134

>  <b_lp_Chiralities_Consistent>  (316) 
1

>  <s_lp_Variant>  (316) 
100:0-2

>  <s_i_glide_gridfile>  (316) 
pfpi4k_grid

>  <i_i_glide_lignum>  (316) 
22

>  <i_i_glide_rotatable_bonds>  (316) 
1

>  <r_i_docking_score>  (316) 
-4.36705

>  <r_i_glide_ligand_efficiency>  (316) 
-0.291137

>  <r_i_glide_ligand_efficiency_sa>  (316) 
-0.718005

>  <r_i_glide_ligand_efficiency_ln>  (316) 
-1.17772

>  <r_i_glide_gscore>  (316) 
-4.36705

>  <r_i_glide_lipo>  (316) 
-0.573924

>  <r_i_glide_hbond>  (316) 
-0.157145

>  <r_i_glide_metal>  (316) 
-0

>  <r_i_glide_rewards>  (316) 
-2.28988

>  <r_i_glide_evdw>  (316) 
-20.9521

>  <r_i_glide_ecoul>  (316) 
-4.61797

>  <r_i_glide_erotb>  (316) 
0.394193

>  <r_i_glide_esite>  (316) 
0

>  <r_i_glide_emodel>  (316) 
-32.0778

>  <r_i_glide_energy>  (316) 
-25.5701

>  <r_i_glide_einternal>  (316) 
0.743806

>  <r_i_glide_intrahb_reward>  (316) 
-0

>  <i_i_glide_confnum>  (316) 
4

>  <i_i_glide_posenum>  (316) 
29

>  <r_i_glide_eff_state_penalty>  (316) 
0

>  <ligand_id>  (316) 
100

>  <original_smiles>  (316) 
Cn1cccc1C1CC2CCC(N2)C1=O

>  <smiles>  (316) 
[H]c1c([H])c(C2([H])C(=O)C3([H])N([H])C([H])(C2([H])[H])C([H])([H])C3([H])[H])n(C([H])([H])[H])c1[H]

$$$$
100:1:1
     RDKit          3D

 31 33  0  0  1  0  0  0  0  0999 V2000
    5.0897   -5.4039   -0.0267 C   0  0  0  0  0  0  0  0  0  0  0  0
    4.7896   -4.3511    0.9389 N   0  0  0  0  0  0  0  0  0  0  0  0
    4.9422   -4.5272    2.3051 C   0  0  0  0  0  0  0  0  0  0  0  0
    4.6139   -3.3668    2.9478 C   0  0  0  0  0  0  0  0  0  0  0  0
    4.2403   -2.4330    1.9368 C   0  0  0  0  0  0  0  0  0  0  0  0
    4.3510   -3.0429    0.7081 C   0  0  0  0  0  0  0  0  0  0  0  0
    4.0945   -2.4647   -0.6470 C   0  0  2  0  0  0  0  0  0  0  0  0
    2.8720   -3.1310   -1.3676 C   0  0  0  0  0  0  0  0  0  0  0  0
    2.9180   -3.0099   -2.9038 C   0  0  1  0  0  0  0  0  0  0  0  0
    2.9507   -1.5669   -3.4075 C   0  0  0  0  0  0  0  0  0  0  0  0
    4.4381   -1.2087   -3.5154 C   0  0  0  0  0  0  0  0  0  0  0  0
    5.1334   -2.4947   -3.0355 C   0  0  2  0  0  0  0  0  0  0  0  0
    4.1824   -3.5413   -3.3969 N   0  0  0  0  0  0  0  0  0  0  0  0
    5.3701   -2.4271   -1.5304 C   0  0  0  0  0  0  0  0  0  0  0  0
    6.4872   -2.2362   -1.0454 O   0  0  0  0  0  0  0  0  0  0  0  0
    5.5247   -6.2650    0.4895 H   0  0  0  0  0  0  0  0  0  0  0  0
    5.8469   -5.0334   -0.7120 H   0  0  0  0  0  0  0  0  0  0  0  0
    4.2114   -5.6970   -0.5895 H   0  0  0  0  0  0  0  0  0  0  0  0
    5.2868   -5.4564    2.7140 H   0  0  0  0  0  0  0  0  0  0  0  0
    4.6635   -3.2196    4.0268 H   0  0  0  0  0  0  0  0  0  0  0  0
    3.9274   -1.4038    2.0979 H   0  0  0  0  0  0  0  0  0  0  0  0
    3.8258   -1.4152   -0.5202 H   0  0  0  0  0  0  0  0  0  0  0  0
    2.7689   -4.1970   -1.1336 H   0  0  0  0  0  0  0  0  0  0  0  0
    1.9497   -2.6627   -1.0072 H   0  0  0  0  0  0  0  0  0  0  0  0
    2.1107   -3.5756   -3.3552 H   0  0  0  0  0  0  0  0  0  0  0  0
    2.4740   -1.4911   -4.3886 H   0  0  0  0  0  0  0  0  0  0  0  0
    2.4288   -0.8980   -2.7190 H   0  0  0  0  0  0  0  0  0  0  0  0
    4.6960   -1.0055   -4.5590 H   0  0  0  0  0  0  0  0  0  0  0  0
    4.6842   -0.3251   -2.9165 H   0  0  0  0  0  0  0  0  0  0  0  0
    6.1024   -2.6547   -3.5241 H   0  0  0  0  0  0  0  0  0  0  0  0
    4.3963   -4.4391   -2.9658 H   0  0  0  0  0  0  0  0  0  0  0  0
  1  2  1  0
  1 16  1  0
  1 17  1  0
  1 18  1  0
  2  6  1  0
  2  3  1  0
  3  4  2  0
  3 19  1  0
  4  5  1  0
  4 20  1  0
  5  6  2  0
  5 21  1  0
  6  7  1  0
  7 14  1  0
  7  8  1  0
  7 22  1  1
  8  9  1  0
  8 23  1  0
  8 24  1  0
  9 13  1  0
  9 10  1  0
  9 25  1  6
 10 11  1  0
 10 26  1  0
 10 27  1  0
 11 12  1  0
 11 28  1  0
 11 29  1  0
 12 13  1  0
 12 14  1  0
 12 30  1  6
 13 31  1  0
 14 15  2  0
M  END
>  <i_m_ct_stereo_status>  (317) 
1

>  <s_m_source_file>  (317) 
/var/tmp/pbs.5076255.sched01/tmpy8l6melh/117u1qm2xak.sdf

>  <i_m_source_file_index>  (317) 
22

>  <i_lp_mmshare_version>  (317) 
48012

>  <i_f3d_flags>  (317) 
0

>  <s_epik_input>  (317) 
W0NIM11uMVtjSF1bY0hdW2NIXWMxW0NASF0oW0NIMl1bQ0BASF0yMylDKD1PKVtDQEBIXShbTkhdMylbQ0gyXVtDSDJdMg==

>  <s_epik_cmdline>  (317) 
J2VwaWtfcHl0aG9uJywgJy1waHQnLCAnMi4wJywgJy1waCcsICc3LjAnLCAnLXRuJywgJzgnLCAnLW1hJywgJzIwMCcsICctaW1hZScsICc8aW5maWxlLm1hZT4nLCAnLW9tYWUnLCAnPG91dGZpbGUubWFlPic=

>  <r_lp_tautomer_probability>  (317) 
1

>  <r_epik_Ionization_Penalty>  (317) 
0.592294

>  <r_epik_Ionization_Penalty_Charging>  (317) 
0

>  <r_epik_Ionization_Penalty_Neutral>  (317) 
0.592294

>  <r_epik_State_Penalty>  (317) 
0.605969

>  <r_epik_Charging_Adjusted_Penalty>  (317) 
0.605969

>  <i_epik_Tot_Q>  (317) 
0

>  <i_epik_Tot_abs_Q>  (317) 
0

>  <s_lp_Force_Field>  (317) 
OPLS3e

>  <r_lp_Energy>  (317) 
25.2134

>  <b_lp_Chiralities_Consistent>  (317) 
1

>  <s_lp_Variant>  (317) 
100:0-2

>  <s_i_glide_gridfile>  (317) 
pfpi4k_grid

>  <i_i_glide_lignum>  (317) 
22

>  <i_i_glide_rotatable_bonds>  (317) 
1

>  <r_i_docking_score>  (317) 
-4.04568

>  <r_i_glide_ligand_efficiency>  (317) 
-0.269712

>  <r_i_glide_ligand_efficiency_sa>  (317) 
-0.665167

>  <r_i_glide_ligand_efficiency_ln>  (317) 
-1.09105

>  <r_i_glide_gscore>  (317) 
-4.04568

>  <r_i_glide_lipo>  (317) 
-0.458441

>  <r_i_glide_hbond>  (317) 
-0.202418

>  <r_i_glide_metal>  (317) 
-0

>  <r_i_glide_rewards>  (317) 
-2.0644

>  <r_i_glide_evdw>  (317) 
-18.6514

>  <r_i_glide_ecoul>  (317) 
-5.06257

>  <r_i_glide_erotb>  (317) 
0.394193

>  <r_i_glide_esite>  (317) 
-0.0226605

>  <r_i_glide_emodel>  (317) 
-29.4065

>  <r_i_glide_energy>  (317) 
-23.714

>  <r_i_glide_einternal>  (317) 
1.27834

>  <r_i_glide_intrahb_reward>  (317) 
-0

>  <i_i_glide_confnum>  (317) 
2

>  <i_i_glide_posenum>  (317) 
24

>  <r_i_glide_eff_state_penalty>  (317) 
0

>  <ligand_id>  (317) 
100

>  <original_smiles>  (317) 
Cn1cccc1C1CC2CCC(N2)C1=O

>  <smiles>  (317) 
[H]c1c([H])c(C2([H])C(=O)C3([H])N([H])C([H])(C2([H])[H])C([H])([H])C3([H])[H])n(C([H])([H])[H])c1[H]

$$$$
100:1:2
     RDKit          3D

 31 33  0  0  1  0  0  0  0  0999 V2000
    4.1980   -0.7135   -0.6991 C   0  0  0  0  0  0  0  0  0  0  0  0
    4.0050   -1.2328   -2.0612 N   0  0  0  0  0  0  0  0  0  0  0  0
    3.8160   -0.4472   -3.1888 C   0  0  0  0  0  0  0  0  0  0  0  0
    3.6392   -1.2561   -4.2716 C   0  0  0  0  0  0  0  0  0  0  0  0
    3.7243   -2.6068   -3.7964 C   0  0  0  0  0  0  0  0  0  0  0  0
    3.9621   -2.5720   -2.4552 C   0  0  0  0  0  0  0  0  0  0  0  0
    4.1150   -3.7028   -1.4862 C   0  0  2  0  0  0  0  0  0  0  0  0
    2.8761   -3.9035   -0.5570 C   0  0  0  0  0  0  0  0  0  0  0  0
    3.1853   -4.6331    0.7713 C   0  0  1  0  0  0  0  0  0  0  0  0
    3.8142   -6.0290    0.5928 C   0  0  0  0  0  0  0  0  0  0  0  0
    5.3243   -5.7758    0.5795 C   0  0  0  0  0  0  0  0  0  0  0  0
    5.4242   -4.2537    0.7070 C   0  0  2  0  0  0  0  0  0  0  0  0
    4.2216   -3.8780    1.4640 N   0  0  0  0  0  0  0  0  0  0  0  0
    5.4436   -3.6383   -0.6941 C   0  0  0  0  0  0  0  0  0  0  0  0
    6.4648   -3.1344   -1.1827 O   0  0  0  0  0  0  0  0  0  0  0  0
    4.2461    0.3575   -0.6925 H   0  0  0  0  0  0  0  0  0  0  0  0
    5.1677   -1.0092   -0.3030 H   0  0  0  0  0  0  0  0  0  0  0  0
    3.3981   -1.0405   -0.0435 H   0  0  0  0  0  0  0  0  0  0  0  0
    3.8128    0.6262   -3.1274 H   0  0  0  0  0  0  0  0  0  0  0  0
    3.4476   -0.9066   -5.2790 H   0  0  0  0  0  0  0  0  0  0  0  0
    3.6052   -3.5016   -4.3947 H   0  0  0  0  0  0  0  0  0  0  0  0
    4.2292   -4.6329   -2.0492 H   0  0  0  0  0  0  0  0  0  0  0  0
    2.4239   -2.9449   -0.3059 H   0  0  0  0  0  0  0  0  0  0  0  0
    2.0926   -4.4252   -1.1072 H   0  0  0  0  0  0  0  0  0  0  0  0
    2.2824   -4.6784    1.3829 H   0  0  0  0  0  0  0  0  0  0  0  0
    3.5551   -6.6780    1.4338 H   0  0  0  0  0  0  0  0  0  0  0  0
    3.4664   -6.4983   -0.3197 H   0  0  0  0  0  0  0  0  0  0  0  0
    5.8187   -6.2673    1.4219 H   0  0  0  0  0  0  0  0  0  0  0  0
    5.7893   -6.1471   -0.3288 H   0  0  0  0  0  0  0  0  0  0  0  0
    6.3269   -3.9559    1.2482 H   0  0  0  0  0  0  0  0  0  0  0  0
    4.2893   -4.2408    2.4072 H   0  0  0  0  0  0  0  0  0  0  0  0
  1  2  1  0
  1 16  1  0
  1 17  1  0
  1 18  1  0
  2  6  1  0
  2  3  1  0
  3  4  2  0
  3 19  1  0
  4  5  1  0
  4 20  1  0
  5  6  2  0
  5 21  1  0
  6  7  1  0
  7 14  1  0
  7  8  1  0
  7 22  1  6
  8  9  1  0
  8 23  1  0
  8 24  1  0
  9 13  1  0
  9 10  1  0
  9 25  1  1
 10 11  1  0
 10 26  1  0
 10 27  1  0
 11 12  1  0
 11 28  1  0
 11 29  1  0
 12 13  1  0
 12 14  1  0
 12 30  1  1
 13 31  1  0
 14 15  2  0
M  END
>  <i_m_ct_stereo_status>  (318) 
1

>  <s_m_source_file>  (318) 
/var/tmp/pbs.5076255.sched01/tmpy8l6melh/117u1qm2xak.sdf

>  <i_m_source_file_index>  (318) 
22

>  <i_lp_mmshare_version>  (318) 
48012

>  <i_f3d_flags>  (318) 
0

>  <s_epik_input>  (318) 
W0NIM11uMVtjSF1bY0hdW2NIXWMxW0NASF0oW0NIMl1bQ0BASF0yMylDKD1PKVtDQEBIXShbTkhdMylbQ0gyXVtDSDJdMg==

>  <s_epik_cmdline>  (318) 
J2VwaWtfcHl0aG9uJywgJy1waHQnLCAnMi4wJywgJy1waCcsICc3LjAnLCAnLXRuJywgJzgnLCAnLW1hJywgJzIwMCcsICctaW1hZScsICc8aW5maWxlLm1hZT4nLCAnLW9tYWUnLCAnPG91dGZpbGUubWFlPic=

>  <r_lp_tautomer_probability>  (318) 
1

>  <r_epik_Ionization_Penalty>  (318) 
0.592294

>  <r_epik_Ionization_Penalty_Charging>  (318) 
0

>  <r_epik_Ionization_Penalty_Neutral>  (318) 
0.592294

>  <r_epik_State_Penalty>  (318) 
0.605969

>  <r_epik_Charging_Adjusted_Penalty>  (318) 
0.605969

>  <i_epik_Tot_Q>  (318) 
0

>  <i_epik_Tot_abs_Q>  (318) 
0

>  <s_lp_Force_Field>  (318) 
OPLS3e

>  <r_lp_Energy>  (318) 
25.2134

>  <b_lp_Chiralities_Consistent>  (318) 
1

>  <s_lp_Variant>  (318) 
100:0-2

>  <s_i_glide_gridfile>  (318) 
pfpi4k_grid

>  <i_i_glide_lignum>  (318) 
22

>  <i_i_glide_rotatable_bonds>  (318) 
1

>  <r_i_docking_score>  (318) 
-3.53516

>  <r_i_glide_ligand_efficiency>  (318) 
-0.235677

>  <r_i_glide_ligand_efficiency_sa>  (318) 
-0.58123

>  <r_i_glide_ligand_efficiency_ln>  (318) 
-0.953374

>  <r_i_glide_gscore>  (318) 
-3.53516

>  <r_i_glide_lipo>  (318) 
-0.548103

>  <r_i_glide_hbond>  (318) 
0

>  <r_i_glide_metal>  (318) 
-0

>  <r_i_glide_rewards>  (318) 
-2.09863

>  <r_i_glide_evdw>  (318) 
-17.8305

>  <r_i_glide_ecoul>  (318) 
-2.31019

>  <r_i_glide_erotb>  (318) 
0.394193

>  <r_i_glide_esite>  (318) 
-0.0445648

>  <r_i_glide_emodel>  (318) 
-24.6534

>  <r_i_glide_energy>  (318) 
-20.1406

>  <r_i_glide_einternal>  (318) 
1.85773

>  <r_i_glide_intrahb_reward>  (318) 
-0

>  <i_i_glide_confnum>  (318) 
4

>  <i_i_glide_posenum>  (318) 
18

>  <r_i_glide_eff_state_penalty>  (318) 
0

>  <ligand_id>  (318) 
100

>  <original_smiles>  (318) 
Cn1cccc1C1CC2CCC(N2)C1=O

>  <smiles>  (318) 
[H]c1c([H])c(C2([H])C(=O)C3([H])N([H])C([H])(C2([H])[H])C([H])([H])C3([H])[H])n(C([H])([H])[H])c1[H]

$$$$
101:0:0
     RDKit          3D

 43 47  0  0  1  0  0  0  0  0999 V2000
    4.3734   -5.9739    2.6666 C   0  0  0  0  0  0  0  0  0  0  0  0
    4.6154   -4.9851    1.4679 C   0  0  0  0  0  0  0  0  0  0  0  0
    5.2843   -6.0132    0.4881 C   0  0  0  0  0  0  0  0  0  0  0  0
    3.2028   -4.2959    0.9158 C   0  0  1  0  0  0  0  0  0  0  0  0
    2.4117   -4.0422    2.2308 C   0  0  0  0  0  0  0  0  0  0  0  0
    3.2582   -3.0969    3.1258 C   0  0  0  0  0  0  0  0  0  0  0  0
    4.6204   -2.7273    2.4528 C   0  0  2  0  0  0  0  0  0  0  0  0
    5.2470   -1.7704    3.2898 O   0  0  0  0  0  0  0  0  0  0  0  0
    4.4050   -2.2104    1.0227 C   0  0  2  0  0  0  0  0  0  0  0  0
    3.1907   -2.7749    0.3262 C   0  0  1  0  0  0  0  0  0  0  0  0
    3.3243   -2.2623   -1.1594 C   0  0  0  0  0  0  0  0  0  0  0  0
    3.1760   -3.1451   -2.1767 C   0  0  0  0  0  0  0  0  0  0  0  0
    4.3479   -3.3843   -3.0942 C   0  0  0  0  0  0  0  0  0  0  0  0
    4.2182   -3.6599   -4.2839 O   0  0  0  0  0  0  0  0  0  0  0  0
    5.6982   -3.2751   -2.4535 C   0  0  0  0  0  0  0  0  0  0  0  0
    5.6939   -3.5288   -1.1175 C   0  0  0  0  0  0  0  0  0  0  0  0
    5.6515   -2.4669    0.0434 C   0  0  1  0  0  0  0  0  0  0  0  0
    5.4686   -1.1486   -0.6976 C   0  0  0  0  0  0  0  0  0  0  0  0
    4.2496   -1.0834   -1.3272 C   0  0  0  0  0  0  0  0  0  0  0  0
    6.5761   -3.0069    1.1195 C   0  0  0  0  0  0  0  0  0  0  0  0
    5.5819   -3.8392    2.0574 C   0  0  2  0  0  0  0  0  0  0  0  0
    3.6142   -6.7187    2.4195 H   0  0  0  0  0  0  0  0  0  0  0  0
    4.0839   -5.5043    3.6036 H   0  0  0  0  0  0  0  0  0  0  0  0
    5.2805   -6.5189    2.9440 H   0  0  0  0  0  0  0  0  0  0  0  0
    6.2631   -5.6879    0.1361 H   0  0  0  0  0  0  0  0  0  0  0  0
    4.6417   -6.2182   -0.3685 H   0  0  0  0  0  0  0  0  0  0  0  0
    5.4752   -7.0057    0.9007 H   0  0  0  0  0  0  0  0  0  0  0  0
    2.6501   -4.9834    0.2773 H   0  0  0  0  0  0  0  0  0  0  0  0
    1.4424   -3.5798    2.0555 H   0  0  0  0  0  0  0  0  0  0  0  0
    2.1298   -4.9571    2.7488 H   0  0  0  0  0  0  0  0  0  0  0  0
    2.6810   -2.1842    3.2832 H   0  0  0  0  0  0  0  0  0  0  0  0
    3.4041   -3.5189    4.1210 H   0  0  0  0  0  0  0  0  0  0  0  0
    4.6432   -1.0587    3.4279 H   0  0  0  0  0  0  0  0  0  0  0  0
    4.2024   -1.1488    1.1977 H   0  0  0  0  0  0  0  0  0  0  0  0
    2.2988   -2.2416    0.6587 H   0  0  0  0  0  0  0  0  0  0  0  0
    2.5807   -4.0213   -1.9748 H   0  0  0  0  0  0  0  0  0  0  0  0
    6.2632   -2.4411   -2.8339 H   0  0  0  0  0  0  0  0  0  0  0  0
    4.9588   -4.2640   -0.9210 H   0  0  0  0  0  0  0  0  0  0  0  0
    6.2147   -0.3746   -0.6911 H   0  0  0  0  0  0  0  0  0  0  0  0
    3.9490   -0.2384   -1.9190 H   0  0  0  0  0  0  0  0  0  0  0  0
    7.3859   -3.6218    0.7251 H   0  0  0  0  0  0  0  0  0  0  0  0
    7.0283   -2.1795    1.6601 H   0  0  0  0  0  0  0  0  0  0  0  0
    6.1342   -4.2155    2.9220 H   0  0  0  0  0  0  0  0  0  0  0  0
  1  2  1  0
  1 22  1  0
  1 23  1  0
  1 24  1  0
  2 21  1  0
  2  3  1  0
  2  4  1  0
  3 25  1  0
  3 26  1  0
  3 27  1  0
  4 10  1  0
  4  5  1  0
  4 28  1  6
  5  6  1  0
  5 29  1  0
  5 30  1  0
  6  7  1  0
  6 31  1  0
  6 32  1  0
  7 21  1  0
  7  8  1  1
  7  9  1  0
  8 33  1  0
  9 17  1  0
  9 10  1  0
  9 34  1  1
 10 11  1  0
 10 35  1  1
 11 19  1  0
 11 12  2  3
 12 13  1  0
 12 36  1  0
 13 14  2  0
 13 15  1  0
 15 16  2  3
 15 37  1  0
 16 17  1  0
 16 38  1  0
 17 18  1  0
 17 20  1  1
 18 19  2  0
 18 39  1  0
 19 40  1  0
 20 21  1  0
 20 41  1  0
 20 42  1  0
 21 43  1  1
M  END
>  <i_m_ct_stereo_status>  (319) 
1

>  <s_m_source_file>  (319) 
/var/tmp/pbs.5076255.sched01/tmpy8l6melh/117u1qm2xak.sdf

>  <i_m_source_file_index>  (319) 
23

>  <i_lp_mmshare_version>  (319) 
48012

>  <i_f3d_flags>  (319) 
2

>  <s_epik_input>  (319) 
W0NAXTEyM1tDQEhdNFtDQF01KFtPSF0pW0NASF0oW0NIMl0zKUMoW0NIM10pKFtDSDNdKVtDQEBIXShbQ0gyXVtDSDJdNSlbQ0BIXTQvQyhbQ0hdPVtDSF0yKT1bQ0hdXEMoPU8pL1tDSF09W0NIXVwx

>  <s_epik_cmdline>  (319) 
J2VwaWtfcHl0aG9uJywgJy1waHQnLCAnMi4wJywgJy1waCcsICc3LjAnLCAnLXRuJywgJzgnLCAnLW1hJywgJzIwMCcsICctaW1hZScsICc8aW5maWxlLm1hZT4nLCAnLW9tYWUnLCAnPG91dGZpbGUubWFlPic=

>  <r_lp_tautomer_probability>  (319) 
1

>  <r_epik_Ionization_Penalty>  (319) 
4.64307e-08

>  <r_epik_Ionization_Penalty_Charging>  (319) 
0

>  <r_epik_Ionization_Penalty_Neutral>  (319) 
4.64307e-08

>  <r_epik_State_Penalty>  (319) 
-0

>  <r_epik_Charging_Adjusted_Penalty>  (319) 
0

>  <i_epik_Tot_Q>  (319) 
0

>  <i_epik_Tot_abs_Q>  (319) 
0

>  <s_lp_Force_Field>  (319) 
OPLS3e

>  <r_lp_Energy>  (319) 
241.301

>  <b_lp_Chiralities_Consistent>  (319) 
0

>  <s_lp_Variant>  (319) 
101:0-1

>  <s_i_glide_gridfile>  (319) 
pfpi4k_grid

>  <i_i_glide_lignum>  (319) 
23

>  <i_i_glide_rotatable_bonds>  (319) 
1

>  <r_i_docking_score>  (319) 
-3.9653

>  <r_i_glide_ligand_efficiency>  (319) 
-0.188824

>  <r_i_glide_ligand_efficiency_sa>  (319) 
-0.520951

>  <r_i_glide_ligand_efficiency_ln>  (319) 
-0.980412

>  <r_i_glide_gscore>  (319) 
-3.9653

>  <r_i_glide_lipo>  (319) 
-0.639074

>  <r_i_glide_hbond>  (319) 
-0.0769003

>  <r_i_glide_metal>  (319) 
-0

>  <r_i_glide_rewards>  (319) 
-1.58861

>  <r_i_glide_evdw>  (319) 
-21.9717

>  <r_i_glide_ecoul>  (319) 
-3.74751

>  <r_i_glide_erotb>  (319) 
0

>  <r_i_glide_esite>  (319) 
0

>  <r_i_glide_emodel>  (319) 
-31.4094

>  <r_i_glide_energy>  (319) 
-25.7192

>  <r_i_glide_einternal>  (319) 
0.00542038

>  <r_i_glide_intrahb_reward>  (319) 
-0

>  <i_i_glide_confnum>  (319) 
1

>  <i_i_glide_posenum>  (319) 
30

>  <r_i_glide_eff_state_penalty>  (319) 
0

>  <ligand_id>  (319) 
101

>  <original_smiles>  (319) 
CC1(C)C2CCC3(O)C4C2C2=CC(=O)C=CC4(C=C2)CC13

>  <smiles>  (319) 
[H]OC12C([H])([H])C([H])([H])C3([H])C4([H])C5=C([H])C(=O)C([H])=C([H])C(C([H])=C5[H])(C([H])([H])C1([H])C3(C([H])([H])[H])C([H])([H])[H])C42[H]

$$$$
101:0:1
     RDKit          3D

 43 47  0  0  1  0  0  0  0  0999 V2000
    4.4200   -5.9415    2.6801 C   0  0  0  0  0  0  0  0  0  0  0  0
    4.6513   -4.9578    1.4744 C   0  0  0  0  0  0  0  0  0  0  0  0
    5.3374   -5.9818    0.5034 C   0  0  0  0  0  0  0  0  0  0  0  0
    3.2317   -4.2913    0.9171 C   0  0  1  0  0  0  0  0  0  0  0  0
    2.4319   -4.0400    2.2270 C   0  0  0  0  0  0  0  0  0  0  0  0
    3.2626   -3.0803    3.1183 C   0  0  0  0  0  0  0  0  0  0  0  0
    4.6207   -2.6978    2.4469 C   0  0  2  0  0  0  0  0  0  0  0  0
    5.2315   -1.7363    3.2889 O   0  0  0  0  0  0  0  0  0  0  0  0
    4.4032   -2.1878    1.0145 C   0  0  2  0  0  0  0  0  0  0  0  0
    3.1989   -2.7742    0.3192 C   0  0  1  0  0  0  0  0  0  0  0  0
    3.3262   -2.2687   -1.1661 C   0  0  0  0  0  0  0  0  0  0  0  0
    3.1896   -3.1631   -2.1792 C   0  0  0  0  0  0  0  0  0  0  0  0
    4.3635   -3.3939   -3.0926 C   0  0  0  0  0  0  0  0  0  0  0  0
    4.2309   -3.6829   -4.2789 O   0  0  0  0  0  0  0  0  0  0  0  0
    5.7161   -3.2579   -2.4538 C   0  0  0  0  0  0  0  0  0  0  0  0
    5.7143   -3.5018   -1.1162 C   0  0  0  0  0  0  0  0  0  0  0  0
    5.6544   -2.4330    0.0384 C   0  0  1  0  0  0  0  0  0  0  0  0
    5.4526   -1.1230   -0.7080 C   0  0  0  0  0  0  0  0  0  0  0  0
    4.2342   -1.0808   -1.3430 C   0  0  0  0  0  0  0  0  0  0  0  0
    6.5830   -2.9539    1.1218 C   0  0  0  0  0  0  0  0  0  0  0  0
    5.5997   -3.7991    2.0610 C   0  0  2  0  0  0  0  0  0  0  0  0
    3.6750   -6.7007    2.4357 H   0  0  0  0  0  0  0  0  0  0  0  0
    4.1194   -5.4694    3.6116 H   0  0  0  0  0  0  0  0  0  0  0  0
    5.3360   -6.4687    2.9636 H   0  0  0  0  0  0  0  0  0  0  0  0
    6.3110   -5.6442    0.1493 H   0  0  0  0  0  0  0  0  0  0  0  0
    4.7003   -6.2012   -0.3541 H   0  0  0  0  0  0  0  0  0  0  0  0
    5.5398   -6.9686    0.9227 H   0  0  0  0  0  0  0  0  0  0  0  0
    2.6885   -4.9898    0.2810 H   0  0  0  0  0  0  0  0  0  0  0  0
    1.4574   -3.5922    2.0457 H   0  0  0  0  0  0  0  0  0  0  0  0
    2.1619   -4.9563    2.7507 H   0  0  0  0  0  0  0  0  0  0  0  0
    2.6793   -2.1686    3.2636 H   0  0  0  0  0  0  0  0  0  0  0  0
    3.4033   -3.4914    4.1197 H   0  0  0  0  0  0  0  0  0  0  0  0
    5.3655   -2.1367    4.1337 H   0  0  0  0  0  0  0  0  0  0  0  0
    4.1895   -1.1274    1.1897 H   0  0  0  0  0  0  0  0  0  0  0  0
    2.2989   -2.2501    0.6449 H   0  0  0  0  0  0  0  0  0  0  0  0
    2.6055   -4.0444   -1.9702 H   0  0  0  0  0  0  0  0  0  0  0  0
    6.2691   -2.4188   -2.8399 H   0  0  0  0  0  0  0  0  0  0  0  0
    4.9877   -4.2438   -0.9143 H   0  0  0  0  0  0  0  0  0  0  0  0
    6.1836   -0.3338   -0.7034 H   0  0  0  0  0  0  0  0  0  0  0  0
    3.9201   -0.2472   -1.9425 H   0  0  0  0  0  0  0  0  0  0  0  0
    7.4051   -3.5550    0.7304 H   0  0  0  0  0  0  0  0  0  0  0  0
    7.0189   -2.1145    1.6579 H   0  0  0  0  0  0  0  0  0  0  0  0
    6.1585   -4.1671    2.9245 H   0  0  0  0  0  0  0  0  0  0  0  0
  1  2  1  0
  1 22  1  0
  1 23  1  0
  1 24  1  0
  2 21  1  0
  2  3  1  0
  2  4  1  0
  3 25  1  0
  3 26  1  0
  3 27  1  0
  4 10  1  0
  4  5  1  0
  4 28  1  6
  5  6  1  0
  5 29  1  0
  5 30  1  0
  6  7  1  0
  6 31  1  0
  6 32  1  0
  7 21  1  0
  7  8  1  1
  7  9  1  0
  8 33  1  0
  9 17  1  0
  9 10  1  0
  9 34  1  1
 10 11  1  0
 10 35  1  1
 11 19  1  0
 11 12  2  3
 12 13  1  0
 12 36  1  0
 13 14  2  0
 13 15  1  0
 15 16  2  3
 15 37  1  0
 16 17  1  0
 16 38  1  0
 17 18  1  0
 17 20  1  1
 18 19  2  0
 18 39  1  0
 19 40  1  0
 20 21  1  0
 20 41  1  0
 20 42  1  0
 21 43  1  1
M  END
>  <i_m_ct_stereo_status>  (320) 
1

>  <s_m_source_file>  (320) 
/var/tmp/pbs.5076255.sched01/tmpy8l6melh/117u1qm2xak.sdf

>  <i_m_source_file_index>  (320) 
23

>  <i_lp_mmshare_version>  (320) 
48012

>  <i_f3d_flags>  (320) 
2

>  <s_epik_input>  (320) 
W0NAXTEyM1tDQEhdNFtDQF01KFtPSF0pW0NASF0oW0NIMl0zKUMoW0NIM10pKFtDSDNdKVtDQEBIXShbQ0gyXVtDSDJdNSlbQ0BIXTQvQyhbQ0hdPVtDSF0yKT1bQ0hdXEMoPU8pL1tDSF09W0NIXVwx

>  <s_epik_cmdline>  (320) 
J2VwaWtfcHl0aG9uJywgJy1waHQnLCAnMi4wJywgJy1waCcsICc3LjAnLCAnLXRuJywgJzgnLCAnLW1hJywgJzIwMCcsICctaW1hZScsICc8aW5maWxlLm1hZT4nLCAnLW9tYWUnLCAnPG91dGZpbGUubWFlPic=

>  <r_lp_tautomer_probability>  (320) 
1

>  <r_epik_Ionization_Penalty>  (320) 
4.64307e-08

>  <r_epik_Ionization_Penalty_Charging>  (320) 
0

>  <r_epik_Ionization_Penalty_Neutral>  (320) 
4.64307e-08

>  <r_epik_State_Penalty>  (320) 
-0

>  <r_epik_Charging_Adjusted_Penalty>  (320) 
0

>  <i_epik_Tot_Q>  (320) 
0

>  <i_epik_Tot_abs_Q>  (320) 
0

>  <s_lp_Force_Field>  (320) 
OPLS3e

>  <r_lp_Energy>  (320) 
241.301

>  <b_lp_Chiralities_Consistent>  (320) 
0

>  <s_lp_Variant>  (320) 
101:0-1

>  <s_i_glide_gridfile>  (320) 
pfpi4k_grid

>  <i_i_glide_lignum>  (320) 
23

>  <i_i_glide_rotatable_bonds>  (320) 
1

>  <r_i_docking_score>  (320) 
-3.86256

>  <r_i_glide_ligand_efficiency>  (320) 
-0.183931

>  <r_i_glide_ligand_efficiency_sa>  (320) 
-0.507453

>  <r_i_glide_ligand_efficiency_ln>  (320) 
-0.95501

>  <r_i_glide_gscore>  (320) 
-3.86256

>  <r_i_glide_lipo>  (320) 
-0.631889

>  <r_i_glide_hbond>  (320) 
-0.0695418

>  <r_i_glide_metal>  (320) 
-0

>  <r_i_glide_rewards>  (320) 
-1.58867

>  <r_i_glide_evdw>  (320) 
-21.8695

>  <r_i_glide_ecoul>  (320) 
-3.19321

>  <r_i_glide_erotb>  (320) 
0

>  <r_i_glide_esite>  (320) 
0

>  <r_i_glide_emodel>  (320) 
-30.6094

>  <r_i_glide_energy>  (320) 
-25.0627

>  <r_i_glide_einternal>  (320) 
0.000468569

>  <r_i_glide_intrahb_reward>  (320) 
-0

>  <i_i_glide_confnum>  (320) 
2

>  <i_i_glide_posenum>  (320) 
24

>  <r_i_glide_eff_state_penalty>  (320) 
0

>  <ligand_id>  (320) 
101

>  <original_smiles>  (320) 
CC1(C)C2CCC3(O)C4C2C2=CC(=O)C=CC4(C=C2)CC13

>  <smiles>  (320) 
[H]OC12C([H])([H])C([H])([H])C3([H])C4([H])C5=C([H])C(=O)C([H])=C([H])C(C([H])=C5[H])(C([H])([H])C1([H])C3(C([H])([H])[H])C([H])([H])[H])C42[H]

$$$$
101:0:2
     RDKit          3D

 43 47  0  0  1  0  0  0  0  0999 V2000
    2.1718   -4.7430    2.7050 C   0  0  0  0  0  0  0  0  0  0  0  0
    3.0795   -4.2027    1.5354 C   0  0  0  0  0  0  0  0  0  0  0  0
    3.0048   -5.4821    0.6223 C   0  0  0  0  0  0  0  0  0  0  0  0
    2.4847   -2.8118    0.8515 C   0  0  1  0  0  0  0  0  0  0  0  0
    1.9045   -2.0311    2.0669 C   0  0  0  0  0  0  0  0  0  0  0  0
    3.0794   -1.7792    3.0457 C   0  0  0  0  0  0  0  0  0  0  0  0
    4.4176   -2.3896    2.5179 C   0  0  2  0  0  0  0  0  0  0  0  0
    5.4151   -1.9800    3.4273 O   0  0  0  0  0  0  0  0  0  0  0  0
    4.6933   -1.9403    1.0723 C   0  0  2  0  0  0  0  0  0  0  0  0
    3.4526   -1.6566    0.2693 C   0  0  1  0  0  0  0  0  0  0  0  0
    3.9517   -1.4382   -1.2018 C   0  0  0  0  0  0  0  0  0  0  0  0
    3.3481   -2.1114   -2.2212 C   0  0  0  0  0  0  0  0  0  0  0  0
    4.1787   -3.0653   -3.0351 C   0  0  0  0  0  0  0  0  0  0  0  0
    3.9867   -3.2558   -4.2355 O   0  0  0  0  0  0  0  0  0  0  0  0
    5.2598   -3.7823   -2.2801 C   0  0  0  0  0  0  0  0  0  0  0  0
    4.9998   -3.9041   -0.9480 C   0  0  0  0  0  0  0  0  0  0  0  0
    5.5523   -2.9904    0.2088 C   0  0  1  0  0  0  0  0  0  0  0  0
    6.2843   -1.9012   -0.5615 C   0  0  0  0  0  0  0  0  0  0  0  0
    5.4165   -1.1124   -1.2841 C   0  0  0  0  0  0  0  0  0  0  0  0
    5.8589   -3.9288    1.3741 C   0  0  0  0  0  0  0  0  0  0  0  0
    4.4987   -3.8869    2.2224 C   0  0  2  0  0  0  0  0  0  0  0  0
    1.1335   -4.8647    2.3939 H   0  0  0  0  0  0  0  0  0  0  0  0
    2.1714   -4.1363    3.6066 H   0  0  0  0  0  0  0  0  0  0  0  0
    2.5074   -5.7205    3.0688 H   0  0  0  0  0  0  0  0  0  0  0  0
    3.9872   -5.8681    0.3518 H   0  0  0  0  0  0  0  0  0  0  0  0
    2.4396   -5.2885   -0.2901 H   0  0  0  0  0  0  0  0  0  0  0  0
    2.4935   -6.3463    1.0506 H   0  0  0  0  0  0  0  0  0  0  0  0
    1.7296   -3.0388    0.1068 H   0  0  0  0  0  0  0  0  0  0  0  0
    1.4498   -1.0884    1.7581 H   0  0  0  0  0  0  0  0  0  0  0  0
    1.0711   -2.5326    2.5587 H   0  0  0  0  0  0  0  0  0  0  0  0
    3.2090   -0.7000    3.1465 H   0  0  0  0  0  0  0  0  0  0  0  0
    2.8516   -2.1364    4.0508 H   0  0  0  0  0  0  0  0  0  0  0  0
    6.2467   -2.3087    3.1222 H   0  0  0  0  0  0  0  0  0  0  0  0
    5.1977   -0.9803    1.2249 H   0  0  0  0  0  0  0  0  0  0  0  0
    3.0660   -0.6629    0.5044 H   0  0  0  0  0  0  0  0  0  0  0  0
    2.3206   -2.4217   -2.0891 H   0  0  0  0  0  0  0  0  0  0  0  0
    6.2525   -3.5149   -2.6182 H   0  0  0  0  0  0  0  0  0  0  0  0
    3.9560   -4.0059   -0.8204 H   0  0  0  0  0  0  0  0  0  0  0  0
    7.3584   -1.8071   -0.5026 H   0  0  0  0  0  0  0  0  0  0  0  0
    5.7516   -0.2841   -1.8890 H   0  0  0  0  0  0  0  0  0  0  0  0
    6.1078   -4.9391    1.0423 H   0  0  0  0  0  0  0  0  0  0  0  0
    6.7099   -3.5770    1.9550 H   0  0  0  0  0  0  0  0  0  0  0  0
    4.6218   -4.4751    3.1359 H   0  0  0  0  0  0  0  0  0  0  0  0
  1  2  1  0
  1 22  1  0
  1 23  1  0
  1 24  1  0
  2 21  1  0
  2  3  1  0
  2  4  1  0
  3 25  1  0
  3 26  1  0
  3 27  1  0
  4 10  1  0
  4  5  1  0
  4 28  1  6
  5  6  1  0
  5 29  1  0
  5 30  1  0
  6  7  1  0
  6 31  1  0
  6 32  1  0
  7 21  1  0
  7  8  1  1
  7  9  1  0
  8 33  1  0
  9 17  1  0
  9 10  1  0
  9 34  1  1
 10 11  1  0
 10 35  1  1
 11 19  1  0
 11 12  2  3
 12 13  1  0
 12 36  1  0
 13 14  2  0
 13 15  1  0
 15 16  2  3
 15 37  1  0
 16 17  1  0
 16 38  1  0
 17 18  1  0
 17 20  1  1
 18 19  2  0
 18 39  1  0
 19 40  1  0
 20 21  1  0
 20 41  1  0
 20 42  1  0
 21 43  1  1
M  END
>  <i_m_ct_stereo_status>  (321) 
1

>  <s_m_source_file>  (321) 
/var/tmp/pbs.5076255.sched01/tmpy8l6melh/117u1qm2xak.sdf

>  <i_m_source_file_index>  (321) 
23

>  <i_lp_mmshare_version>  (321) 
48012

>  <i_f3d_flags>  (321) 
2

>  <s_epik_input>  (321) 
W0NAXTEyM1tDQEhdNFtDQF01KFtPSF0pW0NASF0oW0NIMl0zKUMoW0NIM10pKFtDSDNdKVtDQEBIXShbQ0gyXVtDSDJdNSlbQ0BIXTQvQyhbQ0hdPVtDSF0yKT1bQ0hdXEMoPU8pL1tDSF09W0NIXVwx

>  <s_epik_cmdline>  (321) 
J2VwaWtfcHl0aG9uJywgJy1waHQnLCAnMi4wJywgJy1waCcsICc3LjAnLCAnLXRuJywgJzgnLCAnLW1hJywgJzIwMCcsICctaW1hZScsICc8aW5maWxlLm1hZT4nLCAnLW9tYWUnLCAnPG91dGZpbGUubWFlPic=

>  <r_lp_tautomer_probability>  (321) 
1

>  <r_epik_Ionization_Penalty>  (321) 
4.64307e-08

>  <r_epik_Ionization_Penalty_Charging>  (321) 
0

>  <r_epik_Ionization_Penalty_Neutral>  (321) 
4.64307e-08

>  <r_epik_State_Penalty>  (321) 
-0

>  <r_epik_Charging_Adjusted_Penalty>  (321) 
0

>  <i_epik_Tot_Q>  (321) 
0

>  <i_epik_Tot_abs_Q>  (321) 
0

>  <s_lp_Force_Field>  (321) 
OPLS3e

>  <r_lp_Energy>  (321) 
241.301

>  <b_lp_Chiralities_Consistent>  (321) 
0

>  <s_lp_Variant>  (321) 
101:0-1

>  <s_i_glide_gridfile>  (321) 
pfpi4k_grid

>  <i_i_glide_lignum>  (321) 
23

>  <i_i_glide_rotatable_bonds>  (321) 
1

>  <r_i_docking_score>  (321) 
-3.49289

>  <r_i_glide_ligand_efficiency>  (321) 
-0.166328

>  <r_i_glide_ligand_efficiency_sa>  (321) 
-0.458886

>  <r_i_glide_ligand_efficiency_ln>  (321) 
-0.863609

>  <r_i_glide_gscore>  (321) 
-3.49289

>  <r_i_glide_lipo>  (321) 
-0.245805

>  <r_i_glide_hbond>  (321) 
-0.18664

>  <r_i_glide_metal>  (321) 
-0

>  <r_i_glide_rewards>  (321) 
-1.57004

>  <r_i_glide_evdw>  (321) 
-22.329

>  <r_i_glide_ecoul>  (321) 
-2.49297

>  <r_i_glide_erotb>  (321) 
0

>  <r_i_glide_esite>  (321) 
0

>  <r_i_glide_emodel>  (321) 
-29.8271

>  <r_i_glide_energy>  (321) 
-24.822

>  <r_i_glide_einternal>  (321) 
0.0243447

>  <r_i_glide_intrahb_reward>  (321) 
-0

>  <i_i_glide_confnum>  (321) 
2

>  <i_i_glide_posenum>  (321) 
20

>  <r_i_glide_eff_state_penalty>  (321) 
0

>  <ligand_id>  (321) 
101

>  <original_smiles>  (321) 
CC1(C)C2CCC3(O)C4C2C2=CC(=O)C=CC4(C=C2)CC13

>  <smiles>  (321) 
[H]OC12C([H])([H])C([H])([H])C3([H])C4([H])C5=C([H])C(=O)C([H])=C([H])C(C([H])=C5[H])(C([H])([H])C1([H])C3(C([H])([H])[H])C([H])([H])[H])C42[H]

$$$$
102:0:0
     RDKit          3D

 48 53  0  0  1  0  0  0  0  0999 V2000
    1.1897  -11.2628    3.3633 C   0  0  0  0  0  0  0  0  0  0  0  0
    1.3418   -9.7730    3.6021 C   0  0  0  0  0  0  0  0  0  0  0  0
    0.2884   -9.2806    4.5780 C   0  0  0  0  0  0  0  0  0  0  0  0
    2.7314   -9.1901    3.6020 C   0  0  1  0  0  0  0  0  0  0  0  0
    4.0383   -9.4411    2.8771 C   0  0  0  0  0  0  0  0  0  0  0  0
    4.2974   -8.2970    1.8467 C   0  0  2  0  0  0  0  0  0  0  0  0
    5.6856   -7.9249    1.8019 O   0  0  0  0  0  0  0  0  0  0  0  0
    5.9032   -6.5085    1.8380 C   0  0  2  0  0  0  0  0  0  0  0  0
    5.2787   -6.0192    3.1585 C   0  0  0  0  0  0  0  0  0  0  0  0
    3.8735   -6.3065    3.1768 O   0  0  0  0  0  0  0  0  0  0  0  0
    3.3841   -7.0133    2.0243 C   0  0  2  0  0  0  0  0  0  0  0  0
    1.8713   -7.3558    2.3020 C   0  0  1  0  0  0  0  0  0  0  0  0
    0.9739   -6.9298    1.2839 O   0  0  0  0  0  0  0  0  0  0  0  0
    1.7344   -8.8561    2.4820 C   0  0  2  0  0  0  0  0  0  0  0  0
    3.6581   -6.0971    0.8030 C   0  0  1  0  0  0  0  0  0  0  0  0
    3.1160   -4.7983    0.9213 O   0  0  0  0  0  0  0  0  0  0  0  0
    4.0385   -3.9925    0.2749 C   0  0  1  0  0  0  0  0  0  0  0  0
    3.8799   -2.5610    0.7496 C   0  0  0  0  0  0  0  0  0  0  0  0
    2.6887   -2.1048    1.3500 C   0  0  0  0  0  0  0  0  0  0  0  0
    2.5740   -0.7413    1.6878 C   0  0  0  0  0  0  0  0  0  0  0  0
    3.5559    0.1563    1.4764 N   0  0  0  0  0  0  0  0  0  0  0  0
    4.6904   -0.2785    0.8979 C   0  0  0  0  0  0  0  0  0  0  0  0
    4.9037   -1.6142    0.5116 C   0  0  0  0  0  0  0  0  0  0  0  0
    5.3012   -4.4508    0.6170 O   0  0  0  0  0  0  0  0  0  0  0  0
    5.1667   -5.8587    0.6488 C   0  0  1  0  0  0  0  0  0  0  0  0
    1.2989  -11.8199    4.2972 H   0  0  0  0  0  0  0  0  0  0  0  0
    1.9559  -11.6118    2.6713 H   0  0  0  0  0  0  0  0  0  0  0  0
    0.2161  -11.4830    2.9323 H   0  0  0  0  0  0  0  0  0  0  0  0
    0.4068   -8.2131    4.7612 H   0  0  0  0  0  0  0  0  0  0  0  0
    0.3637   -9.8066    5.5321 H   0  0  0  0  0  0  0  0  0  0  0  0
   -0.7094   -9.4466    4.1690 H   0  0  0  0  0  0  0  0  0  0  0  0
    2.8689   -8.4833    4.4213 H   0  0  0  0  0  0  0  0  0  0  0  0
    4.8320   -9.4830    3.6229 H   0  0  0  0  0  0  0  0  0  0  0  0
    4.0258  -10.4101    2.3736 H   0  0  0  0  0  0  0  0  0  0  0  0
    4.0811   -8.7158    0.8621 H   0  0  0  0  0  0  0  0  0  0  0  0
    6.9729   -6.2985    1.8028 H   0  0  0  0  0  0  0  0  0  0  0  0
    5.7581   -6.5012    4.0109 H   0  0  0  0  0  0  0  0  0  0  0  0
    5.4232   -4.9436    3.2652 H   0  0  0  0  0  0  0  0  0  0  0  0
    1.5683   -6.8537    3.2243 H   0  0  0  0  0  0  0  0  0  0  0  0
    0.9613   -7.5908    0.6080 H   0  0  0  0  0  0  0  0  0  0  0  0
    1.8207   -9.3905    1.5339 H   0  0  0  0  0  0  0  0  0  0  0  0
    3.2932   -6.5460   -0.1153 H   0  0  0  0  0  0  0  0  0  0  0  0
    3.9040   -4.0863   -0.8081 H   0  0  0  0  0  0  0  0  0  0  0  0
    1.8510   -2.7632    1.5244 H   0  0  0  0  0  0  0  0  0  0  0  0
    1.6671   -0.3555    2.1293 H   0  0  0  0  0  0  0  0  0  0  0  0
    5.4505    0.4715    0.7304 H   0  0  0  0  0  0  0  0  0  0  0  0
    5.8265   -1.9044    0.0348 H   0  0  0  0  0  0  0  0  0  0  0  0
    5.5200   -6.2585   -0.3011 H   0  0  0  0  0  0  0  0  0  0  0  0
  1  2  1  0
  1 26  1  0
  1 27  1  0
  1 28  1  0
  2 14  1  0
  2  3  1  0
  2  4  1  0
  3 29  1  0
  3 30  1  0
  3 31  1  0
  4 14  1  0
  4  5  1  0
  4 32  1  1
  5  6  1  0
  5 33  1  0
  5 34  1  0
  6 11  1  0
  6  7  1  0
  6 35  1  6
  7  8  1  0
  8 25  1  0
  8  9  1  0
  8 36  1  1
  9 10  1  0
  9 37  1  0
  9 38  1  0
 11 10  1  1
 11 12  1  0
 11 15  1  0
 12 13  1  0
 12 14  1  0
 12 39  1  1
 13 40  1  0
 14 41  1  6
 15 25  1  0
 15 16  1  0
 15 42  1  6
 16 17  1  0
 17 18  1  0
 17 24  1  0
 17 43  1  6
 18 23  1  0
 18 19  2  0
 19 20  1  0
 19 44  1  0
 20 21  2  0
 20 45  1  0
 21 22  1  0
 22 23  2  0
 22 46  1  0
 23 47  1  0
 24 25  1  0
 25 48  1  6
M  END
>  <i_m_ct_stereo_status>  (322) 
1

>  <s_m_source_file>  (322) 
/var/tmp/pbs.5076255.sched01/tmpy8l6melh/117u1qm2xak.sdf

>  <i_m_source_file_index>  (322) 
24

>  <i_lp_mmshare_version>  (322) 
48012

>  <i_f3d_flags>  (322) 
0

>  <s_epik_input>  (322) 
W0NIM11DMShbQ0gzXSlbQ0BASF0oW0NAQEhdMltPSF0pW0NAQEhdMVtDSDJdW0NAQEhdKFtDQEBdMjM0KU9bQ0BIXShbQ0gyXU8zKVtDQEhdNVtDQEBIXTRPW0NASF0oTzUpYzZbY0hdW2NIXW5bY0hdW2NIXTY=

>  <s_epik_cmdline>  (322) 
J2VwaWtfcHl0aG9uJywgJy1waHQnLCAnMi4wJywgJy1waCcsICc3LjAnLCAnLXRuJywgJzgnLCAnLW1hJywgJzIwMCcsICctaW1hZScsICc8aW5maWxlLm1hZT4nLCAnLW9tYWUnLCAnPG91dGZpbGUubWFlPic=

>  <r_epik_Ionization_Penalty>  (322) 
0.033259

>  <r_epik_Ionization_Penalty_Charging>  (322) 
0

>  <r_epik_Ionization_Penalty_Neutral>  (322) 
0.033259

>  <r_epik_State_Penalty>  (322) 
0.0276006

>  <r_epik_Charging_Adjusted_Penalty>  (322) 
0.0276006

>  <i_epik_Tot_Q>  (322) 
0

>  <i_epik_Tot_abs_Q>  (322) 
0

>  <s_epik_Chemistry_Notes>  (322) 
This compound contains an acetal/aminal-like group ( X-CH(R)-Y where X, Y are N, S, or O) that may be acid/base labile, releasing an aldehyde.

>  <s_lp_Force_Field>  (322) 
OPLS3e

>  <r_lp_Energy>  (322) 
59.684

>  <b_lp_Chiralities_Consistent>  (322) 
1

>  <s_lp_Variant>  (322) 
102:0-1

>  <s_i_glide_gridfile>  (322) 
pfpi4k_grid

>  <i_i_glide_lignum>  (322) 
24

>  <i_i_glide_rotatable_bonds>  (322) 
2

>  <r_i_docking_score>  (322) 
-3.41146

>  <r_i_glide_ligand_efficiency>  (322) 
-0.136459

>  <r_i_glide_ligand_efficiency_sa>  (322) 
-0.399007

>  <r_i_glide_ligand_efficiency_ln>  (322) 
-0.808619

>  <r_i_glide_gscore>  (322) 
-3.41146

>  <r_i_glide_lipo>  (322) 
-0.675691

>  <r_i_glide_hbond>  (322) 
0

>  <r_i_glide_metal>  (322) 
-0

>  <r_i_glide_rewards>  (322) 
-1.07241

>  <r_i_glide_evdw>  (322) 
-27.1359

>  <r_i_glide_ecoul>  (322) 
-3.10554

>  <r_i_glide_erotb>  (322) 
0.159264

>  <r_i_glide_esite>  (322) 
0

>  <r_i_glide_emodel>  (322) 
-36.755

>  <r_i_glide_energy>  (322) 
-30.2414

>  <r_i_glide_einternal>  (322) 
0.338813

>  <r_i_glide_intrahb_reward>  (322) 
-0

>  <i_i_glide_confnum>  (322) 
2

>  <i_i_glide_posenum>  (322) 
20

>  <r_i_glide_eff_state_penalty>  (322) 
0

>  <ligand_id>  (322) 
102

>  <original_smiles>  (322) 
CC1(C)C2CC3OC4COC3(C(O)C21)C1OC(c2ccncc2)OC41

>  <smiles>  (322) 
[H]OC1([H])C2([H])C([H])(C([H])([H])C3([H])OC4([H])C([H])([H])OC31C1([H])OC([H])(c3c([H])c([H])nc([H])c3[H])OC41[H])C2(C([H])([H])[H])C([H])([H])[H]

$$$$
102:0:1
     RDKit          3D

 48 53  0  0  1  0  0  0  0  0999 V2000
    0.9037  -11.2090    3.9591 C   0  0  0  0  0  0  0  0  0  0  0  0
    1.3821   -9.7904    4.1921 C   0  0  0  0  0  0  0  0  0  0  0  0
    0.7239   -9.2111    5.4324 C   0  0  0  0  0  0  0  0  0  0  0  0
    2.8039   -9.4444    3.8331 C   0  0  1  0  0  0  0  0  0  0  0  0
    3.8062   -9.8521    2.7747 C   0  0  0  0  0  0  0  0  0  0  0  0
    3.9853   -8.6904    1.7459 C   0  0  2  0  0  0  0  0  0  0  0  0
    5.3560   -8.5523    1.3331 O   0  0  0  0  0  0  0  0  0  0  0  0
    5.8227   -7.1994    1.3545 C   0  0  2  0  0  0  0  0  0  0  0  0
    5.6701   -6.7197    2.8086 C   0  0  0  0  0  0  0  0  0  0  0  0
    4.2920   -6.7678    3.2004 O   0  0  0  0  0  0  0  0  0  0  0  0
    3.3959   -7.2889    2.2023 C   0  0  2  0  0  0  0  0  0  0  0  0
    1.9726   -7.3992    2.8672 C   0  0  1  0  0  0  0  0  0  0  0  0
    0.9354   -6.7676    2.1300 O   0  0  0  0  0  0  0  0  0  0  0  0
    1.6224   -8.8663    3.0358 C   0  0  2  0  0  0  0  0  0  0  0  0
    3.4953   -6.3350    0.9836 C   0  0  1  0  0  0  0  0  0  0  0  0
    3.2546   -4.9712    1.2731 O   0  0  0  0  0  0  0  0  0  0  0  0
    4.1113   -4.3002    0.4135 C   0  0  1  0  0  0  0  0  0  0  0  0
    4.3334   -2.9001    0.9469 C   0  0  0  0  0  0  0  0  0  0  0  0
    5.5676   -2.4805    1.4986 C   0  0  0  0  0  0  0  0  0  0  0  0
    5.6936   -1.1489    1.9288 C   0  0  0  0  0  0  0  0  0  0  0  0
    4.6962   -0.2479    1.8423 N   0  0  0  0  0  0  0  0  0  0  0  0
    3.5211   -0.6463    1.3242 C   0  0  0  0  0  0  0  0  0  0  0  0
    3.2891   -1.9586    0.8724 C   0  0  0  0  0  0  0  0  0  0  0  0
    5.3118   -4.9908    0.3941 O   0  0  0  0  0  0  0  0  0  0  0  0
    4.9238   -6.3490    0.4346 C   0  0  1  0  0  0  0  0  0  0  0  0
    1.1579  -11.8467    4.8105 H   0  0  0  0  0  0  0  0  0  0  0  0
    1.3618  -11.6264    3.0618 H   0  0  0  0  0  0  0  0  0  0  0  0
   -0.1800  -11.2143    3.8306 H   0  0  0  0  0  0  0  0  0  0  0  0
    1.0751   -8.1939    5.6075 H   0  0  0  0  0  0  0  0  0  0  0  0
    0.9547   -9.8134    6.3143 H   0  0  0  0  0  0  0  0  0  0  0  0
   -0.3621   -9.1782    5.3081 H   0  0  0  0  0  0  0  0  0  0  0  0
    3.2733   -8.8330    4.6033 H   0  0  0  0  0  0  0  0  0  0  0  0
    4.7464  -10.0836    3.2742 H   0  0  0  0  0  0  0  0  0  0  0  0
    3.4859  -10.7611    2.2652 H   0  0  0  0  0  0  0  0  0  0  0  0
    3.4456   -8.9966    0.8465 H   0  0  0  0  0  0  0  0  0  0  0  0
    6.8656   -7.1664    1.0347 H   0  0  0  0  0  0  0  0  0  0  0  0
    6.2634   -7.3400    3.4811 H   0  0  0  0  0  0  0  0  0  0  0  0
    6.0318   -5.6954    2.9010 H   0  0  0  0  0  0  0  0  0  0  0  0
    2.0149   -6.9252    3.8506 H   0  0  0  0  0  0  0  0  0  0  0  0
    0.7450   -7.3013    1.3737 H   0  0  0  0  0  0  0  0  0  0  0  0
    1.3616   -9.3338    2.0854 H   0  0  0  0  0  0  0  0  0  0  0  0
    2.8144   -6.6413    0.1960 H   0  0  0  0  0  0  0  0  0  0  0  0
    3.6870   -4.2995   -0.5979 H   0  0  0  0  0  0  0  0  0  0  0  0
    6.4135   -3.1486    1.5846 H   0  0  0  0  0  0  0  0  0  0  0  0
    6.6196   -0.7760    2.3404 H   0  0  0  0  0  0  0  0  0  0  0  0
    2.7501    0.1070    1.2522 H   0  0  0  0  0  0  0  0  0  0  0  0
    2.3270   -2.2147    0.4514 H   0  0  0  0  0  0  0  0  0  0  0  0
    4.9305   -6.7335   -0.5843 H   0  0  0  0  0  0  0  0  0  0  0  0
  1  2  1  0
  1 26  1  0
  1 27  1  0
  1 28  1  0
  2 14  1  0
  2  3  1  0
  2  4  1  0
  3 29  1  0
  3 30  1  0
  3 31  1  0
  4 14  1  0
  4  5  1  0
  4 32  1  1
  5  6  1  0
  5 33  1  0
  5 34  1  0
  6 11  1  0
  6  7  1  0
  6 35  1  6
  7  8  1  0
  8 25  1  0
  8  9  1  0
  8 36  1  6
  9 10  1  0
  9 37  1  0
  9 38  1  0
 11 10  1  1
 11 12  1  0
 11 15  1  0
 12 13  1  0
 12 14  1  0
 12 39  1  1
 13 40  1  0
 14 41  1  6
 15 25  1  0
 15 16  1  0
 15 42  1  6
 16 17  1  0
 17 18  1  0
 17 24  1  0
 17 43  1  6
 18 23  1  0
 18 19  2  0
 19 20  1  0
 19 44  1  0
 20 21  2  0
 20 45  1  0
 21 22  1  0
 22 23  2  0
 22 46  1  0
 23 47  1  0
 24 25  1  0
 25 48  1  6
M  END
>  <i_m_ct_stereo_status>  (323) 
1

>  <s_m_source_file>  (323) 
/var/tmp/pbs.5076255.sched01/tmpy8l6melh/117u1qm2xak.sdf

>  <i_m_source_file_index>  (323) 
24

>  <i_lp_mmshare_version>  (323) 
48012

>  <i_f3d_flags>  (323) 
0

>  <s_epik_input>  (323) 
W0NIM11DMShbQ0gzXSlbQ0BASF0oW0NAQEhdMltPSF0pW0NAQEhdMVtDSDJdW0NAQEhdKFtDQEBdMjM0KU9bQ0BIXShbQ0gyXU8zKVtDQEhdNVtDQEBIXTRPW0NASF0oTzUpYzZbY0hdW2NIXW5bY0hdW2NIXTY=

>  <s_epik_cmdline>  (323) 
J2VwaWtfcHl0aG9uJywgJy1waHQnLCAnMi4wJywgJy1waCcsICc3LjAnLCAnLXRuJywgJzgnLCAnLW1hJywgJzIwMCcsICctaW1hZScsICc8aW5maWxlLm1hZT4nLCAnLW9tYWUnLCAnPG91dGZpbGUubWFlPic=

>  <r_epik_Ionization_Penalty>  (323) 
0.033259

>  <r_epik_Ionization_Penalty_Charging>  (323) 
0

>  <r_epik_Ionization_Penalty_Neutral>  (323) 
0.033259

>  <r_epik_State_Penalty>  (323) 
0.0276006

>  <r_epik_Charging_Adjusted_Penalty>  (323) 
0.0276006

>  <i_epik_Tot_Q>  (323) 
0

>  <i_epik_Tot_abs_Q>  (323) 
0

>  <s_epik_Chemistry_Notes>  (323) 
This compound contains an acetal/aminal-like group ( X-CH(R)-Y where X, Y are N, S, or O) that may be acid/base labile, releasing an aldehyde.

>  <s_lp_Force_Field>  (323) 
OPLS3e

>  <r_lp_Energy>  (323) 
59.684

>  <b_lp_Chiralities_Consistent>  (323) 
1

>  <s_lp_Variant>  (323) 
102:0-1

>  <s_i_glide_gridfile>  (323) 
pfpi4k_grid

>  <i_i_glide_lignum>  (323) 
24

>  <i_i_glide_rotatable_bonds>  (323) 
2

>  <r_i_docking_score>  (323) 
-3.38534

>  <r_i_glide_ligand_efficiency>  (323) 
-0.135414

>  <r_i_glide_ligand_efficiency_sa>  (323) 
-0.395952

>  <r_i_glide_ligand_efficiency_ln>  (323) 
-0.802427

>  <r_i_glide_gscore>  (323) 
-3.38534

>  <r_i_glide_lipo>  (323) 
-0.629744

>  <r_i_glide_hbond>  (323) 
-0.0267185

>  <r_i_glide_metal>  (323) 
-0

>  <r_i_glide_rewards>  (323) 
-1.09236

>  <r_i_glide_evdw>  (323) 
-26.3395

>  <r_i_glide_ecoul>  (323) 
-3.19199

>  <r_i_glide_erotb>  (323) 
0.159264

>  <r_i_glide_esite>  (323) 
0

>  <r_i_glide_emodel>  (323) 
-36.0919

>  <r_i_glide_energy>  (323) 
-29.5315

>  <r_i_glide_einternal>  (323) 
0.32232

>  <r_i_glide_intrahb_reward>  (323) 
-0

>  <i_i_glide_confnum>  (323) 
3

>  <i_i_glide_posenum>  (323) 
15

>  <r_i_glide_eff_state_penalty>  (323) 
0

>  <ligand_id>  (323) 
102

>  <original_smiles>  (323) 
CC1(C)C2CC3OC4COC3(C(O)C21)C1OC(c2ccncc2)OC41

>  <smiles>  (323) 
[H]OC1([H])C2([H])C([H])(C([H])([H])C3([H])OC4([H])C([H])([H])OC31C1([H])OC([H])(c3c([H])c([H])nc([H])c3[H])OC41[H])C2(C([H])([H])[H])C([H])([H])[H]

$$$$
102:0:2
     RDKit          3D

 48 53  0  0  1  0  0  0  0  0999 V2000
   -0.0111   -8.6846    5.6736 C   0  0  0  0  0  0  0  0  0  0  0  0
    0.4348   -7.3776    5.0394 C   0  0  0  0  0  0  0  0  0  0  0  0
   -0.5834   -6.2824    5.2940 C   0  0  0  0  0  0  0  0  0  0  0  0
    1.9076   -7.0603    5.0097 C   0  0  1  0  0  0  0  0  0  0  0  0
    3.2058   -7.8288    4.8637 C   0  0  0  0  0  0  0  0  0  0  0  0
    3.8137   -7.5760    3.4455 C   0  0  2  0  0  0  0  0  0  0  0  0
    5.2440   -7.4484    3.5026 O   0  0  0  0  0  0  0  0  0  0  0  0
    5.7509   -6.3377    2.7532 C   0  0  2  0  0  0  0  0  0  0  0  0
    5.1017   -5.0890    3.3732 C   0  0  0  0  0  0  0  0  0  0  0  0
    3.6749   -5.1593    3.2481 O   0  0  0  0  0  0  0  0  0  0  0  0
    3.1768   -6.3668    2.6441 C   0  0  2  0  0  0  0  0  0  0  0  0
    1.6029   -6.3106    2.7402 C   0  0  1  0  0  0  0  0  0  0  0  0
    0.9130   -6.4853    1.5105 O   0  0  0  0  0  0  0  0  0  0  0  0
    1.1374   -7.3726    3.7192 C   0  0  2  0  0  0  0  0  0  0  0  0
    3.7710   -6.4127    1.2124 C   0  0  1  0  0  0  0  0  0  0  0  0
    3.5136   -5.2447    0.4560 O   0  0  0  0  0  0  0  0  0  0  0  0
    4.6487   -5.1144   -0.3236 C   0  0  1  0  0  0  0  0  0  0  0  0
    4.7404   -3.6936   -0.8527 C   0  0  0  0  0  0  0  0  0  0  0  0
    4.9402   -2.5818   -0.0041 C   0  0  0  0  0  0  0  0  0  0  0  0
    5.0150   -1.2955   -0.5777 C   0  0  0  0  0  0  0  0  0  0  0  0
    4.9281   -1.0651   -1.9049 N   0  0  0  0  0  0  0  0  0  0  0  0
    4.7061   -2.1255   -2.7078 C   0  0  0  0  0  0  0  0  0  0  0  0
    4.6193   -3.4485   -2.2375 C   0  0  0  0  0  0  0  0  0  0  0  0
    5.7417   -5.3883    0.4821 O   0  0  0  0  0  0  0  0  0  0  0  0
    5.3066   -6.4739    1.2847 C   0  0  1  0  0  0  0  0  0  0  0  0
   -0.1097   -8.5770    6.7548 H   0  0  0  0  0  0  0  0  0  0  0  0
    0.7212   -9.4699    5.4813 H   0  0  0  0  0  0  0  0  0  0  0  0
   -0.9691   -9.0129    5.2658 H   0  0  0  0  0  0  0  0  0  0  0  0
   -0.2605   -5.3445    4.8420 H   0  0  0  0  0  0  0  0  0  0  0  0
   -0.7182   -6.1161    6.3632 H   0  0  0  0  0  0  0  0  0  0  0  0
   -1.5459   -6.5575    4.8592 H   0  0  0  0  0  0  0  0  0  0  0  0
    2.0994   -6.0206    5.2747 H   0  0  0  0  0  0  0  0  0  0  0  0
    3.8863   -7.4911    5.6458 H   0  0  0  0  0  0  0  0  0  0  0  0
    3.0419   -8.8948    5.0246 H   0  0  0  0  0  0  0  0  0  0  0  0
    3.6297   -8.4834    2.8659 H   0  0  0  0  0  0  0  0  0  0  0  0
    6.8374   -6.3073    2.8343 H   0  0  0  0  0  0  0  0  0  0  0  0
    5.3715   -5.0024    4.4259 H   0  0  0  0  0  0  0  0  0  0  0  0
    5.4627   -4.1926    2.8698 H   0  0  0  0  0  0  0  0  0  0  0  0
    1.3163   -5.3268    3.1179 H   0  0  0  0  0  0  0  0  0  0  0  0
    1.0517   -7.3729    1.2080 H   0  0  0  0  0  0  0  0  0  0  0  0
    1.2142   -8.3762    3.2983 H   0  0  0  0  0  0  0  0  0  0  0  0
    3.4141   -7.2859    0.6682 H   0  0  0  0  0  0  0  0  0  0  0  0
    4.6180   -5.8588   -1.1237 H   0  0  0  0  0  0  0  0  0  0  0  0
    5.0307   -2.7072    1.0648 H   0  0  0  0  0  0  0  0  0  0  0  0
    5.1703   -0.4208    0.0374 H   0  0  0  0  0  0  0  0  0  0  0  0
    4.6174   -1.9128   -3.7636 H   0  0  0  0  0  0  0  0  0  0  0  0
    4.4559   -4.2600   -2.9303 H   0  0  0  0  0  0  0  0  0  0  0  0
    5.6780   -7.4091    0.8629 H   0  0  0  0  0  0  0  0  0  0  0  0
  1  2  1  0
  1 26  1  0
  1 27  1  0
  1 28  1  0
  2 14  1  0
  2  3  1  0
  2  4  1  0
  3 29  1  0
  3 30  1  0
  3 31  1  0
  4 14  1  0
  4  5  1  0
  4 32  1  6
  5  6  1  0
  5 33  1  0
  5 34  1  0
  6 11  1  0
  6  7  1  0
  6 35  1  6
  7  8  1  0
  8 25  1  0
  8  9  1  0
  8 36  1  6
  9 10  1  0
  9 37  1  0
  9 38  1  0
 11 10  1  1
 11 12  1  0
 11 15  1  0
 12 13  1  0
 12 14  1  0
 12 39  1  1
 13 40  1  0
 14 41  1  6
 15 25  1  0
 15 16  1  0
 15 42  1  6
 16 17  1  0
 17 18  1  0
 17 24  1  0
 17 43  1  6
 18 23  1  0
 18 19  2  0
 19 20  1  0
 19 44  1  0
 20 21  2  0
 20 45  1  0
 21 22  1  0
 22 23  2  0
 22 46  1  0
 23 47  1  0
 24 25  1  0
 25 48  1  6
M  END
>  <i_m_ct_stereo_status>  (324) 
1

>  <s_m_source_file>  (324) 
/var/tmp/pbs.5076255.sched01/tmpy8l6melh/117u1qm2xak.sdf

>  <i_m_source_file_index>  (324) 
24

>  <i_lp_mmshare_version>  (324) 
48012

>  <i_f3d_flags>  (324) 
0

>  <s_epik_input>  (324) 
W0NIM11DMShbQ0gzXSlbQ0BASF0oW0NAQEhdMltPSF0pW0NAQEhdMVtDSDJdW0NAQEhdKFtDQEBdMjM0KU9bQ0BIXShbQ0gyXU8zKVtDQEhdNVtDQEBIXTRPW0NASF0oTzUpYzZbY0hdW2NIXW5bY0hdW2NIXTY=

>  <s_epik_cmdline>  (324) 
J2VwaWtfcHl0aG9uJywgJy1waHQnLCAnMi4wJywgJy1waCcsICc3LjAnLCAnLXRuJywgJzgnLCAnLW1hJywgJzIwMCcsICctaW1hZScsICc8aW5maWxlLm1hZT4nLCAnLW9tYWUnLCAnPG91dGZpbGUubWFlPic=

>  <r_epik_Ionization_Penalty>  (324) 
0.033259

>  <r_epik_Ionization_Penalty_Charging>  (324) 
0

>  <r_epik_Ionization_Penalty_Neutral>  (324) 
0.033259

>  <r_epik_State_Penalty>  (324) 
0.0276006

>  <r_epik_Charging_Adjusted_Penalty>  (324) 
0.0276006

>  <i_epik_Tot_Q>  (324) 
0

>  <i_epik_Tot_abs_Q>  (324) 
0

>  <s_epik_Chemistry_Notes>  (324) 
This compound contains an acetal/aminal-like group ( X-CH(R)-Y where X, Y are N, S, or O) that may be acid/base labile, releasing an aldehyde.

>  <s_lp_Force_Field>  (324) 
OPLS3e

>  <r_lp_Energy>  (324) 
59.684

>  <b_lp_Chiralities_Consistent>  (324) 
1

>  <s_lp_Variant>  (324) 
102:0-1

>  <s_i_glide_gridfile>  (324) 
pfpi4k_grid

>  <i_i_glide_lignum>  (324) 
24

>  <i_i_glide_rotatable_bonds>  (324) 
2

>  <r_i_docking_score>  (324) 
-3.04573

>  <r_i_glide_ligand_efficiency>  (324) 
-0.121829

>  <r_i_glide_ligand_efficiency_sa>  (324) 
-0.356231

>  <r_i_glide_ligand_efficiency_ln>  (324) 
-0.72193

>  <r_i_glide_gscore>  (324) 
-3.04573

>  <r_i_glide_lipo>  (324) 
-0.281851

>  <r_i_glide_hbond>  (324) 
0

>  <r_i_glide_metal>  (324) 
-0

>  <r_i_glide_rewards>  (324) 
-1.05416

>  <r_i_glide_evdw>  (324) 
-25.4922

>  <r_i_glide_ecoul>  (324) 
-3.83363

>  <r_i_glide_erotb>  (324) 
0.159264

>  <r_i_glide_esite>  (324) 
-0.0193261

>  <r_i_glide_emodel>  (324) 
-35.2934

>  <r_i_glide_energy>  (324) 
-29.3259

>  <r_i_glide_einternal>  (324) 
0.0959001

>  <r_i_glide_intrahb_reward>  (324) 
-0

>  <i_i_glide_confnum>  (324) 
3

>  <i_i_glide_posenum>  (324) 
1

>  <r_i_glide_eff_state_penalty>  (324) 
0

>  <ligand_id>  (324) 
102

>  <original_smiles>  (324) 
CC1(C)C2CC3OC4COC3(C(O)C21)C1OC(c2ccncc2)OC41

>  <smiles>  (324) 
[H]OC1([H])C2([H])C([H])(C([H])([H])C3([H])OC4([H])C([H])([H])OC31C1([H])OC([H])(c3c([H])c([H])nc([H])c3[H])OC41[H])C2(C([H])([H])[H])C([H])([H])[H]

$$$$
102:1:0
     RDKit          3D

 49 54  0  0  1  0  0  0  0  0999 V2000
   -0.9610   -9.4956    2.6962 C   0  0  0  0  0  0  0  0  0  0  0  0
   -0.3094   -8.1515    2.8255 C   0  0  0  0  0  0  0  0  0  0  0  0
   -1.3393   -7.1428    3.2551 C   0  0  0  0  0  0  0  0  0  0  0  0
    1.1191   -8.0676    3.3331 C   0  0  1  0  0  0  0  0  0  0  0  0
    2.3786   -8.9038    3.2332 C   0  0  0  0  0  0  0  0  0  0  0  0
    3.3858   -8.2242    2.2541 C   0  0  2  0  0  0  0  0  0  0  0  0
    4.7355   -8.3397    2.7202 O   0  0  0  0  0  0  0  0  0  0  0  0
    5.4734   -7.1140    2.6511 C   0  0  2  0  0  0  0  0  0  0  0  0
    4.7168   -6.1138    3.5349 C   0  0  0  0  0  0  0  0  0  0  0  0
    3.3943   -5.9093    3.0284 O   0  0  0  0  0  0  0  0  0  0  0  0
    3.0544   -6.7169    1.8908 C   0  0  2  0  0  0  0  0  0  0  0  0
    1.5346   -6.4462    1.6021 C   0  0  1  0  0  0  0  0  0  0  0  0
    1.2259   -6.0015    0.2879 O   0  0  0  0  0  0  0  0  0  0  0  0
    0.7832   -7.7228    1.8883 C   0  0  2  0  0  0  0  0  0  0  0  0
    4.0354   -6.3095    0.7616 C   0  0  1  0  0  0  0  0  0  0  0  0
    4.0457   -4.9296    0.4667 O   0  0  0  0  0  0  0  0  0  0  0  0
    5.3644   -4.6817    0.1421 C   0  0  1  0  0  0  0  0  0  0  0  0
    5.6382   -3.2084    0.3236 C   0  0  0  0  0  0  0  0  0  0  0  0
    6.9765   -2.7589    0.4030 C   0  0  0  0  0  0  0  0  0  0  0  0
    7.2318   -1.3831    0.4842 C   0  0  0  0  0  0  0  0  0  0  0  0
    6.2097   -0.4937    0.4808 N   0  0  0  0  0  0  0  0  0  0  0  0
    4.9090   -0.8747    0.3950 C   0  0  0  0  0  0  0  0  0  0  0  0
    4.6033   -2.2441    0.2956 C   0  0  0  0  0  0  0  0  0  0  0  0
    6.1756   -5.3968    1.0065 O   0  0  0  0  0  0  0  0  0  0  0  0
    5.4762   -6.6138    1.1969 C   0  0  1  0  0  0  0  0  0  0  0  0
   -1.3853   -9.7414    3.6636 H   0  0  0  0  0  0  0  0  0  0  0  0
   -0.2194  -10.2472    2.4358 H   0  0  0  0  0  0  0  0  0  0  0  0
   -1.7572   -9.4893    1.9512 H   0  0  0  0  0  0  0  0  0  0  0  0
   -0.8273   -6.1997    3.3770 H   0  0  0  0  0  0  0  0  0  0  0  0
   -1.7934   -7.4030    4.2114 H   0  0  0  0  0  0  0  0  0  0  0  0
   -2.1190   -7.0673    2.4956 H   0  0  0  0  0  0  0  0  0  0  0  0
    1.2445   -7.2570    4.0373 H   0  0  0  0  0  0  0  0  0  0  0  0
    2.7925   -8.9929    4.2387 H   0  0  0  0  0  0  0  0  0  0  0  0
    2.1402   -9.9081    2.8915 H   0  0  0  0  0  0  0  0  0  0  0  0
    3.3429   -8.8002    1.3253 H   0  0  0  0  0  0  0  0  0  0  0  0
    6.4860   -7.2808    3.0070 H   0  0  0  0  0  0  0  0  0  0  0  0
    4.6655   -6.4780    4.5610 H   0  0  0  0  0  0  0  0  0  0  0  0
    5.2442   -5.1597    3.5439 H   0  0  0  0  0  0  0  0  0  0  0  0
    1.1736   -5.6749    2.2806 H   0  0  0  0  0  0  0  0  0  0  0  0
    1.9407   -6.2389   -0.2960 H   0  0  0  0  0  0  0  0  0  0  0  0
    1.0113   -8.4812    1.1561 H   0  0  0  0  0  0  0  0  0  0  0  0
    3.8329   -6.8545   -0.1623 H   0  0  0  0  0  0  0  0  0  0  0  0
    5.5555   -5.0228   -0.8777 H   0  0  0  0  0  0  0  0  0  0  0  0
    7.8099   -3.4495    0.3909 H   0  0  0  0  0  0  0  0  0  0  0  0
    8.2318   -0.9662    0.5576 H   0  0  0  0  0  0  0  0  0  0  0  0
    4.1851   -0.0698    0.3845 H   0  0  0  0  0  0  0  0  0  0  0  0
    3.5648   -2.5381    0.1971 H   0  0  0  0  0  0  0  0  0  0  0  0
    5.9033   -7.3708    0.5453 H   0  0  0  0  0  0  0  0  0  0  0  0
    6.4240    0.4993    0.5538 H   0  0  0  0  0  0  0  0  0  0  0  0
  1  2  1  0
  1 26  1  0
  1 27  1  0
  1 28  1  0
  2 14  1  0
  2  3  1  0
  2  4  1  0
  3 29  1  0
  3 30  1  0
  3 31  1  0
  4 14  1  0
  4  5  1  0
  4 32  1  1
  5  6  1  0
  5 33  1  0
  5 34  1  0
  6 11  1  0
  6  7  1  0
  6 35  1  6
  7  8  1  0
  8 25  1  0
  8  9  1  0
  8 36  1  1
  9 10  1  0
  9 37  1  0
  9 38  1  0
 11 10  1  1
 11 12  1  0
 11 15  1  0
 12 13  1  0
 12 14  1  0
 12 39  1  1
 13 40  1  0
 14 41  1  6
 15 25  1  0
 15 16  1  0
 15 42  1  6
 16 17  1  0
 17 18  1  0
 17 24  1  0
 17 43  1  6
 18 23  1  0
 18 19  2  0
 19 20  1  0
 19 44  1  0
 20 21  2  0
 20 45  1  0
 21 22  1  0
 21 49  1  0
 22 23  2  0
 22 46  1  0
 23 47  1  0
 24 25  1  0
 25 48  1  6
M  CHG  1  21   1
M  END
>  <i_m_ct_stereo_status>  (325) 
1

>  <s_m_source_file>  (325) 
/var/tmp/pbs.5076255.sched01/tmpy8l6melh/117u1qm2xak.sdf

>  <i_m_source_file_index>  (325) 
25

>  <i_lp_mmshare_version>  (325) 
48012

>  <i_f3d_flags>  (325) 
0

>  <s_epik_input>  (325) 
W0NIM11DMShbQ0gzXSlbQ0BASF0oW0NAQEhdMltPSF0pW0NAQEhdMVtDSDJdW0NAQEhdKFtDQEBdMjM0KU9bQ0BIXShbQ0gyXU8zKVtDQEhdNVtDQEBIXTRPW0NASF0oTzUpYzZbY0hdW2NIXW5bY0hdW2NIXTY=

>  <s_epik_cmdline>  (325) 
J2VwaWtfcHl0aG9uJywgJy1waHQnLCAnMi4wJywgJy1waCcsICc3LjAnLCAnLXRuJywgJzgnLCAnLW1hJywgJzIwMCcsICctaW1hZScsICc8aW5maWxlLm1hZT4nLCAnLW9tYWUnLCAnPG91dGZpbGUubWFlPic=

>  <r_epik_Ionization_Penalty>  (325) 
1.72291

>  <r_epik_Ionization_Penalty_Charging>  (325) 
1.72291

>  <r_epik_Ionization_Penalty_Neutral>  (325) 
8.95674e-08

>  <r_epik_State_Penalty>  (325) 
1.8306

>  <r_epik_Charging_Adjusted_Penalty>  (325) 
3.55351

>  <i_epik_Tot_Q>  (325) 
1

>  <i_epik_Tot_abs_Q>  (325) 
1

>  <s_epik_Chemistry_Notes>  (325) 
This compound contains an acetal/aminal-like group ( X-CH(R)-Y where X, Y are N, S, or O) that may be acid/base labile, releasing an aldehyde.

>  <s_lp_Force_Field>  (325) 
OPLS3e

>  <r_lp_Energy>  (325) 
64.85

>  <b_lp_Chiralities_Consistent>  (325) 
1

>  <s_lp_Variant>  (325) 
102:0-2

>  <s_i_glide_gridfile>  (325) 
pfpi4k_grid

>  <i_i_glide_lignum>  (325) 
25

>  <i_i_glide_rotatable_bonds>  (325) 
2

>  <r_i_docking_score>  (325) 
-3.77926

>  <r_i_glide_ligand_efficiency>  (325) 
-0.15117

>  <r_i_glide_ligand_efficiency_sa>  (325) 
-0.442025

>  <r_i_glide_ligand_efficiency_ln>  (325) 
-0.895798

>  <r_i_glide_gscore>  (325) 
-3.77926

>  <r_i_glide_lipo>  (325) 
-0.569603

>  <r_i_glide_hbond>  (325) 
0

>  <r_i_glide_metal>  (325) 
-0

>  <r_i_glide_rewards>  (325) 
-1.13366

>  <r_i_glide_evdw>  (325) 
-24.2072

>  <r_i_glide_ecoul>  (325) 
-6.82717

>  <r_i_glide_erotb>  (325) 
0.158442

>  <r_i_glide_esite>  (325) 
0

>  <r_i_glide_emodel>  (325) 
-38.4829

>  <r_i_glide_energy>  (325) 
-31.0343

>  <r_i_glide_einternal>  (325) 
1.12506

>  <r_i_glide_intrahb_reward>  (325) 
-0

>  <i_i_glide_confnum>  (325) 
3

>  <i_i_glide_posenum>  (325) 
39

>  <r_i_glide_eff_state_penalty>  (325) 
0

>  <ligand_id>  (325) 
102

>  <original_smiles>  (325) 
CC1(C)C2CC3OC4COC3(C(O)C21)C1OC(c2ccncc2)OC41

>  <smiles>  (325) 
[H]OC1([H])C2([H])C([H])(C([H])([H])C3([H])OC4([H])C([H])([H])OC31C1([H])OC([H])(c3c([H])c([H])[n+]([H])c([H])c3[H])OC41[H])C2(C([H])([H])[H])C([H])([H])[H]

$$$$
102:1:1
     RDKit          3D

 49 54  0  0  1  0  0  0  0  0999 V2000
    1.2698  -11.4313    3.7976 C   0  0  0  0  0  0  0  0  0  0  0  0
    1.4972   -9.9548    4.0667 C   0  0  0  0  0  0  0  0  0  0  0  0
    0.7490   -9.5182    5.3149 C   0  0  0  0  0  0  0  0  0  0  0  0
    2.8444   -9.3669    3.7292 C   0  0  1  0  0  0  0  0  0  0  0  0
    3.9128   -9.5745    2.6748 C   0  0  0  0  0  0  0  0  0  0  0  0
    3.8987   -8.3803    1.6682 C   0  0  2  0  0  0  0  0  0  0  0  0
    5.2266   -8.0033    1.2675 O   0  0  0  0  0  0  0  0  0  0  0  0
    5.4542   -6.5874    1.2954 C   0  0  2  0  0  0  0  0  0  0  0  0
    5.2152   -6.1558    2.7525 C   0  0  0  0  0  0  0  0  0  0  0  0
    3.8632   -6.4402    3.1370 O   0  0  0  0  0  0  0  0  0  0  0  0
    3.0768   -7.1093    2.1355 C   0  0  2  0  0  0  0  0  0  0  0  0
    1.6929   -7.4679    2.7988 C   0  0  1  0  0  0  0  0  0  0  0  0
    0.5643   -6.9848    2.0793 O   0  0  0  0  0  0  0  0  0  0  0  0
    1.5912   -8.9766    2.9327 C   0  0  2  0  0  0  0  0  0  0  0  0
    3.0121   -6.1416    0.9204 C   0  0  1  0  0  0  0  0  0  0  0  0
    2.5303   -4.8479    1.2272 O   0  0  0  0  0  0  0  0  0  0  0  0
    3.2555   -4.0113    0.3955 C   0  0  1  0  0  0  0  0  0  0  0  0
    3.2373   -2.5950    0.9545 C   0  0  0  0  0  0  0  0  0  0  0  0
    2.3370   -2.2014    1.9767 C   0  0  0  0  0  0  0  0  0  0  0  0
    2.2996   -0.8580    2.3994 C   0  0  0  0  0  0  0  0  0  0  0  0
    3.1308    0.0464    1.8392 N   0  0  0  0  0  0  0  0  0  0  0  0
    4.0132   -0.2822    0.8694 C   0  0  0  0  0  0  0  0  0  0  0  0
    4.0787   -1.6077    0.3974 C   0  0  0  0  0  0  0  0  0  0  0  0
    4.5594   -4.4799    0.3713 O   0  0  0  0  0  0  0  0  0  0  0  0
    4.4298   -5.8933    0.3737 C   0  0  1  0  0  0  0  0  0  0  0  0
    1.6170  -12.0370    4.6375 H   0  0  0  0  0  0  0  0  0  0  0  0
    1.8051  -11.7445    2.9006 H   0  0  0  0  0  0  0  0  0  0  0  0
    0.2147  -11.6345    3.6454 H   0  0  0  0  0  0  0  0  0  0  0  0
    0.9255   -8.4625    5.5145 H   0  0  0  0  0  0  0  0  0  0  0  0
    1.0669  -10.0958    6.1855 H   0  0  0  0  0  0  0  0  0  0  0  0
   -0.3232   -9.6541    5.1779 H   0  0  0  0  0  0  0  0  0  0  0  0
    3.2004   -8.7068    4.5195 H   0  0  0  0  0  0  0  0  0  0  0  0
    4.8758   -9.6496    3.1803 H   0  0  0  0  0  0  0  0  0  0  0  0
    3.7588  -10.5167    2.1463 H   0  0  0  0  0  0  0  0  0  0  0  0
    3.4242   -8.7601    0.7621 H   0  0  0  0  0  0  0  0  0  0  0  0
    6.4753   -6.3758    0.9783 H   0  0  0  0  0  0  0  0  0  0  0  0
    5.9016   -6.6740    3.4226 H   0  0  0  0  0  0  0  0  0  0  0  0
    5.3969   -5.0863    2.8601 H   0  0  0  0  0  0  0  0  0  0  0  0
    1.6602   -7.0186    3.7954 H   0  0  0  0  0  0  0  0  0  0  0  0
    0.3653   -7.6083    1.3941 H   0  0  0  0  0  0  0  0  0  0  0  0
    1.4171   -9.4591    1.9699 H   0  0  0  0  0  0  0  0  0  0  0  0
    2.3849   -6.5471    0.1299 H   0  0  0  0  0  0  0  0  0  0  0  0
    2.8454   -4.0688   -0.6196 H   0  0  0  0  0  0  0  0  0  0  0  0
    1.6623   -2.9143    2.4252 H   0  0  0  0  0  0  0  0  0  0  0  0
    1.6236   -0.4793    3.1554 H   0  0  0  0  0  0  0  0  0  0  0  0
    4.6103    0.5297    0.4796 H   0  0  0  0  0  0  0  0  0  0  0  0
    4.7547   -1.8640   -0.4030 H   0  0  0  0  0  0  0  0  0  0  0  0
    4.5256   -6.2621   -0.6499 H   0  0  0  0  0  0  0  0  0  0  0  0
    3.0894    1.0200    2.1528 H   0  0  0  0  0  0  0  0  0  0  0  0
  1  2  1  0
  1 26  1  0
  1 27  1  0
  1 28  1  0
  2 14  1  0
  2  3  1  0
  2  4  1  0
  3 29  1  0
  3 30  1  0
  3 31  1  0
  4 14  1  0
  4  5  1  0
  4 32  1  1
  5  6  1  0
  5 33  1  0
  5 34  1  0
  6 11  1  0
  6  7  1  0
  6 35  1  6
  7  8  1  0
  8 25  1  0
  8  9  1  0
  8 36  1  6
  9 10  1  0
  9 37  1  0
  9 38  1  0
 11 10  1  1
 11 12  1  0
 11 15  1  0
 12 13  1  0
 12 14  1  0
 12 39  1  1
 13 40  1  0
 14 41  1  6
 15 25  1  0
 15 16  1  0
 15 42  1  6
 16 17  1  0
 17 18  1  0
 17 24  1  0
 17 43  1  6
 18 23  1  0
 18 19  2  0
 19 20  1  0
 19 44  1  0
 20 21  2  0
 20 45  1  0
 21 22  1  0
 21 49  1  0
 22 23  2  0
 22 46  1  0
 23 47  1  0
 24 25  1  0
 25 48  1  6
M  CHG  1  21   1
M  END
>  <i_m_ct_stereo_status>  (326) 
1

>  <s_m_source_file>  (326) 
/var/tmp/pbs.5076255.sched01/tmpy8l6melh/117u1qm2xak.sdf

>  <i_m_source_file_index>  (326) 
25

>  <i_lp_mmshare_version>  (326) 
48012

>  <i_f3d_flags>  (326) 
0

>  <s_epik_input>  (326) 
W0NIM11DMShbQ0gzXSlbQ0BASF0oW0NAQEhdMltPSF0pW0NAQEhdMVtDSDJdW0NAQEhdKFtDQEBdMjM0KU9bQ0BIXShbQ0gyXU8zKVtDQEhdNVtDQEBIXTRPW0NASF0oTzUpYzZbY0hdW2NIXW5bY0hdW2NIXTY=

>  <s_epik_cmdline>  (326) 
J2VwaWtfcHl0aG9uJywgJy1waHQnLCAnMi4wJywgJy1waCcsICc3LjAnLCAnLXRuJywgJzgnLCAnLW1hJywgJzIwMCcsICctaW1hZScsICc8aW5maWxlLm1hZT4nLCAnLW9tYWUnLCAnPG91dGZpbGUubWFlPic=

>  <r_epik_Ionization_Penalty>  (326) 
1.72291

>  <r_epik_Ionization_Penalty_Charging>  (326) 
1.72291

>  <r_epik_Ionization_Penalty_Neutral>  (326) 
8.95674e-08

>  <r_epik_State_Penalty>  (326) 
1.8306

>  <r_epik_Charging_Adjusted_Penalty>  (326) 
3.55351

>  <i_epik_Tot_Q>  (326) 
1

>  <i_epik_Tot_abs_Q>  (326) 
1

>  <s_epik_Chemistry_Notes>  (326) 
This compound contains an acetal/aminal-like group ( X-CH(R)-Y where X, Y are N, S, or O) that may be acid/base labile, releasing an aldehyde.

>  <s_lp_Force_Field>  (326) 
OPLS3e

>  <r_lp_Energy>  (326) 
64.85

>  <b_lp_Chiralities_Consistent>  (326) 
1

>  <s_lp_Variant>  (326) 
102:0-2

>  <s_i_glide_gridfile>  (326) 
pfpi4k_grid

>  <i_i_glide_lignum>  (326) 
25

>  <i_i_glide_rotatable_bonds>  (326) 
2

>  <r_i_docking_score>  (326) 
-3.68778

>  <r_i_glide_ligand_efficiency>  (326) 
-0.147511

>  <r_i_glide_ligand_efficiency_sa>  (326) 
-0.431325

>  <r_i_glide_ligand_efficiency_ln>  (326) 
-0.874114

>  <r_i_glide_gscore>  (326) 
-3.68778

>  <r_i_glide_lipo>  (326) 
-0.472289

>  <r_i_glide_hbond>  (326) 
0

>  <r_i_glide_metal>  (326) 
-0

>  <r_i_glide_rewards>  (326) 
-1.04729

>  <r_i_glide_evdw>  (326) 
-25.9955

>  <r_i_glide_ecoul>  (326) 
-6.7846

>  <r_i_glide_erotb>  (326) 
0.158442

>  <r_i_glide_esite>  (326) 
-0.0091786

>  <r_i_glide_emodel>  (326) 
-40.5941

>  <r_i_glide_energy>  (326) 
-32.7801

>  <r_i_glide_einternal>  (326) 
0.388116

>  <r_i_glide_intrahb_reward>  (326) 
-0

>  <i_i_glide_confnum>  (326) 
4

>  <i_i_glide_posenum>  (326) 
38

>  <r_i_glide_eff_state_penalty>  (326) 
0

>  <ligand_id>  (326) 
102

>  <original_smiles>  (326) 
CC1(C)C2CC3OC4COC3(C(O)C21)C1OC(c2ccncc2)OC41

>  <smiles>  (326) 
[H]OC1([H])C2([H])C([H])(C([H])([H])C3([H])OC4([H])C([H])([H])OC31C1([H])OC([H])(c3c([H])c([H])[n+]([H])c([H])c3[H])OC41[H])C2(C([H])([H])[H])C([H])([H])[H]

$$$$
102:1:2
     RDKit          3D

 49 54  0  0  1  0  0  0  0  0999 V2000
    0.2286  -10.5119    3.6521 C   0  0  0  0  0  0  0  0  0  0  0  0
    0.6136   -9.0606    3.8014 C   0  0  0  0  0  0  0  0  0  0  0  0
   -0.3558   -8.3390    4.7241 C   0  0  0  0  0  0  0  0  0  0  0  0
    2.0798   -8.7101    3.7842 C   0  0  1  0  0  0  0  0  0  0  0  0
    3.3306   -9.2260    3.0988 C   0  0  0  0  0  0  0  0  0  0  0  0
    3.7713   -8.2177    1.9897 C   0  0  2  0  0  0  0  0  0  0  0  0
    5.2007   -8.0836    1.9348 O   0  0  0  0  0  0  0  0  0  0  0  0
    5.6442   -6.7242    1.8559 C   0  0  2  0  0  0  0  0  0  0  0  0
    5.1143   -6.0347    3.1254 C   0  0  0  0  0  0  0  0  0  0  0  0
    3.6802   -6.0808    3.1555 O   0  0  0  0  0  0  0  0  0  0  0  0
    3.0787   -6.7929    2.0604 C   0  0  2  0  0  0  0  0  0  0  0  0
    1.5295   -6.8589    2.3489 C   0  0  1  0  0  0  0  0  0  0  0  0
    0.7037   -6.3695    1.2986 O   0  0  0  0  0  0  0  0  0  0  0  0
    1.1530   -8.2996    2.6302 C   0  0  2  0  0  0  0  0  0  0  0  0
    3.4914   -6.0281    0.7778 C   0  0  1  0  0  0  0  0  0  0  0  0
    3.1767   -4.6511    0.7853 O   0  0  0  0  0  0  0  0  0  0  0  0
    4.2127   -4.0778    0.0714 C   0  0  1  0  0  0  0  0  0  0  0  0
    4.2981   -2.6076    0.4279 C   0  0  0  0  0  0  0  0  0  0  0  0
    3.1506   -1.8835    0.8185 C   0  0  0  0  0  0  0  0  0  0  0  0
    3.2379   -0.4954    1.0558 C   0  0  0  0  0  0  0  0  0  0  0  0
    4.4194    0.1328    0.9051 N   0  0  0  0  0  0  0  0  0  0  0  0
    5.5464   -0.5267    0.5481 C   0  0  0  0  0  0  0  0  0  0  0  0
    5.5145   -1.9117    0.2846 C   0  0  0  0  0  0  0  0  0  0  0  0
    5.3834   -4.7072    0.4577 O   0  0  0  0  0  0  0  0  0  0  0  0
    5.0169   -6.0660    0.6122 C   0  0  1  0  0  0  0  0  0  0  0  0
    0.2385  -11.0186    4.6190 H   0  0  0  0  0  0  0  0  0  0  0  0
    0.9166  -11.0325    2.9836 H   0  0  0  0  0  0  0  0  0  0  0  0
   -0.7713  -10.5808    3.2323 H   0  0  0  0  0  0  0  0  0  0  0  0
   -0.0672   -7.2950    4.8352 H   0  0  0  0  0  0  0  0  0  0  0  0
   -0.3695   -8.8016    5.7109 H   0  0  0  0  0  0  0  0  0  0  0  0
   -1.3645   -8.3708    4.3141 H   0  0  0  0  0  0  0  0  0  0  0  0
    2.3247   -7.9846    4.5557 H   0  0  0  0  0  0  0  0  0  0  0  0
    4.1038   -9.3387    3.8599 H   0  0  0  0  0  0  0  0  0  0  0  0
    3.1597  -10.2139    2.6698 H   0  0  0  0  0  0  0  0  0  0  0  0
    3.4917   -8.6742    1.0354 H   0  0  0  0  0  0  0  0  0  0  0  0
    6.7321   -6.6981    1.8102 H   0  0  0  0  0  0  0  0  0  0  0  0
    5.5125   -6.5192    4.0179 H   0  0  0  0  0  0  0  0  0  0  0  0
    5.4394   -4.9930    3.1465 H   0  0  0  0  0  0  0  0  0  0  0  0
    1.3205   -6.2559    3.2355 H   0  0  0  0  0  0  0  0  0  0  0  0
    0.6725   -7.0378    0.6223 H   0  0  0  0  0  0  0  0  0  0  0  0
    1.1549   -8.9061    1.7216 H   0  0  0  0  0  0  0  0  0  0  0  0
    3.0378   -6.4662   -0.1026 H   0  0  0  0  0  0  0  0  0  0  0  0
    4.0592   -4.2459   -0.9989 H   0  0  0  0  0  0  0  0  0  0  0  0
    2.1901   -2.3672    0.8904 H   0  0  0  0  0  0  0  0  0  0  0  0
    2.3936    0.1327    1.3093 H   0  0  0  0  0  0  0  0  0  0  0  0
    6.4243    0.0785    0.4503 H   0  0  0  0  0  0  0  0  0  0  0  0
    6.4091   -2.4267   -0.0401 H   0  0  0  0  0  0  0  0  0  0  0  0
    5.2886   -6.6008   -0.2981 H   0  0  0  0  0  0  0  0  0  0  0  0
    4.4641    1.1415    1.0625 H   0  0  0  0  0  0  0  0  0  0  0  0
  1  2  1  0
  1 26  1  0
  1 27  1  0
  1 28  1  0
  2 14  1  0
  2  3  1  0
  2  4  1  0
  3 29  1  0
  3 30  1  0
  3 31  1  0
  4 14  1  0
  4  5  1  0
  4 32  1  1
  5  6  1  0
  5 33  1  0
  5 34  1  0
  6 11  1  0
  6  7  1  0
  6 35  1  6
  7  8  1  0
  8 25  1  0
  8  9  1  0
  8 36  1  6
  9 10  1  0
  9 37  1  0
  9 38  1  0
 11 10  1  1
 11 12  1  0
 11 15  1  0
 12 13  1  0
 12 14  1  0
 12 39  1  1
 13 40  1  0
 14 41  1  6
 15 25  1  0
 15 16  1  0
 15 42  1  6
 16 17  1  0
 17 18  1  0
 17 24  1  0
 17 43  1  6
 18 23  1  0
 18 19  2  0
 19 20  1  0
 19 44  1  0
 20 21  2  0
 20 45  1  0
 21 22  1  0
 21 49  1  0
 22 23  2  0
 22 46  1  0
 23 47  1  0
 24 25  1  0
 25 48  1  6
M  CHG  1  21   1
M  END
>  <i_m_ct_stereo_status>  (327) 
1

>  <s_m_source_file>  (327) 
/var/tmp/pbs.5076255.sched01/tmpy8l6melh/117u1qm2xak.sdf

>  <i_m_source_file_index>  (327) 
25

>  <i_lp_mmshare_version>  (327) 
48012

>  <i_f3d_flags>  (327) 
0

>  <s_epik_input>  (327) 
W0NIM11DMShbQ0gzXSlbQ0BASF0oW0NAQEhdMltPSF0pW0NAQEhdMVtDSDJdW0NAQEhdKFtDQEBdMjM0KU9bQ0BIXShbQ0gyXU8zKVtDQEhdNVtDQEBIXTRPW0NASF0oTzUpYzZbY0hdW2NIXW5bY0hdW2NIXTY=

>  <s_epik_cmdline>  (327) 
J2VwaWtfcHl0aG9uJywgJy1waHQnLCAnMi4wJywgJy1waCcsICc3LjAnLCAnLXRuJywgJzgnLCAnLW1hJywgJzIwMCcsICctaW1hZScsICc8aW5maWxlLm1hZT4nLCAnLW9tYWUnLCAnPG91dGZpbGUubWFlPic=

>  <r_epik_Ionization_Penalty>  (327) 
1.72291

>  <r_epik_Ionization_Penalty_Charging>  (327) 
1.72291

>  <r_epik_Ionization_Penalty_Neutral>  (327) 
8.95674e-08

>  <r_epik_State_Penalty>  (327) 
1.8306

>  <r_epik_Charging_Adjusted_Penalty>  (327) 
3.55351

>  <i_epik_Tot_Q>  (327) 
1

>  <i_epik_Tot_abs_Q>  (327) 
1

>  <s_epik_Chemistry_Notes>  (327) 
This compound contains an acetal/aminal-like group ( X-CH(R)-Y where X, Y are N, S, or O) that may be acid/base labile, releasing an aldehyde.

>  <s_lp_Force_Field>  (327) 
OPLS3e

>  <r_lp_Energy>  (327) 
64.85

>  <b_lp_Chiralities_Consistent>  (327) 
1

>  <s_lp_Variant>  (327) 
102:0-2

>  <s_i_glide_gridfile>  (327) 
pfpi4k_grid

>  <i_i_glide_lignum>  (327) 
25

>  <i_i_glide_rotatable_bonds>  (327) 
2

>  <r_i_docking_score>  (327) 
-3.56747

>  <r_i_glide_ligand_efficiency>  (327) 
-0.142699

>  <r_i_glide_ligand_efficiency_sa>  (327) 
-0.417253

>  <r_i_glide_ligand_efficiency_ln>  (327) 
-0.845596

>  <r_i_glide_gscore>  (327) 
-3.56747

>  <r_i_glide_lipo>  (327) 
-0.402216

>  <r_i_glide_hbond>  (327) 
0

>  <r_i_glide_metal>  (327) 
-0

>  <r_i_glide_rewards>  (327) 
-1.05334

>  <r_i_glide_evdw>  (327) 
-22.4491

>  <r_i_glide_ecoul>  (327) 
-7.6526

>  <r_i_glide_erotb>  (327) 
0.158442

>  <r_i_glide_esite>  (327) 
0

>  <r_i_glide_emodel>  (327) 
-37.7863

>  <r_i_glide_energy>  (327) 
-30.1017

>  <r_i_glide_einternal>  (327) 
0.179542

>  <r_i_glide_intrahb_reward>  (327) 
-0

>  <i_i_glide_confnum>  (327) 
6

>  <i_i_glide_posenum>  (327) 
29

>  <r_i_glide_eff_state_penalty>  (327) 
0

>  <ligand_id>  (327) 
102

>  <original_smiles>  (327) 
CC1(C)C2CC3OC4COC3(C(O)C21)C1OC(c2ccncc2)OC41

>  <smiles>  (327) 
[H]OC1([H])C2([H])C([H])(C([H])([H])C3([H])OC4([H])C([H])([H])OC31C1([H])OC([H])(c3c([H])c([H])[n+]([H])c([H])c3[H])OC41[H])C2(C([H])([H])[H])C([H])([H])[H]

$$$$
103:0:0
     RDKit          3D

 53 56  0  0  1  0  0  0  0  0999 V2000
    3.6354   -1.8791    3.5770 C   0  0  0  0  0  0  0  0  0  0  0  0
    4.8831   -1.9061    2.6407 C   0  0  2  0  0  0  0  0  0  0  0  0
    5.0199   -0.5258    1.9834 C   0  0  0  0  0  0  0  0  0  0  0  0
    4.1822   -0.4181    0.6913 C   0  0  0  0  0  0  0  0  0  0  0  0
    4.7275   -1.3575   -0.3599 C   0  0  2  0  0  0  0  0  0  0  0  0
    5.2279   -0.6502   -1.4787 O   0  0  0  0  0  0  0  0  0  0  0  0
    4.2481   -2.7434   -0.7418 C   0  0  2  0  0  0  0  0  0  0  0  0
    4.3355   -3.2248   -2.1894 C   0  0  0  0  0  0  0  0  0  0  0  0
    3.1194   -3.3984    0.0532 C   0  0  1  0  0  0  0  0  0  0  0  0
    2.2364   -4.2380   -0.6716 O   0  0  0  0  0  0  0  0  0  0  0  0
    3.7563   -3.9739    1.3564 C   0  0  1  0  0  0  0  0  0  0  0  0
    4.0000   -5.5427    1.4171 C   0  0  1  0  0  0  0  0  0  0  0  0
    4.8001   -5.9936    0.1728 C   0  0  0  0  0  0  0  0  0  0  0  0
    4.7696   -6.0128    2.6870 C   0  0  1  0  0  0  0  0  0  0  0  0
    4.4550   -5.2472    3.9891 C   0  0  0  0  0  0  0  0  0  0  0  0
    4.3790   -7.4725    2.8555 C   0  0  0  0  0  0  0  0  0  0  0  0
    2.9035   -7.5008    2.5177 C   0  0  0  0  0  0  0  0  0  0  0  0
    2.6847   -6.3965    1.4723 C   0  0  1  0  0  0  0  0  0  0  0  0
    1.5076   -5.7134    1.8751 O   0  0  0  0  0  0  0  0  0  0  0  0
    5.0427   -3.0966    1.5852 C   0  0  1  0  0  0  0  0  0  0  0  0
    5.4462   -2.5861    0.1823 C   0  0  2  0  0  0  0  0  0  0  0  0
    6.9222   -2.9332   -0.2388 C   0  0  0  0  0  0  0  0  0  0  0  0
    7.4691   -2.2536   -1.1416 O   0  0  0  0  0  0  0  0  0  0  0  0
    7.5072   -3.8448    0.3541 O   0  0  0  0  0  0  0  0  0  0  0  0
    2.7076   -1.7275    3.0270 H   0  0  0  0  0  0  0  0  0  0  0  0
    3.7202   -1.0505    4.2853 H   0  0  0  0  0  0  0  0  0  0  0  0
    3.5067   -2.7609    4.2028 H   0  0  0  0  0  0  0  0  0  0  0  0
    5.7370   -1.9935    3.3156 H   0  0  0  0  0  0  0  0  0  0  0  0
    4.7144    0.2512    2.6844 H   0  0  0  0  0  0  0  0  0  0  0  0
    6.0683   -0.3428    1.7481 H   0  0  0  0  0  0  0  0  0  0  0  0
    3.1346   -0.6233    0.8992 H   0  0  0  0  0  0  0  0  0  0  0  0
    4.2108    0.6129    0.3334 H   0  0  0  0  0  0  0  0  0  0  0  0
    5.1959    0.2648   -1.2524 H   0  0  0  0  0  0  0  0  0  0  0  0
    4.5581   -4.2825   -2.2352 H   0  0  0  0  0  0  0  0  0  0  0  0
    5.1230   -2.7225   -2.7429 H   0  0  0  0  0  0  0  0  0  0  0  0
    3.3814   -3.0509   -2.6985 H   0  0  0  0  0  0  0  0  0  0  0  0
    2.4540   -2.5794    0.3699 H   0  0  0  0  0  0  0  0  0  0  0  0
    2.7209   -4.8339   -1.2319 H   0  0  0  0  0  0  0  0  0  0  0  0
    3.0441   -3.7417    2.1156 H   0  0  0  0  0  0  0  0  0  0  0  0
    5.0326   -7.0521    0.1622 H   0  0  0  0  0  0  0  0  0  0  0  0
    5.7501   -5.4767    0.0599 H   0  0  0  0  0  0  0  0  0  0  0  0
    4.2539   -5.8139   -0.7483 H   0  0  0  0  0  0  0  0  0  0  0  0
    5.8528   -5.9623    2.5264 H   0  0  0  0  0  0  0  0  0  0  0  0
    3.3784   -5.0593    4.0745 H   0  0  0  0  0  0  0  0  0  0  0  0
    4.9857   -4.2980    4.0016 H   0  0  0  0  0  0  0  0  0  0  0  0
    4.7669   -5.7660    4.8914 H   0  0  0  0  0  0  0  0  0  0  0  0
    4.9398   -8.1076    2.1739 H   0  0  0  0  0  0  0  0  0  0  0  0
    4.5759   -7.8341    3.8660 H   0  0  0  0  0  0  0  0  0  0  0  0
    2.5632   -8.4701    2.1660 H   0  0  0  0  0  0  0  0  0  0  0  0
    2.3472   -7.2766    3.4307 H   0  0  0  0  0  0  0  0  0  0  0  0
    2.4751   -6.8324    0.4956 H   0  0  0  0  0  0  0  0  0  0  0  0
    1.7524   -5.1302    2.5716 H   0  0  0  0  0  0  0  0  0  0  0  0
    5.8439   -3.7000    1.9763 H   0  0  0  0  0  0  0  0  0  0  0  0
  1  2  1  0
  1 25  1  0
  1 26  1  0
  1 27  1  0
  2 20  1  0
  2  3  1  0
  2 28  1  1
  3  4  1  0
  3 29  1  0
  3 30  1  0
  4  5  1  0
  4 31  1  0
  4 32  1  0
  5 21  1  0
  5  6  1  6
  5  7  1  0
  6 33  1  0
  7 21  1  0
  7  8  1  6
  7  9  1  0
  8 34  1  0
  8 35  1  0
  8 36  1  0
  9 10  1  0
  9 11  1  0
  9 37  1  1
 10 38  1  0
 11 12  1  0
 11 20  1  0
 11 39  1  1
 12 18  1  0
 12 13  1  6
 12 14  1  0
 13 40  1  0
 13 41  1  0
 13 42  1  0
 14 15  1  0
 14 16  1  0
 14 43  1  6
 15 44  1  0
 15 45  1  0
 15 46  1  0
 16 17  1  0
 16 47  1  0
 16 48  1  0
 17 18  1  0
 17 49  1  0
 17 50  1  0
 18 19  1  0
 18 51  1  6
 19 52  1  0
 20 21  1  0
 20 53  1  1
 21 22  1  6
 22 23  2  0
 22 24  1  0
M  CHG  1  24  -1
M  END
>  <i_m_ct_stereo_status>  (328) 
1

>  <s_m_source_file>  (328) 
/var/tmp/pbs.5076255.sched01/tmpy8l6melh/117u1qm2xak.sdf

>  <i_m_source_file_index>  (328) 
26

>  <i_lp_mmshare_version>  (328) 
48012

>  <i_f3d_flags>  (328) 
0

>  <s_epik_input>  (328) 
W09IXVtDQF0xMltDQEBdMyhbQ0gzXSlbQ0BdMihDKD1PKVtPSF0pW0NAQEhdKFtDQEhdKFtDSDNdKVtDSDJdW0NIMl0xKVtDQEBIXShbQ0BASF0zW09IXSlbQ0BAXTQoW0NIM10pW0NAQEhdKFtDSDNdKVtDSDJdW0NIMl1bQ0BIXTRbT0hd

>  <s_epik_cmdline>  (328) 
J2VwaWtfcHl0aG9uJywgJy1waHQnLCAnMi4wJywgJy1waCcsICc3LjAnLCAnLXRuJywgJzgnLCAnLW1hJywgJzIwMCcsICctaW1hZScsICc8aW5maWxlLm1hZT4nLCAnLW9tYWUnLCAnPG91dGZpbGUubWFlPic=

>  <r_epik_Ionization_Penalty>  (328) 
0.00287177

>  <r_epik_Ionization_Penalty_Charging>  (328) 
0.00286332

>  <r_epik_Ionization_Penalty_Neutral>  (328) 
8.45341e-06

>  <r_epik_State_Penalty>  (328) 
0.00200406

>  <r_epik_Charging_Adjusted_Penalty>  (328) 
0.00486737

>  <i_epik_Tot_Q>  (328) 
-1

>  <i_epik_Tot_abs_Q>  (328) 
1

>  <s_lp_Force_Field>  (328) 
OPLS3e

>  <r_lp_Energy>  (328) 
45.4431

>  <b_lp_Chiralities_Consistent>  (328) 
1

>  <s_lp_Variant>  (328) 
103:0-1

>  <s_i_glide_gridfile>  (328) 
pfpi4k_grid

>  <i_i_glide_lignum>  (328) 
26

>  <i_i_glide_rotatable_bonds>  (328) 
5

>  <r_i_docking_score>  (328) 
-4.59624

>  <r_i_glide_ligand_efficiency>  (328) 
-0.19151

>  <r_i_glide_ligand_efficiency_sa>  (328) 
-0.55241

>  <r_i_glide_ligand_efficiency_ln>  (328) 
-1.10009

>  <r_i_glide_gscore>  (328) 
-4.59624

>  <r_i_glide_lipo>  (328) 
-0.519986

>  <r_i_glide_hbond>  (328) 
-0.2

>  <r_i_glide_metal>  (328) 
-0

>  <r_i_glide_rewards>  (328) 
-1.19515

>  <r_i_glide_evdw>  (328) 
-22.4019

>  <r_i_glide_ecoul>  (328) 
-11.5133

>  <r_i_glide_erotb>  (328) 
0.165986

>  <r_i_glide_esite>  (328) 
0

>  <r_i_glide_emodel>  (328) 
-44.8042

>  <r_i_glide_energy>  (328) 
-33.9152

>  <r_i_glide_einternal>  (328) 
2.95668

>  <r_i_glide_intrahb_reward>  (328) 
-0

>  <i_i_glide_confnum>  (328) 
5

>  <i_i_glide_posenum>  (328) 
39

>  <r_i_glide_eff_state_penalty>  (328) 
0

>  <ligand_id>  (328) 
103

>  <original_smiles>  (328) 
CC1CCC2(O)C3(C)C(O)C(C4(C)C(C)CCC4O)C1C23C(=O)O

>  <smiles>  (328) 
[H]OC1([H])C([H])([H])C([H])([H])C([H])(C([H])([H])[H])C1(C([H])([H])[H])C1([H])C([H])(O[H])C2(C([H])([H])[H])C3(O[H])C([H])([H])C([H])([H])C([H])(C([H])([H])[H])C1([H])C32C(=O)[O-]

$$$$
105:0:0
     RDKit          3D

 35 38  0  0  1  0  0  0  0  0999 V2000
    5.0704   -0.7005   -0.3905 C   0  0  0  0  0  0  0  0  0  0  0  0
    4.4972   -1.6389    0.3606 C   0  0  0  0  0  0  0  0  0  0  0  0
    4.5061   -1.5767    1.8692 C   0  0  0  0  0  0  0  0  0  0  0  0
    3.2319   -1.8989    2.3969 O   0  0  0  0  0  0  0  0  0  0  0  0
    2.7534   -3.1254    2.0055 C   0  0  0  0  0  0  0  0  0  0  0  0
    2.0056   -3.8678    2.9368 C   0  0  0  0  0  0  0  0  0  0  0  0
    1.5648   -5.1658    2.6185 C   0  0  0  0  0  0  0  0  0  0  0  0
    1.8731   -5.7227    1.3618 C   0  0  0  0  0  0  0  0  0  0  0  0
    2.6084   -4.9748    0.4221 C   0  0  0  0  0  0  0  0  0  0  0  0
    3.0229   -3.6546    0.7166 C   0  0  0  0  0  0  0  0  0  0  0  0
    3.8078   -2.8206   -0.2991 C   0  0  1  0  0  0  0  0  0  0  0  0
    3.0044   -2.3497   -1.4789 N   0  0  2  0  0  0  0  0  0  0  0  0
    2.5861   -3.4043   -2.4236 C   0  0  0  0  0  0  0  0  0  0  0  0
    2.4084   -2.7508   -3.7847 C   0  0  0  0  0  0  0  0  0  0  0  0
    3.5461   -1.7433   -3.7881 C   0  0  0  0  0  0  0  0  0  0  0  0
    3.5916   -1.2734   -2.3329 C   0  0  2  0  0  0  0  0  0  0  0  0
    4.9795   -0.7974   -1.8909 C   0  0  0  0  0  0  0  0  0  0  0  0
    5.5845    0.1304    0.0716 H   0  0  0  0  0  0  0  0  0  0  0  0
    5.2497   -2.2786    2.2530 H   0  0  0  0  0  0  0  0  0  0  0  0
    4.7939   -0.5775    2.2041 H   0  0  0  0  0  0  0  0  0  0  0  0
    1.7936   -3.4408    3.9075 H   0  0  0  0  0  0  0  0  0  0  0  0
    0.9876   -5.7234    3.3408 H   0  0  0  0  0  0  0  0  0  0  0  0
    1.5303   -6.7198    1.1143 H   0  0  0  0  0  0  0  0  0  0  0  0
    2.8488   -5.4161   -0.5340 H   0  0  0  0  0  0  0  0  0  0  0  0
    4.6209   -3.4505   -0.6584 H   0  0  0  0  0  0  0  0  0  0  0  0
    3.4146   -4.1023   -2.5216 H   0  0  0  0  0  0  0  0  0  0  0  0
    1.6815   -3.9178   -2.1081 H   0  0  0  0  0  0  0  0  0  0  0  0
    2.4559   -3.4546   -4.6193 H   0  0  0  0  0  0  0  0  0  0  0  0
    1.4287   -2.2731   -3.8351 H   0  0  0  0  0  0  0  0  0  0  0  0
    4.4764   -2.2472   -4.0599 H   0  0  0  0  0  0  0  0  0  0  0  0
    3.3881   -0.9178   -4.4880 H   0  0  0  0  0  0  0  0  0  0  0  0
    2.8803   -0.4512   -2.2744 H   0  0  0  0  0  0  0  0  0  0  0  0
    5.1416    0.1758   -2.3316 H   0  0  0  0  0  0  0  0  0  0  0  0
    5.7791   -1.4491   -2.2424 H   0  0  0  0  0  0  0  0  0  0  0  0
    2.1477   -1.9200   -1.1269 H   0  0  0  0  0  0  0  0  0  0  0  0
  1 17  1  0
  1  2  2  0
  1 18  1  0
  2 11  1  0
  2  3  1  0
  3  4  1  0
  3 19  1  0
  3 20  1  0
  4  5  1  0
  5 10  2  0
  5  6  1  0
  6  7  2  0
  6 21  1  0
  7  8  1  0
  7 22  1  0
  8  9  2  0
  8 23  1  0
  9 10  1  0
  9 24  1  0
 10 11  1  0
 11 12  1  0
 11 25  1  6
 12 16  1  0
 12 13  1  0
 12 35  1  1
 13 14  1  0
 13 26  1  0
 13 27  1  0
 14 15  1  0
 14 28  1  0
 14 29  1  0
 15 16  1  0
 15 30  1  0
 15 31  1  0
 16 17  1  0
 16 32  1  6
 17 33  1  0
 17 34  1  0
M  CHG  1  12   1
M  END
>  <i_m_ct_stereo_status>  (329) 
1

>  <s_m_source_file>  (329) 
/var/tmp/pbs.5076255.sched01/tmpy8l6melh/117u1qm2xak.sdf

>  <i_m_source_file_index>  (329) 
30

>  <i_lp_mmshare_version>  (329) 
48012

>  <i_f3d_flags>  (329) 
0

>  <s_epik_input>  (329) 
W0NIMl0xW0NIMl1bQ0gyXVtDQEhdKFtDSDJdW0NIXT0yKU4xW0NAQEhdKEMyMyljNGMoT1tDSDJdMylbY0hdW2NIXVtjSF1bY0hdNA==

>  <s_epik_cmdline>  (329) 
J2VwaWtfcHl0aG9uJywgJy1waHQnLCAnMi4wJywgJy1waCcsICc3LjAnLCAnLXRuJywgJzgnLCAnLW1hJywgJzIwMCcsICctaW1hZScsICc8aW5maWxlLm1hZT4nLCAnLW9tYWUnLCAnPG91dGZpbGUubWFlPic=

>  <r_lp_tautomer_probability>  (329) 
1

>  <r_epik_Ionization_Penalty>  (329) 
0.0905477

>  <r_epik_Ionization_Penalty_Charging>  (329) 
0.0905477

>  <r_epik_Ionization_Penalty_Neutral>  (329) 
0

>  <r_epik_State_Penalty>  (329) 
0.080914

>  <r_epik_Charging_Adjusted_Penalty>  (329) 
0.171462

>  <i_epik_Tot_Q>  (329) 
1

>  <i_epik_Tot_abs_Q>  (329) 
1

>  <s_lp_Force_Field>  (329) 
OPLS3e

>  <r_lp_Energy>  (329) 
33.4923

>  <b_lp_Chiralities_Consistent>  (329) 
1

>  <s_lp_Variant>  (329) 
105:0-1

>  <s_i_glide_gridfile>  (329) 
pfpi4k_grid

>  <i_i_glide_lignum>  (329) 
30

>  <i_i_glide_rotatable_bonds>  (329) 
0

>  <r_i_docking_score>  (329) 
-4.3383

>  <r_i_glide_ligand_efficiency>  (329) 
-0.255194

>  <r_i_glide_ligand_efficiency_sa>  (329) 
-0.656176

>  <r_i_glide_ligand_efficiency_ln>  (329) 
-1.13177

>  <r_i_glide_gscore>  (329) 
-4.3383

>  <r_i_glide_lipo>  (329) 
-0.497097

>  <r_i_glide_hbond>  (329) 
-0.2

>  <r_i_glide_metal>  (329) 
-0

>  <r_i_glide_rewards>  (329) 
-1.85244

>  <r_i_glide_evdw>  (329) 
-15.0496

>  <r_i_glide_ecoul>  (329) 
-6.41266

>  <r_i_glide_erotb>  (329) 
0

>  <r_i_glide_esite>  (329) 
-0.0743913

>  <r_i_glide_emodel>  (329) 
-28.8061

>  <r_i_glide_energy>  (329) 
-21.4622

>  <r_i_glide_einternal>  (329) 
0

>  <r_i_glide_intrahb_reward>  (329) 
-0

>  <i_i_glide_confnum>  (329) 
1

>  <i_i_glide_posenum>  (329) 
15

>  <r_i_glide_eff_state_penalty>  (329) 
0

>  <ligand_id>  (329) 
105

>  <original_smiles>  (329) 
C1=C2COc3ccccc3C2N2CCCC2C1

>  <smiles>  (329) 
[H]C1=C2C([H])([H])Oc3c([H])c([H])c([H])c([H])c3C2([H])[N+]2([H])C([H])([H])C([H])([H])C([H])([H])C2([H])C1([H])[H]

$$$$
105:0:1
     RDKit          3D

 35 38  0  0  1  0  0  0  0  0999 V2000
    5.2721   -1.6153    1.4930 C   0  0  0  0  0  0  0  0  0  0  0  0
    4.5122   -2.6632    1.8437 C   0  0  0  0  0  0  0  0  0  0  0  0
    4.2306   -3.0175    3.2892 C   0  0  0  0  0  0  0  0  0  0  0  0
    2.8567   -3.3106    3.4927 O   0  0  0  0  0  0  0  0  0  0  0  0
    2.3694   -4.3174    2.7012 C   0  0  0  0  0  0  0  0  0  0  0  0
    1.3990   -5.1775    3.2508 C   0  0  0  0  0  0  0  0  0  0  0  0
    0.9138   -6.2695    2.5092 C   0  0  0  0  0  0  0  0  0  0  0  0
    1.4071   -6.5049    1.2142 C   0  0  0  0  0  0  0  0  0  0  0  0
    2.3731   -5.6393    0.6581 C   0  0  0  0  0  0  0  0  0  0  0  0
    2.8398   -4.5159    1.3768 C   0  0  0  0  0  0  0  0  0  0  0  0
    3.8781   -3.5545    0.7775 C   0  0  1  0  0  0  0  0  0  0  0  0
    3.3460   -2.7023   -0.3474 N   0  0  2  0  0  0  0  0  0  0  0  0
    3.0189   -3.4087   -1.6090 C   0  0  0  0  0  0  0  0  0  0  0  0
    3.1306   -2.3630   -2.7171 C   0  0  0  0  0  0  0  0  0  0  0  0
    4.3335   -1.5534   -2.2577 C   0  0  0  0  0  0  0  0  0  0  0  0
    4.1460   -1.4949   -0.7348 C   0  0  2  0  0  0  0  0  0  0  0  0
    5.4650   -1.2894    0.0379 C   0  0  0  0  0  0  0  0  0  0  0  0
    5.7431   -0.9762    2.2273 H   0  0  0  0  0  0  0  0  0  0  0  0
    4.8293   -3.8873    3.5744 H   0  0  0  0  0  0  0  0  0  0  0  0
    4.5159   -2.1917    3.9433 H   0  0  0  0  0  0  0  0  0  0  0  0
    1.0471   -5.0124    4.2593 H   0  0  0  0  0  0  0  0  0  0  0  0
    0.1849   -6.9393    2.9439 H   0  0  0  0  0  0  0  0  0  0  0  0
    1.0535   -7.3607    0.6546 H   0  0  0  0  0  0  0  0  0  0  0  0
    2.7701   -5.8530   -0.3214 H   0  0  0  0  0  0  0  0  0  0  0  0
    4.6908   -4.1705    0.3894 H   0  0  0  0  0  0  0  0  0  0  0  0
    3.7538   -4.1924   -1.7986 H   0  0  0  0  0  0  0  0  0  0  0  0
    2.0265   -3.8575   -1.5845 H   0  0  0  0  0  0  0  0  0  0  0  0
    3.2525   -2.8007   -3.7080 H   0  0  0  0  0  0  0  0  0  0  0  0
    2.2401   -1.7314   -2.7341 H   0  0  0  0  0  0  0  0  0  0  0  0
    5.2444   -2.0954   -2.5210 H   0  0  0  0  0  0  0  0  0  0  0  0
    4.3769   -0.5656   -2.7158 H   0  0  0  0  0  0  0  0  0  0  0  0
    3.4874   -0.6562   -0.5099 H   0  0  0  0  0  0  0  0  0  0  0  0
    5.7894   -0.2540   -0.0529 H   0  0  0  0  0  0  0  0  0  0  0  0
    6.2613   -1.9313   -0.3433 H   0  0  0  0  0  0  0  0  0  0  0  0
    2.4734   -2.3029   -0.0243 H   0  0  0  0  0  0  0  0  0  0  0  0
  1 17  1  0
  1  2  2  0
  1 18  1  0
  2 11  1  0
  2  3  1  0
  3  4  1  0
  3 19  1  0
  3 20  1  0
  4  5  1  0
  5 10  2  0
  5  6  1  0
  6  7  2  0
  6 21  1  0
  7  8  1  0
  7 22  1  0
  8  9  2  0
  8 23  1  0
  9 10  1  0
  9 24  1  0
 10 11  1  0
 11 12  1  0
 11 25  1  6
 12 16  1  0
 12 13  1  0
 12 35  1  1
 13 14  1  0
 13 26  1  0
 13 27  1  0
 14 15  1  0
 14 28  1  0
 14 29  1  0
 15 16  1  0
 15 30  1  0
 15 31  1  0
 16 17  1  0
 16 32  1  6
 17 33  1  0
 17 34  1  0
M  CHG  1  12   1
M  END
>  <i_m_ct_stereo_status>  (330) 
1

>  <s_m_source_file>  (330) 
/var/tmp/pbs.5076255.sched01/tmpy8l6melh/117u1qm2xak.sdf

>  <i_m_source_file_index>  (330) 
30

>  <i_lp_mmshare_version>  (330) 
48012

>  <i_f3d_flags>  (330) 
0

>  <s_epik_input>  (330) 
W0NIMl0xW0NIMl1bQ0gyXVtDQEhdKFtDSDJdW0NIXT0yKU4xW0NAQEhdKEMyMyljNGMoT1tDSDJdMylbY0hdW2NIXVtjSF1bY0hdNA==

>  <s_epik_cmdline>  (330) 
J2VwaWtfcHl0aG9uJywgJy1waHQnLCAnMi4wJywgJy1waCcsICc3LjAnLCAnLXRuJywgJzgnLCAnLW1hJywgJzIwMCcsICctaW1hZScsICc8aW5maWxlLm1hZT4nLCAnLW9tYWUnLCAnPG91dGZpbGUubWFlPic=

>  <r_lp_tautomer_probability>  (330) 
1

>  <r_epik_Ionization_Penalty>  (330) 
0.0905477

>  <r_epik_Ionization_Penalty_Charging>  (330) 
0.0905477

>  <r_epik_Ionization_Penalty_Neutral>  (330) 
0

>  <r_epik_State_Penalty>  (330) 
0.080914

>  <r_epik_Charging_Adjusted_Penalty>  (330) 
0.171462

>  <i_epik_Tot_Q>  (330) 
1

>  <i_epik_Tot_abs_Q>  (330) 
1

>  <s_lp_Force_Field>  (330) 
OPLS3e

>  <r_lp_Energy>  (330) 
33.4923

>  <b_lp_Chiralities_Consistent>  (330) 
1

>  <s_lp_Variant>  (330) 
105:0-1

>  <s_i_glide_gridfile>  (330) 
pfpi4k_grid

>  <i_i_glide_lignum>  (330) 
30

>  <i_i_glide_rotatable_bonds>  (330) 
0

>  <r_i_docking_score>  (330) 
-3.84182

>  <r_i_glide_ligand_efficiency>  (330) 
-0.22599

>  <r_i_glide_ligand_efficiency_sa>  (330) 
-0.581083

>  <r_i_glide_ligand_efficiency_ln>  (330) 
-1.00225

>  <r_i_glide_gscore>  (330) 
-3.84182

>  <r_i_glide_lipo>  (330) 
-0.255899

>  <r_i_glide_hbond>  (330) 
-0.0472236

>  <r_i_glide_metal>  (330) 
-0

>  <r_i_glide_rewards>  (330) 
-1.85244

>  <r_i_glide_evdw>  (330) 
-19.369

>  <r_i_glide_ecoul>  (330) 
-4.5534

>  <r_i_glide_erotb>  (330) 
0

>  <r_i_glide_esite>  (330) 
-0.0348047

>  <r_i_glide_emodel>  (330) 
-30.4401

>  <r_i_glide_energy>  (330) 
-23.9224

>  <r_i_glide_einternal>  (330) 
0

>  <r_i_glide_intrahb_reward>  (330) 
-0

>  <i_i_glide_confnum>  (330) 
2

>  <i_i_glide_posenum>  (330) 
7

>  <r_i_glide_eff_state_penalty>  (330) 
0

>  <ligand_id>  (330) 
105

>  <original_smiles>  (330) 
C1=C2COc3ccccc3C2N2CCCC2C1

>  <smiles>  (330) 
[H]C1=C2C([H])([H])Oc3c([H])c([H])c([H])c([H])c3C2([H])[N+]2([H])C([H])([H])C([H])([H])C([H])([H])C2([H])C1([H])[H]

$$$$
105:0:2
     RDKit          3D

 35 38  0  0  1  0  0  0  0  0999 V2000
   -0.1733   -1.7308    5.0681 C   0  0  0  0  0  0  0  0  0  0  0  0
    0.8747   -1.8053    4.2364 C   0  0  0  0  0  0  0  0  0  0  0  0
    1.5718   -3.1125    3.9208 C   0  0  0  0  0  0  0  0  0  0  0  0
    1.8207   -3.2443    2.5326 O   0  0  0  0  0  0  0  0  0  0  0  0
    2.5442   -2.2208    1.9813 C   0  0  0  0  0  0  0  0  0  0  0  0
    3.4377   -2.5394    0.9409 C   0  0  0  0  0  0  0  0  0  0  0  0
    4.2694   -1.5464    0.3981 C   0  0  0  0  0  0  0  0  0  0  0  0
    4.2069   -0.2349    0.8993 C   0  0  0  0  0  0  0  0  0  0  0  0
    3.2931    0.0995    1.9188 C   0  0  0  0  0  0  0  0  0  0  0  0
    2.4287   -0.8840    2.4536 C   0  0  0  0  0  0  0  0  0  0  0  0
    1.4215   -0.5463    3.5608 C   0  0  1  0  0  0  0  0  0  0  0  0
    0.2832    0.3241    3.1031 N   0  0  2  0  0  0  0  0  0  0  0  0
    0.6125    1.7221    2.7353 C   0  0  0  0  0  0  0  0  0  0  0  0
   -0.6792    2.5139    2.9410 C   0  0  0  0  0  0  0  0  0  0  0  0
   -1.2528    1.8752    4.1931 C   0  0  0  0  0  0  0  0  0  0  0  0
   -0.9280    0.3918    3.9864 C   0  0  2  0  0  0  0  0  0  0  0  0
   -0.8462   -0.4061    5.3043 C   0  0  0  0  0  0  0  0  0  0  0  0
   -0.5631   -2.6032    5.5747 H   0  0  0  0  0  0  0  0  0  0  0  0
    2.5227   -3.1609    4.4573 H   0  0  0  0  0  0  0  0  0  0  0  0
    0.9601   -3.9539    4.2527 H   0  0  0  0  0  0  0  0  0  0  0  0
    3.5071   -3.5584    0.5859 H   0  0  0  0  0  0  0  0  0  0  0  0
    4.9593   -1.8001   -0.3911 H   0  0  0  0  0  0  0  0  0  0  0  0
    4.8537    0.5276    0.4919 H   0  0  0  0  0  0  0  0  0  0  0  0
    3.2732    1.1137    2.2879 H   0  0  0  0  0  0  0  0  0  0  0  0
    1.9734   -0.0110    4.3347 H   0  0  0  0  0  0  0  0  0  0  0  0
    1.3780    2.1217    3.4025 H   0  0  0  0  0  0  0  0  0  0  0  0
    0.9733    1.8054    1.7094 H   0  0  0  0  0  0  0  0  0  0  0  0
   -0.5033    3.5847    3.0446 H   0  0  0  0  0  0  0  0  0  0  0  0
   -1.3542    2.3686    2.0954 H   0  0  0  0  0  0  0  0  0  0  0  0
   -0.7338    2.2727    5.0679 H   0  0  0  0  0  0  0  0  0  0  0  0
   -2.3195    2.0663    4.3093 H   0  0  0  0  0  0  0  0  0  0  0  0
   -1.7375   -0.0357    3.3938 H   0  0  0  0  0  0  0  0  0  0  0  0
   -1.8491   -0.5733    5.6984 H   0  0  0  0  0  0  0  0  0  0  0  0
   -0.2712    0.1318    6.0610 H   0  0  0  0  0  0  0  0  0  0  0  0
   -0.0388   -0.1028    2.2456 H   0  0  0  0  0  0  0  0  0  0  0  0
  1 17  1  0
  1  2  2  0
  1 18  1  0
  2 11  1  0
  2  3  1  0
  3  4  1  0
  3 19  1  0
  3 20  1  0
  4  5  1  0
  5 10  2  0
  5  6  1  0
  6  7  2  0
  6 21  1  0
  7  8  1  0
  7 22  1  0
  8  9  2  0
  8 23  1  0
  9 10  1  0
  9 24  1  0
 10 11  1  0
 11 12  1  0
 11 25  1  1
 12 16  1  0
 12 13  1  0
 12 35  1  6
 13 14  1  0
 13 26  1  0
 13 27  1  0
 14 15  1  0
 14 28  1  0
 14 29  1  0
 15 16  1  0
 15 30  1  0
 15 31  1  0
 16 17  1  0
 16 32  1  6
 17 33  1  0
 17 34  1  0
M  CHG  1  12   1
M  END
>  <i_m_ct_stereo_status>  (331) 
1

>  <s_m_source_file>  (331) 
/var/tmp/pbs.5076255.sched01/tmpy8l6melh/117u1qm2xak.sdf

>  <i_m_source_file_index>  (331) 
30

>  <i_lp_mmshare_version>  (331) 
48012

>  <i_f3d_flags>  (331) 
0

>  <s_epik_input>  (331) 
W0NIMl0xW0NIMl1bQ0gyXVtDQEhdKFtDSDJdW0NIXT0yKU4xW0NAQEhdKEMyMyljNGMoT1tDSDJdMylbY0hdW2NIXVtjSF1bY0hdNA==

>  <s_epik_cmdline>  (331) 
J2VwaWtfcHl0aG9uJywgJy1waHQnLCAnMi4wJywgJy1waCcsICc3LjAnLCAnLXRuJywgJzgnLCAnLW1hJywgJzIwMCcsICctaW1hZScsICc8aW5maWxlLm1hZT4nLCAnLW9tYWUnLCAnPG91dGZpbGUubWFlPic=

>  <r_lp_tautomer_probability>  (331) 
1

>  <r_epik_Ionization_Penalty>  (331) 
0.0905477

>  <r_epik_Ionization_Penalty_Charging>  (331) 
0.0905477

>  <r_epik_Ionization_Penalty_Neutral>  (331) 
0

>  <r_epik_State_Penalty>  (331) 
0.080914

>  <r_epik_Charging_Adjusted_Penalty>  (331) 
0.171462

>  <i_epik_Tot_Q>  (331) 
1

>  <i_epik_Tot_abs_Q>  (331) 
1

>  <s_lp_Force_Field>  (331) 
OPLS3e

>  <r_lp_Energy>  (331) 
33.4923

>  <b_lp_Chiralities_Consistent>  (331) 
1

>  <s_lp_Variant>  (331) 
105:0-1

>  <s_i_glide_gridfile>  (331) 
pfpi4k_grid

>  <i_i_glide_lignum>  (331) 
30

>  <i_i_glide_rotatable_bonds>  (331) 
0

>  <r_i_docking_score>  (331) 
-3.25022

>  <r_i_glide_ligand_efficiency>  (331) 
-0.191189

>  <r_i_glide_ligand_efficiency_sa>  (331) 
-0.491601

>  <r_i_glide_ligand_efficiency_ln>  (331) 
-0.847909

>  <r_i_glide_gscore>  (331) 
-3.25022

>  <r_i_glide_lipo>  (331) 
-0.169347

>  <r_i_glide_hbond>  (331) 
0

>  <r_i_glide_metal>  (331) 
-0

>  <r_i_glide_rewards>  (331) 
-1.85244

>  <r_i_glide_evdw>  (331) 
-18.0865

>  <r_i_glide_ecoul>  (331) 
-1.97109

>  <r_i_glide_erotb>  (331) 
0

>  <r_i_glide_esite>  (331) 
-0.0284448

>  <r_i_glide_emodel>  (331) 
-25.5582

>  <r_i_glide_energy>  (331) 
-20.0576

>  <r_i_glide_einternal>  (331) 
0

>  <r_i_glide_intrahb_reward>  (331) 
-0

>  <i_i_glide_confnum>  (331) 
1

>  <i_i_glide_posenum>  (331) 
9

>  <r_i_glide_eff_state_penalty>  (331) 
0

>  <ligand_id>  (331) 
105

>  <original_smiles>  (331) 
C1=C2COc3ccccc3C2N2CCCC2C1

>  <smiles>  (331) 
[H]C1=C2C([H])([H])Oc3c([H])c([H])c([H])c([H])c3C2([H])[N+]2([H])C([H])([H])C([H])([H])C([H])([H])C2([H])C1([H])[H]

$$$$
105:1:0
     RDKit          3D

 34 37  0  0  1  0  0  0  0  0999 V2000
    6.4806   -3.3472    1.0119 C   0  0  0  0  0  0  0  0  0  0  0  0
    5.4902   -2.5846    0.5249 C   0  0  0  0  0  0  0  0  0  0  0  0
    5.5987   -1.0815    0.3761 C   0  0  0  0  0  0  0  0  0  0  0  0
    5.4213   -0.6657   -0.9696 O   0  0  0  0  0  0  0  0  0  0  0  0
    4.4523   -1.2873   -1.7198 C   0  0  0  0  0  0  0  0  0  0  0  0
    4.1362   -0.6923   -2.9571 C   0  0  0  0  0  0  0  0  0  0  0  0
    3.2126   -1.2894   -3.8281 C   0  0  0  0  0  0  0  0  0  0  0  0
    2.5977   -2.4964   -3.4556 C   0  0  0  0  0  0  0  0  0  0  0  0
    2.8847   -3.0765   -2.2103 C   0  0  0  0  0  0  0  0  0  0  0  0
    3.8141   -2.4954   -1.3196 C   0  0  0  0  0  0  0  0  0  0  0  0
    4.1613   -3.1385    0.0378 C   0  0  1  0  0  0  0  0  0  0  0  0
    4.0709   -4.6182    0.0809 N   0  0  0  0  0  0  0  0  0  0  0  0
    2.7190   -5.0621    0.4340 C   0  0  0  0  0  0  0  0  0  0  0  0
    2.6789   -5.1924    1.9627 C   0  0  0  0  0  0  0  0  0  0  0  0
    4.1305   -5.3312    2.3823 C   0  0  0  0  0  0  0  0  0  0  0  0
    4.9034   -5.3328    1.0606 C   0  0  2  0  0  0  0  0  0  0  0  0
    6.3630   -4.8439    1.1379 C   0  0  0  0  0  0  0  0  0  0  0  0
    7.4254   -2.9019    1.2871 H   0  0  0  0  0  0  0  0  0  0  0  0
    4.8479   -0.5959    0.9989 H   0  0  0  0  0  0  0  0  0  0  0  0
    6.5773   -0.7358    0.7172 H   0  0  0  0  0  0  0  0  0  0  0  0
    4.6086    0.2370   -3.2288 H   0  0  0  0  0  0  0  0  0  0  0  0
    2.9648   -0.8183   -4.7657 H   0  0  0  0  0  0  0  0  0  0  0  0
    1.8804   -2.9620   -4.1155 H   0  0  0  0  0  0  0  0  0  0  0  0
    2.3849   -3.9970   -1.9618 H   0  0  0  0  0  0  0  0  0  0  0  0
    3.4354   -2.7469    0.7499 H   0  0  0  0  0  0  0  0  0  0  0  0
    1.9297   -4.4087    0.0616 H   0  0  0  0  0  0  0  0  0  0  0  0
    2.5638   -6.0476   -0.0028 H   0  0  0  0  0  0  0  0  0  0  0  0
    2.2354   -4.3012    2.4129 H   0  0  0  0  0  0  0  0  0  0  0  0
    2.0819   -6.0537    2.2694 H   0  0  0  0  0  0  0  0  0  0  0  0
    4.4169   -4.5007    3.0251 H   0  0  0  0  0  0  0  0  0  0  0  0
    4.3080   -6.2546    2.9353 H   0  0  0  0  0  0  0  0  0  0  0  0
    4.9246   -6.3732    0.7311 H   0  0  0  0  0  0  0  0  0  0  0  0
    6.9507   -5.2901    0.3373 H   0  0  0  0  0  0  0  0  0  0  0  0
    6.8182   -5.1538    2.0809 H   0  0  0  0  0  0  0  0  0  0  0  0
  1 17  1  0
  1  2  2  0
  1 18  1  0
  2 11  1  0
  2  3  1  0
  3  4  1  0
  3 19  1  0
  3 20  1  0
  4  5  1  0
  5 10  2  0
  5  6  1  0
  6  7  2  0
  6 21  1  0
  7  8  1  0
  7 22  1  0
  8  9  2  0
  8 23  1  0
  9 10  1  0
  9 24  1  0
 10 11  1  0
 11 12  1  0
 11 25  1  1
 12 16  1  0
 12 13  1  0
 13 14  1  0
 13 26  1  0
 13 27  1  0
 14 15  1  0
 14 28  1  0
 14 29  1  0
 15 16  1  0
 15 30  1  0
 15 31  1  0
 16 17  1  0
 16 32  1  6
 17 33  1  0
 17 34  1  0
M  END
>  <i_m_ct_stereo_status>  (332) 
1

>  <s_m_source_file>  (332) 
/var/tmp/pbs.5076255.sched01/tmpy8l6melh/117u1qm2xak.sdf

>  <i_m_source_file_index>  (332) 
31

>  <i_lp_mmshare_version>  (332) 
48012

>  <i_f3d_flags>  (332) 
0

>  <s_epik_input>  (332) 
W0NIMl0xW0NIMl1bQ0gyXVtDQEhdKFtDSDJdW0NIXT0yKU4xW0NAQEhdKEMyMyljNGMoT1tDSDJdMylbY0hdW2NIXVtjSF1bY0hdNA==

>  <s_epik_cmdline>  (332) 
J2VwaWtfcHl0aG9uJywgJy1waHQnLCAnMi4wJywgJy1waCcsICc3LjAnLCAnLXRuJywgJzgnLCAnLW1hJywgJzIwMCcsICctaW1hZScsICc8aW5maWxlLm1hZT4nLCAnLW9tYWUnLCAnPG91dGZpbGUubWFlPic=

>  <r_lp_tautomer_probability>  (332) 
1

>  <r_epik_Ionization_Penalty>  (332) 
1.15765

>  <r_epik_Ionization_Penalty_Charging>  (332) 
0

>  <r_epik_Ionization_Penalty_Neutral>  (332) 
1.15765

>  <r_epik_State_Penalty>  (332) 
1.2196

>  <r_epik_Charging_Adjusted_Penalty>  (332) 
1.2196

>  <i_epik_Tot_Q>  (332) 
0

>  <i_epik_Tot_abs_Q>  (332) 
0

>  <s_lp_Force_Field>  (332) 
OPLS3e

>  <r_lp_Energy>  (332) 
24.7915

>  <b_lp_Chiralities_Consistent>  (332) 
1

>  <s_lp_Variant>  (332) 
105:0-2

>  <s_i_glide_gridfile>  (332) 
pfpi4k_grid

>  <i_i_glide_lignum>  (332) 
31

>  <i_i_glide_rotatable_bonds>  (332) 
0

>  <r_i_docking_score>  (332) 
-3.92163

>  <r_i_glide_ligand_efficiency>  (332) 
-0.230684

>  <r_i_glide_ligand_efficiency_sa>  (332) 
-0.593154

>  <r_i_glide_ligand_efficiency_ln>  (332) 
-1.02307

>  <r_i_glide_gscore>  (332) 
-3.92163

>  <r_i_glide_lipo>  (332) 
-0.912208

>  <r_i_glide_hbond>  (332) 
-0.00091357

>  <r_i_glide_metal>  (332) 
-0

>  <r_i_glide_rewards>  (332) 
-1.85931

>  <r_i_glide_evdw>  (332) 
-23.5408

>  <r_i_glide_ecoul>  (332) 
0.185586

>  <r_i_glide_erotb>  (332) 
0

>  <r_i_glide_esite>  (332) 
0

>  <r_i_glide_emodel>  (332) 
-28.6686

>  <r_i_glide_energy>  (332) 
-23.3553

>  <r_i_glide_einternal>  (332) 
0

>  <r_i_glide_intrahb_reward>  (332) 
-0

>  <i_i_glide_confnum>  (332) 
2

>  <i_i_glide_posenum>  (332) 
16

>  <r_i_glide_eff_state_penalty>  (332) 
0

>  <ligand_id>  (332) 
105

>  <original_smiles>  (332) 
C1=C2COc3ccccc3C2N2CCCC2C1

>  <smiles>  (332) 
[H]C1=C2C([H])([H])Oc3c([H])c([H])c([H])c([H])c3C2([H])N2C([H])([H])C([H])([H])C([H])([H])C2([H])C1([H])[H]

$$$$
105:1:1
     RDKit          3D

 34 37  0  0  1  0  0  0  0  0999 V2000
    8.1814   -3.7771    0.8313 C   0  0  0  0  0  0  0  0  0  0  0  0
    7.0117   -3.1179    0.7751 C   0  0  0  0  0  0  0  0  0  0  0  0
    6.9036   -1.6065    0.8410 C   0  0  0  0  0  0  0  0  0  0  0  0
    6.2578   -1.0576   -0.2966 O   0  0  0  0  0  0  0  0  0  0  0  0
    5.1866   -1.7389   -0.8241 C   0  0  0  0  0  0  0  0  0  0  0  0
    4.4458   -1.0645   -1.8142 C   0  0  0  0  0  0  0  0  0  0  0  0
    3.3652   -1.6949   -2.4491 C   0  0  0  0  0  0  0  0  0  0  0  0
    3.0195   -3.0062   -2.0915 C   0  0  0  0  0  0  0  0  0  0  0  0
    3.7519   -3.6820   -1.0978 C   0  0  0  0  0  0  0  0  0  0  0  0
    4.8410   -3.0676   -0.4422 C   0  0  0  0  0  0  0  0  0  0  0  0
    5.6647   -3.8036    0.6326 C   0  0  1  0  0  0  0  0  0  0  0  0
    5.7470   -5.2762    0.4716 N   0  0  0  0  0  0  0  0  0  0  0  0
    4.6267   -5.9533    1.1337 C   0  0  0  0  0  0  0  0  0  0  0  0
    5.0804   -6.2589    2.5682 C   0  0  0  0  0  0  0  0  0  0  0  0
    6.5985   -6.2242    2.5220 C   0  0  0  0  0  0  0  0  0  0  0  0
    6.9163   -5.9577    1.0502 C   0  0  2  0  0  0  0  0  0  0  0  0
    8.2685   -5.2780    0.7667 C   0  0  0  0  0  0  0  0  0  0  0  0
    9.1112   -3.2300    0.8938 H   0  0  0  0  0  0  0  0  0  0  0  0
    6.3492   -1.3183    1.7356 H   0  0  0  0  0  0  0  0  0  0  0  0
    7.8967   -1.1594    0.9154 H   0  0  0  0  0  0  0  0  0  0  0  0
    4.7091   -0.0546   -2.0846 H   0  0  0  0  0  0  0  0  0  0  0  0
    2.7915   -1.1591   -3.1907 H   0  0  0  0  0  0  0  0  0  0  0  0
    2.1881   -3.4955   -2.5788 H   0  0  0  0  0  0  0  0  0  0  0  0
    3.4671   -4.6913   -0.8643 H   0  0  0  0  0  0  0  0  0  0  0  0
    5.1640   -3.6072    1.5791 H   0  0  0  0  0  0  0  0  0  0  0  0
    3.6934   -5.3883    1.1219 H   0  0  0  0  0  0  0  0  0  0  0  0
    4.4464   -6.8939    0.6154 H   0  0  0  0  0  0  0  0  0  0  0  0
    4.7060   -5.5007    3.2595 H   0  0  0  0  0  0  0  0  0  0  0  0
    4.7054   -7.2279    2.9027 H   0  0  0  0  0  0  0  0  0  0  0  0
    6.9799   -5.4409    3.1737 H   0  0  0  0  0  0  0  0  0  0  0  0
    7.0390   -7.1688    2.8480 H   0  0  0  0  0  0  0  0  0  0  0  0
    6.9505   -6.9437    0.5818 H   0  0  0  0  0  0  0  0  0  0  0  0
    8.6195   -5.5446   -0.2294 H   0  0  0  0  0  0  0  0  0  0  0  0
    9.0242   -5.6229    1.4749 H   0  0  0  0  0  0  0  0  0  0  0  0
  1 17  1  0
  1  2  2  0
  1 18  1  0
  2 11  1  0
  2  3  1  0
  3  4  1  0
  3 19  1  0
  3 20  1  0
  4  5  1  0
  5 10  2  0
  5  6  1  0
  6  7  2  0
  6 21  1  0
  7  8  1  0
  7 22  1  0
  8  9  2  0
  8 23  1  0
  9 10  1  0
  9 24  1  0
 10 11  1  0
 11 12  1  0
 11 25  1  1
 12 16  1  0
 12 13  1  0
 13 14  1  0
 13 26  1  0
 13 27  1  0
 14 15  1  0
 14 28  1  0
 14 29  1  0
 15 16  1  0
 15 30  1  0
 15 31  1  0
 16 17  1  0
 16 32  1  6
 17 33  1  0
 17 34  1  0
M  END
>  <i_m_ct_stereo_status>  (333) 
1

>  <s_m_source_file>  (333) 
/var/tmp/pbs.5076255.sched01/tmpy8l6melh/117u1qm2xak.sdf

>  <i_m_source_file_index>  (333) 
31

>  <i_lp_mmshare_version>  (333) 
48012

>  <i_f3d_flags>  (333) 
0

>  <s_epik_input>  (333) 
W0NIMl0xW0NIMl1bQ0gyXVtDQEhdKFtDSDJdW0NIXT0yKU4xW0NAQEhdKEMyMyljNGMoT1tDSDJdMylbY0hdW2NIXVtjSF1bY0hdNA==

>  <s_epik_cmdline>  (333) 
J2VwaWtfcHl0aG9uJywgJy1waHQnLCAnMi4wJywgJy1waCcsICc3LjAnLCAnLXRuJywgJzgnLCAnLW1hJywgJzIwMCcsICctaW1hZScsICc8aW5maWxlLm1hZT4nLCAnLW9tYWUnLCAnPG91dGZpbGUubWFlPic=

>  <r_lp_tautomer_probability>  (333) 
1

>  <r_epik_Ionization_Penalty>  (333) 
1.15765

>  <r_epik_Ionization_Penalty_Charging>  (333) 
0

>  <r_epik_Ionization_Penalty_Neutral>  (333) 
1.15765

>  <r_epik_State_Penalty>  (333) 
1.2196

>  <r_epik_Charging_Adjusted_Penalty>  (333) 
1.2196

>  <i_epik_Tot_Q>  (333) 
0

>  <i_epik_Tot_abs_Q>  (333) 
0

>  <s_lp_Force_Field>  (333) 
OPLS3e

>  <r_lp_Energy>  (333) 
24.7915

>  <b_lp_Chiralities_Consistent>  (333) 
1

>  <s_lp_Variant>  (333) 
105:0-2

>  <s_i_glide_gridfile>  (333) 
pfpi4k_grid

>  <i_i_glide_lignum>  (333) 
31

>  <i_i_glide_rotatable_bonds>  (333) 
0

>  <r_i_docking_score>  (333) 
-3.67778

>  <r_i_glide_ligand_efficiency>  (333) 
-0.21634

>  <r_i_glide_ligand_efficiency_sa>  (333) 
-0.55627

>  <r_i_glide_ligand_efficiency_ln>  (333) 
-0.95945

>  <r_i_glide_gscore>  (333) 
-3.67778

>  <r_i_glide_lipo>  (333) 
-0.567405

>  <r_i_glide_hbond>  (333) 
-0.0658805

>  <r_i_glide_metal>  (333) 
-0

>  <r_i_glide_rewards>  (333) 
-1.85931

>  <r_i_glide_evdw>  (333) 
-20.472

>  <r_i_glide_ecoul>  (333) 
-1.07721

>  <r_i_glide_erotb>  (333) 
0

>  <r_i_glide_esite>  (333) 
0

>  <r_i_glide_emodel>  (333) 
-26.5265

>  <r_i_glide_energy>  (333) 
-21.5492

>  <r_i_glide_einternal>  (333) 
0

>  <r_i_glide_intrahb_reward>  (333) 
-0

>  <i_i_glide_confnum>  (333) 
1

>  <i_i_glide_posenum>  (333) 
15

>  <r_i_glide_eff_state_penalty>  (333) 
0

>  <ligand_id>  (333) 
105

>  <original_smiles>  (333) 
C1=C2COc3ccccc3C2N2CCCC2C1

>  <smiles>  (333) 
[H]C1=C2C([H])([H])Oc3c([H])c([H])c([H])c([H])c3C2([H])N2C([H])([H])C([H])([H])C([H])([H])C2([H])C1([H])[H]

$$$$
105:1:2
     RDKit          3D

 34 37  0  0  1  0  0  0  0  0999 V2000
    6.1485   -4.3285    1.9332 C   0  0  0  0  0  0  0  0  0  0  0  0
    5.9725   -3.4724    0.9166 C   0  0  0  0  0  0  0  0  0  0  0  0
    7.0681   -3.1194   -0.0664 C   0  0  0  0  0  0  0  0  0  0  0  0
    6.7054   -3.4042   -1.4097 O   0  0  0  0  0  0  0  0  0  0  0  0
    5.4044   -3.1575   -1.7965 C   0  0  0  0  0  0  0  0  0  0  0  0
    5.1271   -3.2577   -3.1740 C   0  0  0  0  0  0  0  0  0  0  0  0
    3.8245   -3.0637   -3.6633 C   0  0  0  0  0  0  0  0  0  0  0  0
    2.7852   -2.7863   -2.7658 C   0  0  0  0  0  0  0  0  0  0  0  0
    3.0435   -2.7033   -1.3847 C   0  0  0  0  0  0  0  0  0  0  0  0
    4.3550   -2.8629   -0.8768 C   0  0  0  0  0  0  0  0  0  0  0  0
    4.6550   -2.7723    0.6270 C   0  0  1  0  0  0  0  0  0  0  0  0
    3.5379   -3.1728    1.5167 N   0  0  0  0  0  0  0  0  0  0  0  0
    2.6584   -2.0336    1.8089 C   0  0  0  0  0  0  0  0  0  0  0  0
    3.2052   -1.3634    3.0765 C   0  0  0  0  0  0  0  0  0  0  0  0
    4.0534   -2.4258    3.7537 C   0  0  0  0  0  0  0  0  0  0  0  0
    3.8839   -3.6588    2.8621 C   0  0  2  0  0  0  0  0  0  0  0  0
    5.0453   -4.6720    2.8997 C   0  0  0  0  0  0  0  0  0  0  0  0
    7.0943   -4.8336    2.0678 H   0  0  0  0  0  0  0  0  0  0  0  0
    7.2957   -2.0571    0.0095 H   0  0  0  0  0  0  0  0  0  0  0  0
    7.9788   -3.6714    0.1674 H   0  0  0  0  0  0  0  0  0  0  0  0
    5.9309   -3.5021   -3.8507 H   0  0  0  0  0  0  0  0  0  0  0  0
    3.6176   -3.1534   -4.7169 H   0  0  0  0  0  0  0  0  0  0  0  0
    1.7764   -2.6630   -3.1383 H   0  0  0  0  0  0  0  0  0  0  0  0
    2.2165   -2.5360   -0.7279 H   0  0  0  0  0  0  0  0  0  0  0  0
    4.8623   -1.7217    0.8207 H   0  0  0  0  0  0  0  0  0  0  0  0
    2.5521   -1.3211    0.9871 H   0  0  0  0  0  0  0  0  0  0  0  0
    1.6683   -2.4248    2.0318 H   0  0  0  0  0  0  0  0  0  0  0  0
    3.8174   -0.4960    2.8208 H   0  0  0  0  0  0  0  0  0  0  0  0
    2.3939   -1.0193    3.7199 H   0  0  0  0  0  0  0  0  0  0  0  0
    5.0889   -2.0967    3.8099 H   0  0  0  0  0  0  0  0  0  0  0  0
    3.7178   -2.6333    4.7722 H   0  0  0  0  0  0  0  0  0  0  0  0
    2.9893   -4.1675    3.2338 H   0  0  0  0  0  0  0  0  0  0  0  0
    4.6847   -5.6668    2.6422 H   0  0  0  0  0  0  0  0  0  0  0  0
    5.4708   -4.7324    3.9027 H   0  0  0  0  0  0  0  0  0  0  0  0
  1 17  1  0
  1  2  2  0
  1 18  1  0
  2 11  1  0
  2  3  1  0
  3  4  1  0
  3 19  1  0
  3 20  1  0
  4  5  1  0
  5 10  2  0
  5  6  1  0
  6  7  2  0
  6 21  1  0
  7  8  1  0
  7 22  1  0
  8  9  2  0
  8 23  1  0
  9 10  1  0
  9 24  1  0
 10 11  1  0
 11 12  1  0
 11 25  1  1
 12 16  1  0
 12 13  1  0
 13 14  1  0
 13 26  1  0
 13 27  1  0
 14 15  1  0
 14 28  1  0
 14 29  1  0
 15 16  1  0
 15 30  1  0
 15 31  1  0
 16 17  1  0
 16 32  1  1
 17 33  1  0
 17 34  1  0
M  END
>  <i_m_ct_stereo_status>  (334) 
1

>  <s_m_source_file>  (334) 
/var/tmp/pbs.5076255.sched01/tmpy8l6melh/117u1qm2xak.sdf

>  <i_m_source_file_index>  (334) 
31

>  <i_lp_mmshare_version>  (334) 
48012

>  <i_f3d_flags>  (334) 
0

>  <s_epik_input>  (334) 
W0NIMl0xW0NIMl1bQ0gyXVtDQEhdKFtDSDJdW0NIXT0yKU4xW0NAQEhdKEMyMyljNGMoT1tDSDJdMylbY0hdW2NIXVtjSF1bY0hdNA==

>  <s_epik_cmdline>  (334) 
J2VwaWtfcHl0aG9uJywgJy1waHQnLCAnMi4wJywgJy1waCcsICc3LjAnLCAnLXRuJywgJzgnLCAnLW1hJywgJzIwMCcsICctaW1hZScsICc8aW5maWxlLm1hZT4nLCAnLW9tYWUnLCAnPG91dGZpbGUubWFlPic=

>  <r_lp_tautomer_probability>  (334) 
1

>  <r_epik_Ionization_Penalty>  (334) 
1.15765

>  <r_epik_Ionization_Penalty_Charging>  (334) 
0

>  <r_epik_Ionization_Penalty_Neutral>  (334) 
1.15765

>  <r_epik_State_Penalty>  (334) 
1.2196

>  <r_epik_Charging_Adjusted_Penalty>  (334) 
1.2196

>  <i_epik_Tot_Q>  (334) 
0

>  <i_epik_Tot_abs_Q>  (334) 
0

>  <s_lp_Force_Field>  (334) 
OPLS3e

>  <r_lp_Energy>  (334) 
24.7915

>  <b_lp_Chiralities_Consistent>  (334) 
1

>  <s_lp_Variant>  (334) 
105:0-2

>  <s_i_glide_gridfile>  (334) 
pfpi4k_grid

>  <i_i_glide_lignum>  (334) 
31

>  <i_i_glide_rotatable_bonds>  (334) 
0

>  <r_i_docking_score>  (334) 
-3.57611

>  <r_i_glide_ligand_efficiency>  (334) 
-0.210359

>  <r_i_glide_ligand_efficiency_sa>  (334) 
-0.540893

>  <r_i_glide_ligand_efficiency_ln>  (334) 
-0.932926

>  <r_i_glide_gscore>  (334) 
-3.57611

>  <r_i_glide_lipo>  (334) 
-0.809625

>  <r_i_glide_hbond>  (334) 
0

>  <r_i_glide_metal>  (334) 
-0

>  <r_i_glide_rewards>  (334) 
-1.85931

>  <r_i_glide_evdw>  (334) 
-19.8062

>  <r_i_glide_ecoul>  (334) 
0.554228

>  <r_i_glide_erotb>  (334) 
0

>  <r_i_glide_esite>  (334) 
0

>  <r_i_glide_emodel>  (334) 
-24.088

>  <r_i_glide_energy>  (334) 
-19.2519

>  <r_i_glide_einternal>  (334) 
0

>  <r_i_glide_intrahb_reward>  (334) 
-0

>  <i_i_glide_confnum>  (334) 
1

>  <i_i_glide_posenum>  (334) 
25

>  <r_i_glide_eff_state_penalty>  (334) 
0

>  <ligand_id>  (334) 
105

>  <original_smiles>  (334) 
C1=C2COc3ccccc3C2N2CCCC2C1

>  <smiles>  (334) 
[H]C1=C2C([H])([H])Oc3c([H])c([H])c([H])c([H])c3C2([H])N2C([H])([H])C([H])([H])C([H])([H])C2([H])C1([H])[H]

$$$$
106:0:0
     RDKit          3D

 71 77  0  0  1  0  0  0  0  0999 V2000
    1.3726   -4.6430    5.1102 C   0  0  0  0  0  0  0  0  0  0  0  0
    2.0893   -3.3046    5.4451 C   0  0  2  0  0  0  0  0  0  0  0  0
    1.0702   -2.0739    5.0827 C   0  0  1  0  0  0  0  0  0  0  0  0
   -0.3121   -2.2263    5.7118 C   0  0  0  0  0  0  0  0  0  0  0  0
   -0.9739   -0.8924    5.4252 C   0  0  0  0  0  0  0  0  0  0  0  0
   -2.1882   -0.7201    5.4303 O   0  0  0  0  0  0  0  0  0  0  0  0
   -0.0305    0.0241    5.1898 O   0  0  0  0  0  0  0  0  0  0  0  0
    1.2729   -0.4997    5.3884 C   0  0  2  0  0  0  0  0  0  0  0  0
    2.4818    0.3048    4.6930 C   0  0  2  0  0  0  0  0  0  0  0  0
    1.9770    0.9488    3.3989 C   0  0  0  0  0  0  0  0  0  0  0  0
    1.6315   -0.2530    2.5342 C   0  0  0  0  0  0  0  0  0  0  0  0
    2.7503   -1.2301    2.9406 C   0  0  2  0  0  0  0  0  0  0  0  0
    2.8148   -2.6590    2.3233 C   0  0  1  0  0  0  0  0  0  0  0  0
    2.2530   -2.6595    1.0354 O   0  0  0  0  0  0  0  0  0  0  0  0
    4.2436   -3.2817    2.4308 C   0  0  1  0  0  0  0  0  0  0  0  0
    4.3221   -4.8663    2.3716 C   0  0  1  0  0  0  0  0  0  0  0  0
    3.2275   -5.5340    2.9621 O   0  0  0  0  0  0  0  0  0  0  0  0
    4.4989   -5.5300    0.9975 C   0  0  0  0  0  0  0  0  0  0  0  0
    5.6721   -4.9349    0.2288 C   0  0  0  0  0  0  0  0  0  0  0  0
    5.5182   -3.4217    0.0039 C   0  0  0  0  0  0  0  0  0  0  0  0
    6.8148   -2.9563   -0.7055 C   0  0  0  0  0  0  0  0  0  0  0  0
    4.3667   -3.1806   -1.0032 C   0  0  0  0  0  0  0  0  0  0  0  0
    5.3660   -2.7339    1.4250 C   0  0  1  0  0  0  0  0  0  0  0  0
    5.6907   -1.2060    1.4302 C   0  0  1  0  0  0  0  0  0  0  0  0
    4.9389   -0.4553    0.4933 O   0  0  0  0  0  0  0  0  0  0  0  0
    5.6674   -0.5215    2.8128 C   0  0  0  0  0  0  0  0  0  0  0  0
    4.9106   -1.2206    3.9631 C   0  0  2  0  0  0  0  0  0  0  0  0
    4.6728   -2.8046    3.8625 C   0  0  1  0  0  0  0  0  0  0  0  0
    3.7541   -3.3581    5.1290 C   0  0  2  0  0  0  0  0  0  0  0  0
    4.1930   -4.6654    5.3929 O   0  0  0  0  0  0  0  0  0  0  0  0
    4.2648   -2.5784    6.1097 O   0  0  0  0  0  0  0  0  0  0  0  0
    3.7459   -1.2972    5.9055 C   0  0  0  0  0  0  0  0  0  0  0  0
    3.4655   -0.8352    4.3530 C   0  0  1  0  0  0  0  0  0  0  0  0
    1.0630   -4.7058    4.0680 H   0  0  0  0  0  0  0  0  0  0  0  0
    0.4630   -4.7568    5.7030 H   0  0  0  0  0  0  0  0  0  0  0  0
    1.9553   -5.5341    5.3444 H   0  0  0  0  0  0  0  0  0  0  0  0
    2.0729   -3.3330    6.5372 H   0  0  0  0  0  0  0  0  0  0  0  0
    0.8060   -2.2240    4.0419 H   0  0  0  0  0  0  0  0  0  0  0  0
   -0.8934   -3.0265    5.2562 H   0  0  0  0  0  0  0  0  0  0  0  0
   -0.2589   -2.3708    6.7898 H   0  0  0  0  0  0  0  0  0  0  0  0
    1.3570   -0.3536    6.4643 H   0  0  0  0  0  0  0  0  0  0  0  0
    2.9030    1.0568    5.3627 H   0  0  0  0  0  0  0  0  0  0  0  0
    1.1224    1.6119    3.5516 H   0  0  0  0  0  0  0  0  0  0  0  0
    2.7787    1.5400    2.9400 H   0  0  0  0  0  0  0  0  0  0  0  0
    0.6263   -0.6241    2.7234 H   0  0  0  0  0  0  0  0  0  0  0  0
    1.6610    0.0151    1.4736 H   0  0  0  0  0  0  0  0  0  0  0  0
    3.3819   -0.7409    2.2321 H   0  0  0  0  0  0  0  0  0  0  0  0
    2.1404   -3.2961    2.8693 H   0  0  0  0  0  0  0  0  0  0  0  0
    2.4299   -1.8302    0.6097 H   0  0  0  0  0  0  0  0  0  0  0  0
    5.1961   -5.1734    2.9481 H   0  0  0  0  0  0  0  0  0  0  0  0
    3.3245   -6.4661    2.8266 H   0  0  0  0  0  0  0  0  0  0  0  0
    4.7081   -6.5923    1.1349 H   0  0  0  0  0  0  0  0  0  0  0  0
    3.5864   -5.4936    0.4081 H   0  0  0  0  0  0  0  0  0  0  0  0
    6.5934   -5.1368    0.7801 H   0  0  0  0  0  0  0  0  0  0  0  0
    5.7693   -5.4514   -0.7223 H   0  0  0  0  0  0  0  0  0  0  0  0
    6.7370   -1.9217   -1.0411 H   0  0  0  0  0  0  0  0  0  0  0  0
    7.0108   -3.5501   -1.6008 H   0  0  0  0  0  0  0  0  0  0  0  0
    7.6896   -3.0463   -0.0613 H   0  0  0  0  0  0  0  0  0  0  0  0
    4.0858   -2.1321   -1.0905 H   0  0  0  0  0  0  0  0  0  0  0  0
    3.4644   -3.7355   -0.7578 H   0  0  0  0  0  0  0  0  0  0  0  0
    4.6430   -3.5250   -2.0024 H   0  0  0  0  0  0  0  0  0  0  0  0
    6.2667   -3.1040    1.9159 H   0  0  0  0  0  0  0  0  0  0  0  0
    6.7234   -1.0958    1.0972 H   0  0  0  0  0  0  0  0  0  0  0  0
    5.3505    0.3872    0.3596 H   0  0  0  0  0  0  0  0  0  0  0  0
    6.7043   -0.3928    3.1296 H   0  0  0  0  0  0  0  0  0  0  0  0
    5.2973    0.4989    2.7301 H   0  0  0  0  0  0  0  0  0  0  0  0
    5.6401   -1.0443    4.7553 H   0  0  0  0  0  0  0  0  0  0  0  0
    5.6639   -3.2233    4.0483 H   0  0  0  0  0  0  0  0  0  0  0  0
    3.8983   -5.1978    4.6546 H   0  0  0  0  0  0  0  0  0  0  0  0
    3.0147   -1.2396    6.6997 H   0  0  0  0  0  0  0  0  0  0  0  0
    4.4552   -0.5949    6.3471 H   0  0  0  0  0  0  0  0  0  0  0  0
  1  2  1  0
  1 34  1  0
  1 35  1  0
  1 36  1  0
  2 29  1  0
  2  3  1  0
  2 37  1  1
  3  8  1  0
  3  4  1  0
  3 38  1  6
  4  5  1  0
  4 39  1  0
  4 40  1  0
  5  6  2  0
  5  7  1  0
  7  8  1  0
  8  9  1  0
  8 41  1  1
  9 33  1  0
  9 10  1  0
  9 42  1  1
 10 11  1  0
 10 43  1  0
 10 44  1  0
 11 12  1  0
 11 45  1  0
 11 46  1  0
 12 33  1  0
 12 13  1  0
 12 47  1  6
 13 14  1  0
 13 15  1  0
 13 48  1  1
 14 49  1  0
 15 23  1  0
 15 28  1  0
 15 16  1  1
 16 17  1  0
 16 18  1  0
 16 50  1  1
 17 51  1  0
 18 19  1  0
 18 52  1  0
 18 53  1  0
 19 20  1  0
 19 54  1  0
 19 55  1  0
 20 21  1  0
 20 22  1  0
 20 23  1  0
 21 56  1  0
 21 57  1  0
 21 58  1  0
 22 59  1  0
 22 60  1  0
 22 61  1  0
 23 24  1  0
 23 62  1  1
 24 25  1  0
 24 26  1  0
 24 63  1  6
 25 64  1  0
 26 27  1  0
 26 65  1  0
 26 66  1  0
 27 33  1  0
 27 28  1  0
 27 67  1  1
 28 29  1  0
 28 68  1  1
 29 30  1  1
 29 31  1  0
 30 69  1  0
 31 32  1  0
 33 32  1  1
 32 70  1  0
 32 71  1  0
M  END
>  <i_m_ct_stereo_status>  (335) 
1

>  <s_m_source_file>  (335) 
/var/tmp/pbs.5076255.sched01/tmpy8l6melh/117u1qm2xak.sdf

>  <i_m_source_file_index>  (335) 
32

>  <i_lp_mmshare_version>  (335) 
48012

>  <i_f3d_flags>  (335) 
0

>  <s_epik_input>  (335) 
W0NIMl0xT1tDQEBdKFtDQEBIXTIzKShbT0hdKVtDQEhdKFtDSDNdKVtDQEBIXShbQ0gyXUMoPU8pTzQpW0NASF00W0NASF0oW0NIMl1bQ0gyXVtDQEBIXTVbQ0BIXTZbT0hdKUMxNVtDQEBIXTNbQ0gyXVtDQEhdKFtPSF0pW0NAQEhdKEMyNjcpQyhbQ0gzXSkoW0NIM10pW0NIMl1bQ0gyXVtDQEBIXTdbT0hd

>  <s_epik_cmdline>  (335) 
J2VwaWtfcHl0aG9uJywgJy1waHQnLCAnMi4wJywgJy1waCcsICc3LjAnLCAnLXRuJywgJzgnLCAnLW1hJywgJzIwMCcsICctaW1hZScsICc8aW5maWxlLm1hZT4nLCAnLW9tYWUnLCAnPG91dGZpbGUubWFlPic=

>  <r_lp_tautomer_probability>  (335) 
1

>  <r_epik_Ionization_Penalty>  (335) 
1.77023e-06

>  <r_epik_Ionization_Penalty_Charging>  (335) 
0

>  <r_epik_Ionization_Penalty_Neutral>  (335) 
1.77023e-06

>  <r_epik_State_Penalty>  (335) 
-0

>  <r_epik_Charging_Adjusted_Penalty>  (335) 
0

>  <i_epik_Tot_Q>  (335) 
0

>  <i_epik_Tot_abs_Q>  (335) 
0

>  <s_epik_Chemistry_Notes>  (335) 
This compound has an ester and may undergo hydrolysis at high or low pH.

>  <s_lp_Force_Field>  (335) 
OPLS3e

>  <r_lp_Energy>  (335) 
260.089

>  <b_lp_Chiralities_Consistent>  (335) 
1

>  <s_lp_Variant>  (335) 
106:0-1

>  <s_i_glide_gridfile>  (335) 
pfpi4k_grid

>  <i_i_glide_lignum>  (335) 
32

>  <i_i_glide_rotatable_bonds>  (335) 
4

>  <r_i_docking_score>  (335) 
-3.36391

>  <r_i_glide_ligand_efficiency>  (335) 
-0.101937

>  <r_i_glide_ligand_efficiency_sa>  (335) 
-0.326966

>  <r_i_glide_ligand_efficiency_ln>  (335) 
-0.748117

>  <r_i_glide_gscore>  (335) 
-3.36391

>  <r_i_glide_lipo>  (335) 
-0.631555

>  <r_i_glide_hbond>  (335) 
-0.191848

>  <r_i_glide_metal>  (335) 
-0

>  <r_i_glide_rewards>  (335) 
-0.755166

>  <r_i_glide_evdw>  (335) 
-28.1107

>  <r_i_glide_ecoul>  (335) 
-2.27834

>  <r_i_glide_erotb>  (335) 
0

>  <r_i_glide_esite>  (335) 
-0.0380575

>  <r_i_glide_emodel>  (335) 
-40.8828

>  <r_i_glide_energy>  (335) 
-30.389

>  <r_i_glide_einternal>  (335) 
2.95978

>  <r_i_glide_intrahb_reward>  (335) 
-0.5

>  <i_i_glide_confnum>  (335) 
1

>  <i_i_glide_posenum>  (335) 
16

>  <r_i_glide_eff_state_penalty>  (335) 
0

>  <ligand_id>  (335) 
106

>  <original_smiles>  (335) 
CC1C2CC(=O)OC2C2CCC3C(O)C45C(O)CCC(C)(C)C4C(O)CC4C5C1(O)OCC234

>  <smiles>  (335) 
[H]OC1([H])C([H])([H])C2([H])C3([H])C4(O[H])OC([H])([H])C25C([H])(C([H])([H])C([H])([H])C5([H])C([H])(O[H])C32C([H])(O[H])C([H])([H])C([H])([H])C(C([H])([H])[H])(C([H])([H])[H])C12[H])C1([H])OC(=O)C([H])([H])C1([H])C4([H])C([H])([H])[H]

$$$$
106:0:1
     RDKit          3D

 71 77  0  0  1  0  0  0  0  0999 V2000
    1.2824   -4.6434    5.0227 C   0  0  0  0  0  0  0  0  0  0  0  0
    2.0261   -3.3146    5.3359 C   0  0  2  0  0  0  0  0  0  0  0  0
    1.0398   -2.0695    4.9324 C   0  0  1  0  0  0  0  0  0  0  0  0
   -0.3502   -2.1789    5.5522 C   0  0  0  0  0  0  0  0  0  0  0  0
   -0.9802   -0.8432    5.2306 C   0  0  0  0  0  0  0  0  0  0  0  0
   -2.1908   -0.6527    5.2161 O   0  0  0  0  0  0  0  0  0  0  0  0
   -0.0185    0.0527    4.9784 O   0  0  0  0  0  0  0  0  0  0  0  0
    1.2728   -0.4930    5.2035 C   0  0  2  0  0  0  0  0  0  0  0  0
    2.5094    0.2670    4.5060 C   0  0  2  0  0  0  0  0  0  0  0  0
    2.0372    0.8908    3.1902 C   0  0  0  0  0  0  0  0  0  0  0  0
    1.6755   -0.3232    2.3500 C   0  0  0  0  0  0  0  0  0  0  0  0
    2.7681   -1.3141    2.7913 C   0  0  2  0  0  0  0  0  0  0  0  0
    2.8092   -2.7581    2.2057 C   0  0  1  0  0  0  0  0  0  0  0  0
    2.3224   -2.7665    0.8869 O   0  0  0  0  0  0  0  0  0  0  0  0
    4.2185   -3.4136    2.3558 C   0  0  1  0  0  0  0  0  0  0  0  0
    4.2604   -5.0008    2.3312 C   0  0  1  0  0  0  0  0  0  0  0  0
    3.1399   -5.6288    2.9174 O   0  0  0  0  0  0  0  0  0  0  0  0
    4.4438   -5.6988    0.9750 C   0  0  0  0  0  0  0  0  0  0  0  0
    5.6421   -5.1448    0.2214 C   0  0  0  0  0  0  0  0  0  0  0  0
    5.5222   -3.6400   -0.0515 C   0  0  0  0  0  0  0  0  0  0  0  0
    6.8374   -3.2163   -0.7504 C   0  0  0  0  0  0  0  0  0  0  0  0
    4.3937   -3.4006   -1.0860 C   0  0  0  0  0  0  0  0  0  0  0  0
    5.3654   -2.9180    1.3506 C   0  0  1  0  0  0  0  0  0  0  0  0
    5.7249   -1.4018    1.3229 C   0  0  1  0  0  0  0  0  0  0  0  0
    5.0475   -0.6507    0.3374 O   0  0  0  0  0  0  0  0  0  0  0  0
    5.6957   -0.6750    2.6788 C   0  0  0  0  0  0  0  0  0  0  0  0
    4.9118   -1.3281    3.8413 C   0  0  2  0  0  0  0  0  0  0  0  0
    4.6390   -2.9105    3.7789 C   0  0  1  0  0  0  0  0  0  0  0  0
    3.6923   -3.4133    5.0443 C   0  0  2  0  0  0  0  0  0  0  0  0
    4.0958   -4.7244    5.3436 O   0  0  0  0  0  0  0  0  0  0  0  0
    4.2080   -2.6229    6.0137 O   0  0  0  0  0  0  0  0  0  0  0  0
    3.7213   -1.3349    5.7722 C   0  0  0  0  0  0  0  0  0  0  0  0
    3.4714   -0.9023    4.2054 C   0  0  1  0  0  0  0  0  0  0  0  0
    0.9852   -4.7236    3.9782 H   0  0  0  0  0  0  0  0  0  0  0  0
    0.3627   -4.7223    5.6057 H   0  0  0  0  0  0  0  0  0  0  0  0
    1.8409   -5.5416    5.2858 H   0  0  0  0  0  0  0  0  0  0  0  0
    1.9943   -3.3162    6.4286 H   0  0  0  0  0  0  0  0  0  0  0  0
    0.7820   -2.2389    3.8928 H   0  0  0  0  0  0  0  0  0  0  0  0
   -0.9450   -2.9712    5.1043 H   0  0  0  0  0  0  0  0  0  0  0  0
   -0.3144   -2.2987    6.6330 H   0  0  0  0  0  0  0  0  0  0  0  0
    1.3481   -0.3236    6.2763 H   0  0  0  0  0  0  0  0  0  0  0  0
    2.9407    1.0249    5.1628 H   0  0  0  0  0  0  0  0  0  0  0  0
    1.1958    1.5763    3.3163 H   0  0  0  0  0  0  0  0  0  0  0  0
    2.8580    1.4532    2.7288 H   0  0  0  0  0  0  0  0  0  0  0  0
    0.6593   -0.6654    2.5371 H   0  0  0  0  0  0  0  0  0  0  0  0
    1.7233   -0.0775    1.2856 H   0  0  0  0  0  0  0  0  0  0  0  0
    3.4214   -0.8528    2.0832 H   0  0  0  0  0  0  0  0  0  0  0  0
    2.0988   -3.3632    2.7450 H   0  0  0  0  0  0  0  0  0  0  0  0
    2.1158   -1.8860    0.5976 H   0  0  0  0  0  0  0  0  0  0  0  0
    5.1186   -5.3145    2.9283 H   0  0  0  0  0  0  0  0  0  0  0  0
    3.2058   -6.5639    2.7824 H   0  0  0  0  0  0  0  0  0  0  0  0
    4.6241   -6.7632    1.1401 H   0  0  0  0  0  0  0  0  0  0  0  0
    3.5404   -5.6548    0.3716 H   0  0  0  0  0  0  0  0  0  0  0  0
    6.5471   -5.3510    0.7928 H   0  0  0  0  0  0  0  0  0  0  0  0
    5.7464   -5.6874   -0.7202 H   0  0  0  0  0  0  0  0  0  0  0  0
    6.7897   -2.1901   -1.1175 H   0  0  0  0  0  0  0  0  0  0  0  0
    7.0279   -3.8381   -1.6255 H   0  0  0  0  0  0  0  0  0  0  0  0
    7.7021   -3.3094   -0.0927 H   0  0  0  0  0  0  0  0  0  0  0  0
    4.1344   -2.3492   -1.2033 H   0  0  0  0  0  0  0  0  0  0  0  0
    3.4776   -3.9331   -0.8456 H   0  0  0  0  0  0  0  0  0  0  0  0
    4.6773   -3.7746   -2.0708 H   0  0  0  0  0  0  0  0  0  0  0  0
    6.2506   -3.2944    1.8636 H   0  0  0  0  0  0  0  0  0  0  0  0
    6.7651   -1.3247    1.0068 H   0  0  0  0  0  0  0  0  0  0  0  0
    4.1188   -0.6810    0.5098 H   0  0  0  0  0  0  0  0  0  0  0  0
    6.7338   -0.5728    2.9945 H   0  0  0  0  0  0  0  0  0  0  0  0
    5.3561    0.3514    2.5550 H   0  0  0  0  0  0  0  0  0  0  0  0
    5.6349   -1.1467    4.6376 H   0  0  0  0  0  0  0  0  0  0  0  0
    5.6184   -3.3463    3.9882 H   0  0  0  0  0  0  0  0  0  0  0  0
    3.7893   -5.2696    4.6195 H   0  0  0  0  0  0  0  0  0  0  0  0
    2.9811   -1.2417    6.5553 H   0  0  0  0  0  0  0  0  0  0  0  0
    4.4410   -0.6389    6.2063 H   0  0  0  0  0  0  0  0  0  0  0  0
  1  2  1  0
  1 34  1  0
  1 35  1  0
  1 36  1  0
  2 29  1  0
  2  3  1  0
  2 37  1  1
  3  8  1  0
  3  4  1  0
  3 38  1  6
  4  5  1  0
  4 39  1  0
  4 40  1  0
  5  6  2  0
  5  7  1  0
  7  8  1  0
  8  9  1  0
  8 41  1  1
  9 33  1  0
  9 10  1  0
  9 42  1  1
 10 11  1  0
 10 43  1  0
 10 44  1  0
 11 12  1  0
 11 45  1  0
 11 46  1  0
 12 33  1  0
 12 13  1  0
 12 47  1  6
 13 14  1  0
 13 15  1  0
 13 48  1  1
 14 49  1  0
 15 23  1  0
 15 28  1  0
 15 16  1  1
 16 17  1  0
 16 18  1  0
 16 50  1  1
 17 51  1  0
 18 19  1  0
 18 52  1  0
 18 53  1  0
 19 20  1  0
 19 54  1  0
 19 55  1  0
 20 21  1  0
 20 22  1  0
 20 23  1  0
 21 56  1  0
 21 57  1  0
 21 58  1  0
 22 59  1  0
 22 60  1  0
 22 61  1  0
 23 24  1  0
 23 62  1  1
 24 25  1  0
 24 26  1  0
 24 63  1  6
 25 64  1  0
 26 27  1  0
 26 65  1  0
 26 66  1  0
 27 33  1  0
 27 28  1  0
 27 67  1  1
 28 29  1  0
 28 68  1  1
 29 30  1  1
 29 31  1  0
 30 69  1  0
 31 32  1  0
 33 32  1  1
 32 70  1  0
 32 71  1  0
M  END
>  <i_m_ct_stereo_status>  (336) 
1

>  <s_m_source_file>  (336) 
/var/tmp/pbs.5076255.sched01/tmpy8l6melh/117u1qm2xak.sdf

>  <i_m_source_file_index>  (336) 
32

>  <i_lp_mmshare_version>  (336) 
48012

>  <i_f3d_flags>  (336) 
0

>  <s_epik_input>  (336) 
W0NIMl0xT1tDQEBdKFtDQEBIXTIzKShbT0hdKVtDQEhdKFtDSDNdKVtDQEBIXShbQ0gyXUMoPU8pTzQpW0NASF00W0NASF0oW0NIMl1bQ0gyXVtDQEBIXTVbQ0BIXTZbT0hdKUMxNVtDQEBIXTNbQ0gyXVtDQEhdKFtPSF0pW0NAQEhdKEMyNjcpQyhbQ0gzXSkoW0NIM10pW0NIMl1bQ0gyXVtDQEBIXTdbT0hd

>  <s_epik_cmdline>  (336) 
J2VwaWtfcHl0aG9uJywgJy1waHQnLCAnMi4wJywgJy1waCcsICc3LjAnLCAnLXRuJywgJzgnLCAnLW1hJywgJzIwMCcsICctaW1hZScsICc8aW5maWxlLm1hZT4nLCAnLW9tYWUnLCAnPG91dGZpbGUubWFlPic=

>  <r_lp_tautomer_probability>  (336) 
1

>  <r_epik_Ionization_Penalty>  (336) 
1.77023e-06

>  <r_epik_Ionization_Penalty_Charging>  (336) 
0

>  <r_epik_Ionization_Penalty_Neutral>  (336) 
1.77023e-06

>  <r_epik_State_Penalty>  (336) 
-0

>  <r_epik_Charging_Adjusted_Penalty>  (336) 
0

>  <i_epik_Tot_Q>  (336) 
0

>  <i_epik_Tot_abs_Q>  (336) 
0

>  <s_epik_Chemistry_Notes>  (336) 
This compound has an ester and may undergo hydrolysis at high or low pH.

>  <s_lp_Force_Field>  (336) 
OPLS3e

>  <r_lp_Energy>  (336) 
260.089

>  <b_lp_Chiralities_Consistent>  (336) 
1

>  <s_lp_Variant>  (336) 
106:0-1

>  <s_i_glide_gridfile>  (336) 
pfpi4k_grid

>  <i_i_glide_lignum>  (336) 
32

>  <i_i_glide_rotatable_bonds>  (336) 
4

>  <r_i_docking_score>  (336) 
-3.26179

>  <r_i_glide_ligand_efficiency>  (336) 
-0.0988421

>  <r_i_glide_ligand_efficiency_sa>  (336) 
-0.31704

>  <r_i_glide_ligand_efficiency_ln>  (336) 
-0.725405

>  <r_i_glide_gscore>  (336) 
-3.26179

>  <r_i_glide_lipo>  (336) 
-0.728483

>  <r_i_glide_hbond>  (336) 
0

>  <r_i_glide_metal>  (336) 
-0

>  <r_i_glide_rewards>  (336) 
-0.755166

>  <r_i_glide_evdw>  (336) 
-28.3063

>  <r_i_glide_ecoul>  (336) 
-2.18383

>  <r_i_glide_erotb>  (336) 
0

>  <r_i_glide_esite>  (336) 
-0.035253

>  <r_i_glide_emodel>  (336) 
-40.8657

>  <r_i_glide_energy>  (336) 
-30.4901

>  <r_i_glide_einternal>  (336) 
3.16283

>  <r_i_glide_intrahb_reward>  (336) 
-0.5

>  <i_i_glide_confnum>  (336) 
1

>  <i_i_glide_posenum>  (336) 
34

>  <r_i_glide_eff_state_penalty>  (336) 
0

>  <ligand_id>  (336) 
106

>  <original_smiles>  (336) 
CC1C2CC(=O)OC2C2CCC3C(O)C45C(O)CCC(C)(C)C4C(O)CC4C5C1(O)OCC234

>  <smiles>  (336) 
[H]OC1([H])C([H])([H])C2([H])C3([H])C4(O[H])OC([H])([H])C25C([H])(C([H])([H])C([H])([H])C5([H])C([H])(O[H])C32C([H])(O[H])C([H])([H])C([H])([H])C(C([H])([H])[H])(C([H])([H])[H])C12[H])C1([H])OC(=O)C([H])([H])C1([H])C4([H])C([H])([H])[H]

$$$$
106:0:2
     RDKit          3D

 71 77  0  0  1  0  0  0  0  0999 V2000
    1.6455   -4.3756    5.1705 C   0  0  0  0  0  0  0  0  0  0  0  0
    2.5076   -3.0920    5.3285 C   0  0  2  0  0  0  0  0  0  0  0  0
    1.5414   -1.7919    5.0726 C   0  0  1  0  0  0  0  0  0  0  0  0
    0.2813   -1.8096    5.9188 C   0  0  0  0  0  0  0  0  0  0  0  0
   -0.3262   -0.4423    5.6915 C   0  0  0  0  0  0  0  0  0  0  0  0
   -1.5034   -0.1906    5.8894 O   0  0  0  0  0  0  0  0  0  0  0  0
    0.6448    0.3979    5.2542 O   0  0  0  0  0  0  0  0  0  0  0  0
    1.9149   -0.2301    5.2655 C   0  0  2  0  0  0  0  0  0  0  0  0
    3.0534    0.4468    4.3511 C   0  0  2  0  0  0  0  0  0  0  0  0
    2.3943    1.0769    3.1257 C   0  0  0  0  0  0  0  0  0  0  0  0
    1.8269   -0.1249    2.3874 C   0  0  0  0  0  0  0  0  0  0  0  0
    2.9253   -1.1649    2.6574 C   0  0  2  0  0  0  0  0  0  0  0  0
    2.8106   -2.6209    2.1185 C   0  0  1  0  0  0  0  0  0  0  0  0
    2.2246   -2.6451    0.8581 O   0  0  0  0  0  0  0  0  0  0  0  0
    4.1678   -3.3649    2.0350 C   0  0  1  0  0  0  0  0  0  0  0  0
    4.0758   -4.9453    2.0156 C   0  0  1  0  0  0  0  0  0  0  0  0
    2.9770   -5.4669    2.7187 O   0  0  0  0  0  0  0  0  0  0  0  0
    3.9816   -5.6622    0.6613 C   0  0  0  0  0  0  0  0  0  0  0  0
    5.0525   -5.1963   -0.3090 C   0  0  0  0  0  0  0  0  0  0  0  0
    4.9826   -3.6855   -0.5760 C   0  0  0  0  0  0  0  0  0  0  0  0
    6.1687   -3.3432   -1.5064 C   0  0  0  0  0  0  0  0  0  0  0  0
    3.7246   -3.3855   -1.4201 C   0  0  0  0  0  0  0  0  0  0  0  0
    5.1266   -2.9498    0.8213 C   0  0  1  0  0  0  0  0  0  0  0  0
    5.5565   -1.4610    0.6967 C   0  0  1  0  0  0  0  0  0  0  0  0
    4.7737   -0.6696   -0.1708 O   0  0  0  0  0  0  0  0  0  0  0  0
    5.8104   -0.7310    2.0163 C   0  0  0  0  0  0  0  0  0  0  0  0
    5.1767   -1.3033    3.3013 C   0  0  2  0  0  0  0  0  0  0  0  0
    4.8408   -2.8776    3.3440 C   0  0  1  0  0  0  0  0  0  0  0  0
    4.0846   -3.3083    4.7509 C   0  0  2  0  0  0  0  0  0  0  0  0
    4.4428   -4.6340    5.0087 O   0  0  0  0  0  0  0  0  0  0  0  0
    4.8107   -2.5383    5.5883 O   0  0  0  0  0  0  0  0  0  0  0  0
    4.3622   -1.2245    5.4210 C   0  0  0  0  0  0  0  0  0  0  0  0
    3.8660   -0.7811    3.9159 C   0  0  1  0  0  0  0  0  0  0  0  0
    1.1609   -4.4449    4.1990 H   0  0  0  0  0  0  0  0  0  0  0  0
    0.8420   -4.3908    5.9063 H   0  0  0  0  0  0  0  0  0  0  0  0
    2.1752   -5.3092    5.3510 H   0  0  0  0  0  0  0  0  0  0  0  0
    2.6646   -3.0767    6.4141 H   0  0  0  0  0  0  0  0  0  0  0  0
    1.0910   -1.9519    4.0996 H   0  0  0  0  0  0  0  0  0  0  0  0
   -0.4363   -2.5622    5.6022 H   0  0  0  0  0  0  0  0  0  0  0  0
    0.4830   -1.9135    6.9785 H   0  0  0  0  0  0  0  0  0  0  0  0
    2.1766   -0.0584    6.3068 H   0  0  0  0  0  0  0  0  0  0  0  0
    3.6394    1.1794    4.9089 H   0  0  0  0  0  0  0  0  0  0  0  0
    1.6324    1.8180    3.3807 H   0  0  0  0  0  0  0  0  0  0  0  0
    3.1525    1.5821    2.5196 H   0  0  0  0  0  0  0  0  0  0  0  0
    0.8415   -0.3978    2.7530 H   0  0  0  0  0  0  0  0  0  0  0  0
    1.7047    0.1056    1.3275 H   0  0  0  0  0  0  0  0  0  0  0  0
    3.4648   -0.7371    1.8389 H   0  0  0  0  0  0  0  0  0  0  0  0
    2.1224   -3.1635    2.7532 H   0  0  0  0  0  0  0  0  0  0  0  0
    1.9984   -1.7606    0.5641 H   0  0  0  0  0  0  0  0  0  0  0  0
    4.9829   -5.3290    2.4868 H   0  0  0  0  0  0  0  0  0  0  0  0
    3.1328   -5.2866    3.6408 H   0  0  0  0  0  0  0  0  0  0  0  0
    4.1198   -6.7337    0.8222 H   0  0  0  0  0  0  0  0  0  0  0  0
    2.9917   -5.5700    0.2215 H   0  0  0  0  0  0  0  0  0  0  0  0
    6.0263   -5.4556    0.1018 H   0  0  0  0  0  0  0  0  0  0  0  0
    4.9634   -5.7506   -1.2434 H   0  0  0  0  0  0  0  0  0  0  0  0
    6.1260   -2.3162   -1.8741 H   0  0  0  0  0  0  0  0  0  0  0  0
    6.1450   -3.9687   -2.3985 H   0  0  0  0  0  0  0  0  0  0  0  0
    7.1309   -3.4981   -1.0218 H   0  0  0  0  0  0  0  0  0  0  0  0
    3.5026   -2.3235   -1.5034 H   0  0  0  0  0  0  0  0  0  0  0  0
    2.8394   -3.8748   -1.0381 H   0  0  0  0  0  0  0  0  0  0  0  0
    3.8075   -3.7879   -2.4288 H   0  0  0  0  0  0  0  0  0  0  0  0
    6.0656   -3.3729    1.1669 H   0  0  0  0  0  0  0  0  0  0  0  0
    6.5258   -1.4485    0.2028 H   0  0  0  0  0  0  0  0  0  0  0  0
    3.8717   -0.6788    0.1303 H   0  0  0  0  0  0  0  0  0  0  0  0
    6.8924   -0.6967    2.1684 H   0  0  0  0  0  0  0  0  0  0  0  0
    5.5174    0.3073    1.9053 H   0  0  0  0  0  0  0  0  0  0  0  0
    6.0044   -1.0778    3.9522 H   0  0  0  0  0  0  0  0  0  0  0  0
    5.8125   -3.3602    3.3880 H   0  0  0  0  0  0  0  0  0  0  0  0
    4.2124   -4.8247    5.9204 H   0  0  0  0  0  0  0  0  0  0  0  0
    3.7820   -1.0739    6.3234 H   0  0  0  0  0  0  0  0  0  0  0  0
    5.1931   -0.5781    5.7092 H   0  0  0  0  0  0  0  0  0  0  0  0
  1  2  1  0
  1 34  1  0
  1 35  1  0
  1 36  1  0
  2 29  1  0
  2  3  1  0
  2 37  1  1
  3  8  1  0
  3  4  1  0
  3 38  1  6
  4  5  1  0
  4 39  1  0
  4 40  1  0
  5  6  2  0
  5  7  1  0
  7  8  1  0
  8  9  1  0
  8 41  1  1
  9 33  1  0
  9 10  1  0
  9 42  1  1
 10 11  1  0
 10 43  1  0
 10 44  1  0
 11 12  1  0
 11 45  1  0
 11 46  1  0
 12 33  1  0
 12 13  1  0
 12 47  1  6
 13 14  1  0
 13 15  1  0
 13 48  1  1
 14 49  1  0
 15 23  1  0
 15 28  1  0
 15 16  1  1
 16 17  1  0
 16 18  1  0
 16 50  1  1
 17 51  1  0
 18 19  1  0
 18 52  1  0
 18 53  1  0
 19 20  1  0
 19 54  1  0
 19 55  1  0
 20 21  1  0
 20 22  1  0
 20 23  1  0
 21 56  1  0
 21 57  1  0
 21 58  1  0
 22 59  1  0
 22 60  1  0
 22 61  1  0
 23 24  1  0
 23 62  1  1
 24 25  1  0
 24 26  1  0
 24 63  1  6
 25 64  1  0
 26 27  1  0
 26 65  1  0
 26 66  1  0
 27 33  1  0
 27 28  1  0
 27 67  1  1
 28 29  1  0
 28 68  1  1
 29 30  1  1
 29 31  1  0
 30 69  1  0
 31 32  1  0
 33 32  1  1
 32 70  1  0
 32 71  1  0
M  END
>  <i_m_ct_stereo_status>  (337) 
1

>  <s_m_source_file>  (337) 
/var/tmp/pbs.5076255.sched01/tmpy8l6melh/117u1qm2xak.sdf

>  <i_m_source_file_index>  (337) 
32

>  <i_lp_mmshare_version>  (337) 
48012

>  <i_f3d_flags>  (337) 
0

>  <s_epik_input>  (337) 
W0NIMl0xT1tDQEBdKFtDQEBIXTIzKShbT0hdKVtDQEhdKFtDSDNdKVtDQEBIXShbQ0gyXUMoPU8pTzQpW0NASF00W0NASF0oW0NIMl1bQ0gyXVtDQEBIXTVbQ0BIXTZbT0hdKUMxNVtDQEBIXTNbQ0gyXVtDQEhdKFtPSF0pW0NAQEhdKEMyNjcpQyhbQ0gzXSkoW0NIM10pW0NIMl1bQ0gyXVtDQEBIXTdbT0hd

>  <s_epik_cmdline>  (337) 
J2VwaWtfcHl0aG9uJywgJy1waHQnLCAnMi4wJywgJy1waCcsICc3LjAnLCAnLXRuJywgJzgnLCAnLW1hJywgJzIwMCcsICctaW1hZScsICc8aW5maWxlLm1hZT4nLCAnLW9tYWUnLCAnPG91dGZpbGUubWFlPic=

>  <r_lp_tautomer_probability>  (337) 
1

>  <r_epik_Ionization_Penalty>  (337) 
1.77023e-06

>  <r_epik_Ionization_Penalty_Charging>  (337) 
0

>  <r_epik_Ionization_Penalty_Neutral>  (337) 
1.77023e-06

>  <r_epik_State_Penalty>  (337) 
-0

>  <r_epik_Charging_Adjusted_Penalty>  (337) 
0

>  <i_epik_Tot_Q>  (337) 
0

>  <i_epik_Tot_abs_Q>  (337) 
0

>  <s_epik_Chemistry_Notes>  (337) 
This compound has an ester and may undergo hydrolysis at high or low pH.

>  <s_lp_Force_Field>  (337) 
OPLS3e

>  <r_lp_Energy>  (337) 
260.089

>  <b_lp_Chiralities_Consistent>  (337) 
1

>  <s_lp_Variant>  (337) 
106:0-1

>  <s_i_glide_gridfile>  (337) 
pfpi4k_grid

>  <i_i_glide_lignum>  (337) 
32

>  <i_i_glide_rotatable_bonds>  (337) 
4

>  <r_i_docking_score>  (337) 
-3.24189

>  <r_i_glide_ligand_efficiency>  (337) 
-0.0982391

>  <r_i_glide_ligand_efficiency_sa>  (337) 
-0.315105

>  <r_i_glide_ligand_efficiency_ln>  (337) 
-0.72098

>  <r_i_glide_gscore>  (337) 
-3.24189

>  <r_i_glide_lipo>  (337) 
-0.636204

>  <r_i_glide_hbond>  (337) 
-0.0646664

>  <r_i_glide_metal>  (337) 
-0

>  <r_i_glide_rewards>  (337) 
-0.755166

>  <r_i_glide_evdw>  (337) 
-26.1299

>  <r_i_glide_ecoul>  (337) 
-3.00499

>  <r_i_glide_erotb>  (337) 
0

>  <r_i_glide_esite>  (337) 
-0.0286124

>  <r_i_glide_emodel>  (337) 
-39.8768

>  <r_i_glide_energy>  (337) 
-29.1349

>  <r_i_glide_einternal>  (337) 
1.35102

>  <r_i_glide_intrahb_reward>  (337) 
-0.5

>  <i_i_glide_confnum>  (337) 
1

>  <i_i_glide_posenum>  (337) 
2

>  <r_i_glide_eff_state_penalty>  (337) 
0

>  <ligand_id>  (337) 
106

>  <original_smiles>  (337) 
CC1C2CC(=O)OC2C2CCC3C(O)C45C(O)CCC(C)(C)C4C(O)CC4C5C1(O)OCC234

>  <smiles>  (337) 
[H]OC1([H])C([H])([H])C2([H])C3([H])C4(O[H])OC([H])([H])C25C([H])(C([H])([H])C([H])([H])C5([H])C([H])(O[H])C32C([H])(O[H])C([H])([H])C([H])([H])C(C([H])([H])[H])(C([H])([H])[H])C12[H])C1([H])OC(=O)C([H])([H])C1([H])C4([H])C([H])([H])[H]

$$$$
107:0:0
     RDKit          3D

 81 85  0  0  1  0  0  0  0  0999 V2000
    1.0420   -6.7489    5.6778 C   0  0  0  0  0  0  0  0  0  0  0  0
    0.8945   -7.7788    4.8149 C   0  0  0  0  0  0  0  0  0  0  0  0
    0.6739   -7.7119    3.2938 C   0  0  1  0  0  0  0  0  0  0  0  0
   -0.6876   -8.3887    2.9772 C   0  0  0  0  0  0  0  0  0  0  0  0
    0.5665   -6.2664    2.7806 C   0  0  0  0  0  0  0  0  0  0  0  0
    1.8987   -5.5174    2.6770 C   0  0  0  0  0  0  0  0  0  0  0  0
    2.9286   -6.2517    1.7700 C   0  0  2  0  0  0  0  0  0  0  0  0
    3.2041   -7.7035    2.4073 C   0  0  1  0  0  0  0  0  0  0  0  0
    4.1960   -8.6006    1.6154 C   0  0  0  0  0  0  0  0  0  0  0  0
    5.5683   -8.2980    2.1722 C   0  0  0  0  0  0  0  0  0  0  0  0
    6.7336   -8.5618    1.5631 C   0  0  0  0  0  0  0  0  0  0  0  0
    5.4163   -7.7035    3.5462 C   0  0  1  0  0  0  0  0  0  0  0  0
    6.1118   -6.3459    3.7464 C   0  0  0  0  0  0  0  0  0  0  0  0
    5.3418   -5.0539    3.3718 C   0  0  0  0  0  0  0  0  0  0  0  0
    5.1802   -4.5572    1.8925 C   0  0  2  0  0  0  0  0  0  0  0  0
    6.5905   -4.7553    1.2487 C   0  0  0  0  0  0  0  0  0  0  0  0
    4.9502   -2.9683    1.9702 C   0  0  2  0  0  0  0  0  0  0  0  0
    3.8587   -2.5363    3.0083 C   0  0  0  0  0  0  0  0  0  0  0  0
    3.5763   -1.0303    3.1095 C   0  0  0  0  0  0  0  0  0  0  0  0
    2.4363   -0.7816    4.1190 C   0  0  0  0  0  0  0  0  0  0  0  0
    4.8296   -0.2600    3.6033 C   0  0  0  0  0  0  0  0  0  0  0  0
    3.1141   -0.5746    1.7181 C   0  0  0  0  0  0  0  0  0  0  0  0
    4.2081   -0.7705    0.6671 C   0  0  0  0  0  0  0  0  0  0  0  0
    4.8360   -2.2064    0.5673 C   0  0  1  0  0  0  0  0  0  0  0  0
    6.2471   -1.8909   -0.0235 C   0  0  0  0  0  0  0  0  0  0  0  0
    6.3996   -1.8572   -1.2666 O   0  0  0  0  0  0  0  0  0  0  0  0
    7.1572   -1.5676    0.7686 O   0  0  0  0  0  0  0  0  0  0  0  0
    4.0155   -3.0787   -0.4328 C   0  0  0  0  0  0  0  0  0  0  0  0
    3.2113   -4.2099    0.2248 C   0  0  0  0  0  0  0  0  0  0  0  0
    4.0200   -5.2969    1.0326 C   0  0  2  0  0  0  0  0  0  0  0  0
    4.6180   -6.1136   -0.1486 C   0  0  0  0  0  0  0  0  0  0  0  0
    3.9068   -7.6886    3.7954 C   0  0  0  0  0  0  0  0  0  0  0  0
    1.8056   -8.4394    2.4920 C   0  0  1  0  0  0  0  0  0  0  0  0
    1.9059   -9.7702    2.9716 O   0  0  0  0  0  0  0  0  0  0  0  0
    1.0160   -5.7200    5.3586 H   0  0  0  0  0  0  0  0  0  0  0  0
    1.2055   -6.9207    6.7308 H   0  0  0  0  0  0  0  0  0  0  0  0
    0.9269   -8.7770    5.2257 H   0  0  0  0  0  0  0  0  0  0  0  0
   -0.9148   -8.3371    1.9098 H   0  0  0  0  0  0  0  0  0  0  0  0
   -1.5091   -7.9041    3.5073 H   0  0  0  0  0  0  0  0  0  0  0  0
   -0.7053   -9.4424    3.2597 H   0  0  0  0  0  0  0  0  0  0  0  0
    0.1069   -6.2708    1.7885 H   0  0  0  0  0  0  0  0  0  0  0  0
   -0.1162   -5.7065    3.4200 H   0  0  0  0  0  0  0  0  0  0  0  0
    1.5891   -4.5470    2.3193 H   0  0  0  0  0  0  0  0  0  0  0  0
    2.3191   -5.3224    3.6558 H   0  0  0  0  0  0  0  0  0  0  0  0
    2.3180   -6.5213    0.9064 H   0  0  0  0  0  0  0  0  0  0  0  0
    4.0542   -9.6558    1.8441 H   0  0  0  0  0  0  0  0  0  0  0  0
    4.1200   -8.5491    0.5355 H   0  0  0  0  0  0  0  0  0  0  0  0
    6.7570   -9.0227    0.5854 H   0  0  0  0  0  0  0  0  0  0  0  0
    7.6745   -8.3142    2.0347 H   0  0  0  0  0  0  0  0  0  0  0  0
    5.8816   -8.4121    4.2318 H   0  0  0  0  0  0  0  0  0  0  0  0
    6.2704   -6.2643    4.8201 H   0  0  0  0  0  0  0  0  0  0  0  0
    7.1266   -6.3563    3.3480 H   0  0  0  0  0  0  0  0  0  0  0  0
    4.3901   -5.0401    3.8792 H   0  0  0  0  0  0  0  0  0  0  0  0
    5.9085   -4.2803    3.8861 H   0  0  0  0  0  0  0  0  0  0  0  0
    6.6268   -4.4560    0.2021 H   0  0  0  0  0  0  0  0  0  0  0  0
    6.9308   -5.7890    1.2645 H   0  0  0  0  0  0  0  0  0  0  0  0
    7.3539   -4.1706    1.7629 H   0  0  0  0  0  0  0  0  0  0  0  0
    5.8507   -2.5942    2.4503 H   0  0  0  0  0  0  0  0  0  0  0  0
    2.9192   -3.0121    2.7753 H   0  0  0  0  0  0  0  0  0  0  0  0
    4.1087   -2.8798    4.0094 H   0  0  0  0  0  0  0  0  0  0  0  0
    2.2025    0.2830    4.1863 H   0  0  0  0  0  0  0  0  0  0  0  0
    2.7061   -1.1273    5.1180 H   0  0  0  0  0  0  0  0  0  0  0  0
    1.5229   -1.3002    3.8205 H   0  0  0  0  0  0  0  0  0  0  0  0
    4.6364    0.8157    3.6461 H   0  0  0  0  0  0  0  0  0  0  0  0
    5.6925   -0.4107    2.9513 H   0  0  0  0  0  0  0  0  0  0  0  0
    5.1268   -0.5911    4.6013 H   0  0  0  0  0  0  0  0  0  0  0  0
    2.2274   -1.1345    1.4173 H   0  0  0  0  0  0  0  0  0  0  0  0
    2.8077    0.4716    1.7480 H   0  0  0  0  0  0  0  0  0  0  0  0
    3.8123   -0.4667   -0.3015 H   0  0  0  0  0  0  0  0  0  0  0  0
    4.9723   -0.0182    0.8756 H   0  0  0  0  0  0  0  0  0  0  0  0
    3.2937   -2.4598   -0.9680 H   0  0  0  0  0  0  0  0  0  0  0  0
    4.6300   -3.4903   -1.2271 H   0  0  0  0  0  0  0  0  0  0  0  0
    2.4728   -3.6743    0.7979 H   0  0  0  0  0  0  0  0  0  0  0  0
    2.6270   -4.6992   -0.5549 H   0  0  0  0  0  0  0  0  0  0  0  0
    5.0667   -5.5007   -0.9209 H   0  0  0  0  0  0  0  0  0  0  0  0
    3.8416   -6.6752   -0.6688 H   0  0  0  0  0  0  0  0  0  0  0  0
    5.3890   -6.8084    0.1297 H   0  0  0  0  0  0  0  0  0  0  0  0
    3.5811   -6.9134    4.4816 H   0  0  0  0  0  0  0  0  0  0  0  0
    3.6828   -8.6179    4.3248 H   0  0  0  0  0  0  0  0  0  0  0  0
    1.4553   -8.5432    1.4622 H   0  0  0  0  0  0  0  0  0  0  0  0
    1.0989  -10.2218    2.7679 H   0  0  0  0  0  0  0  0  0  0  0  0
  1  2  2  0
  1 35  1  0
  1 36  1  0
  2  3  1  0
  2 37  1  0
  3 33  1  0
  3  4  1  1
  3  5  1  0
  4 38  1  0
  4 39  1  0
  4 40  1  0
  5  6  1  0
  5 41  1  0
  5 42  1  0
  6  7  1  0
  6 43  1  0
  6 44  1  0
  7 30  1  0
  7  8  1  0
  7 45  1  6
  8 32  1  0
  8  9  1  6
  8 33  1  0
  9 10  1  0
  9 46  1  0
  9 47  1  0
 10 11  2  0
 10 12  1  0
 11 48  1  0
 11 49  1  0
 12 13  1  0
 12 32  1  0
 12 50  1  1
 13 14  1  0
 13 51  1  0
 13 52  1  0
 14 15  1  0
 14 53  1  0
 14 54  1  0
 15 30  1  0
 15 16  1  6
 15 17  1  0
 16 55  1  0
 16 56  1  0
 16 57  1  0
 17 24  1  0
 17 18  1  0
 17 58  1  1
 18 19  1  0
 18 59  1  0
 18 60  1  0
 19 20  1  0
 19 21  1  0
 19 22  1  0
 20 61  1  0
 20 62  1  0
 20 63  1  0
 21 64  1  0
 21 65  1  0
 21 66  1  0
 22 23  1  0
 22 67  1  0
 22 68  1  0
 23 24  1  0
 23 69  1  0
 23 70  1  0
 24 25  1  6
 24 28  1  0
 25 26  2  0
 25 27  1  0
 28 29  1  0
 28 71  1  0
 28 72  1  0
 29 30  1  0
 29 73  1  0
 29 74  1  0
 30 31  1  6
 31 75  1  0
 31 76  1  0
 31 77  1  0
 32 78  1  0
 32 79  1  0
 33 34  1  0
 33 80  1  6
 34 81  1  0
M  CHG  1  27  -1
M  END
>  <i_m_ct_stereo_status>  (338) 
1

>  <s_m_source_file>  (338) 
/var/tmp/pbs.5076255.sched01/tmpy8l6melh/117u1qm2xak.sdf

>  <i_m_source_file_index>  (338) 
33

>  <i_lp_mmshare_version>  (338) 
48012

>  <i_f3d_flags>  (338) 
0

>  <s_epik_input>  (338) 
W0NIMl09W0NIXVtDQF0oW0NIM10pKFtDQEBIXTFbT0hdKVtDSDJdW0NIMl1bQ0BIXShbQ0BAXTEyMylbQ0BdNChbQ0gzXSlbQ0BdKFtDSDNdKShbQ0gyXVtDSDJdW0NAQEhdKFtDSDJdMylDKFtDSDJdMik9W0NIMl0pW0NASF01W0NAQF0oQyg9TylbT0hdKShbQ0gyXVtDSDJdNClbQ0gyXVtDSDJdQyhbQ0gyXTUpKFtDSDNdKVtDSDNd

>  <s_epik_cmdline>  (338) 
J2VwaWtfcHl0aG9uJywgJy1waHQnLCAnMi4wJywgJy1waCcsICc3LjAnLCAnLXRuJywgJzgnLCAnLW1hJywgJzIwMCcsICctaW1hZScsICc8aW5maWxlLm1hZT4nLCAnLW9tYWUnLCAnPG91dGZpbGUubWFlPic=

>  <r_epik_Ionization_Penalty>  (338) 
0.00926936

>  <r_epik_Ionization_Penalty_Charging>  (338) 
0.0092682

>  <r_epik_Ionization_Penalty_Neutral>  (338) 
1.16516e-06

>  <r_epik_State_Penalty>  (338) 
0.00702943

>  <r_epik_Charging_Adjusted_Penalty>  (338) 
0.0162976

>  <i_epik_Tot_Q>  (338) 
-1

>  <i_epik_Tot_abs_Q>  (338) 
1

>  <s_lp_Force_Field>  (338) 
OPLS3e

>  <r_lp_Energy>  (338) 
127.787

>  <b_lp_Chiralities_Consistent>  (338) 
1

>  <s_lp_Variant>  (338) 
107:0-1

>  <s_i_glide_gridfile>  (338) 
pfpi4k_grid

>  <i_i_glide_lignum>  (338) 
33

>  <i_i_glide_rotatable_bonds>  (338) 
3

>  <r_i_docking_score>  (338) 
-2.70341

>  <r_i_glide_ligand_efficiency>  (338) 
-0.0795122

>  <r_i_glide_ligand_efficiency_sa>  (338) 
-0.257589

>  <r_i_glide_ligand_efficiency_ln>  (338) 
-0.59726

>  <r_i_glide_gscore>  (338) 
-2.70341

>  <r_i_glide_lipo>  (338) 
-0.564455

>  <r_i_glide_hbond>  (338) 
-0.198005

>  <r_i_glide_metal>  (338) 
-0

>  <r_i_glide_rewards>  (338) 
-0.220206

>  <r_i_glide_evdw>  (338) 
-32.1804

>  <r_i_glide_ecoul>  (338) 
-1.30002

>  <r_i_glide_erotb>  (338) 
0.092273

>  <r_i_glide_esite>  (338) 
-0.00899813

>  <r_i_glide_emodel>  (338) 
-39.5832

>  <r_i_glide_energy>  (338) 
-33.4804

>  <r_i_glide_einternal>  (338) 
1.43702

>  <r_i_glide_intrahb_reward>  (338) 
-0

>  <i_i_glide_confnum>  (338) 
6

>  <i_i_glide_posenum>  (338) 
29

>  <r_i_glide_eff_state_penalty>  (338) 
0

>  <ligand_id>  (338) 
107

>  <original_smiles>  (338) 
C=CC1(C)CCC2C3(CC(=C)C(CCC4(C)C5CC(C)(C)CCC5(C(=O)O)CCC24C)C3)C1O

>  <smiles>  (338) 
[H]OC1([H])C(C([H])=C([H])[H])(C([H])([H])[H])C([H])([H])C([H])([H])C2([H])C13C([H])([H])C(=C([H])[H])C([H])(C([H])([H])C([H])([H])C1(C([H])([H])[H])C4([H])C([H])([H])C(C([H])([H])[H])(C([H])([H])[H])C([H])([H])C([H])([H])C4(C(=O)[O-])C([H])([H])C([H])([H])C21C([H])([H])[H])C3([H])[H]

$$$$
107:0:1
     RDKit          3D

 81 85  0  0  1  0  0  0  0  0999 V2000
    0.1275   -8.4812    5.7003 C   0  0  0  0  0  0  0  0  0  0  0  0
    0.8646   -7.8273    4.7820 C   0  0  0  0  0  0  0  0  0  0  0  0
    0.6534   -7.7983    3.2605 C   0  0  1  0  0  0  0  0  0  0  0  0
   -0.6988   -8.4666    2.8943 C   0  0  0  0  0  0  0  0  0  0  0  0
    0.5507   -6.3371    2.7993 C   0  0  0  0  0  0  0  0  0  0  0  0
    1.8773   -5.5768    2.7080 C   0  0  0  0  0  0  0  0  0  0  0  0
    2.9198   -6.2835    1.7827 C   0  0  2  0  0  0  0  0  0  0  0  0
    3.2055   -7.7414    2.3973 C   0  0  1  0  0  0  0  0  0  0  0  0
    4.2102   -8.6174    1.5960 C   0  0  0  0  0  0  0  0  0  0  0  0
    5.5781   -8.3097    2.1608 C   0  0  0  0  0  0  0  0  0  0  0  0
    6.7507   -8.5582    1.5563 C   0  0  0  0  0  0  0  0  0  0  0  0
    5.4199   -7.7298    3.5384 C   0  0  1  0  0  0  0  0  0  0  0  0
    6.0949   -6.3643    3.7566 C   0  0  0  0  0  0  0  0  0  0  0  0
    5.3137   -5.0744    3.3883 C   0  0  0  0  0  0  0  0  0  0  0  0
    5.1557   -4.5674    1.9131 C   0  0  2  0  0  0  0  0  0  0  0  0
    6.5717   -4.7496    1.2762 C   0  0  0  0  0  0  0  0  0  0  0  0
    4.9128   -2.9806    2.0015 C   0  0  2  0  0  0  0  0  0  0  0  0
    3.8114   -2.5664    3.0352 C   0  0  0  0  0  0  0  0  0  0  0  0
    3.5186   -1.0624    3.1475 C   0  0  0  0  0  0  0  0  0  0  0  0
    2.3701   -0.8328    4.1515 C   0  0  0  0  0  0  0  0  0  0  0  0
    4.7618   -0.2858    3.6520 C   0  0  0  0  0  0  0  0  0  0  0  0
    3.0599   -0.6012    1.7582 C   0  0  0  0  0  0  0  0  0  0  0  0
    4.1595   -0.7789    0.7113 C   0  0  0  0  0  0  0  0  0  0  0  0
    4.7997   -2.2090    0.6027 C   0  0  1  0  0  0  0  0  0  0  0  0
    6.2143   -1.8776    0.0268 C   0  0  0  0  0  0  0  0  0  0  0  0
    6.3882   -1.8560   -1.2154 O   0  0  0  0  0  0  0  0  0  0  0  0
    7.1096   -1.5330    0.8277 O   0  0  0  0  0  0  0  0  0  0  0  0
    3.9900   -3.0823   -0.4066 C   0  0  0  0  0  0  0  0  0  0  0  0
    3.1911   -4.2259    0.2390 C   0  0  0  0  0  0  0  0  0  0  0  0
    4.0029   -5.3131    1.0462 C   0  0  2  0  0  0  0  0  0  0  0  0
    4.6177   -6.1136   -0.1412 C   0  0  0  0  0  0  0  0  0  0  0  0
    3.9141   -7.7270    3.7826 C   0  0  0  0  0  0  0  0  0  0  0  0
    1.8119   -8.4936    2.4659 C   0  0  1  0  0  0  0  0  0  0  0  0
    1.9184   -9.8357    2.9142 O   0  0  0  0  0  0  0  0  0  0  0  0
   -0.7308   -9.0873    5.4493 H   0  0  0  0  0  0  0  0  0  0  0  0
    0.3916   -8.4140    6.7439 H   0  0  0  0  0  0  0  0  0  0  0  0
    1.6853   -7.2452    5.1661 H   0  0  0  0  0  0  0  0  0  0  0  0
   -0.9138   -8.3984    1.8267 H   0  0  0  0  0  0  0  0  0  0  0  0
   -1.5310   -7.9936    3.4194 H   0  0  0  0  0  0  0  0  0  0  0  0
   -0.7155   -9.5269    3.1529 H   0  0  0  0  0  0  0  0  0  0  0  0
    0.0859   -6.3049    1.8113 H   0  0  0  0  0  0  0  0  0  0  0  0
   -0.1139   -5.8000    3.4785 H   0  0  0  0  0  0  0  0  0  0  0  0
    1.5634   -4.6067    2.3484 H   0  0  0  0  0  0  0  0  0  0  0  0
    2.2647   -5.3916    3.7058 H   0  0  0  0  0  0  0  0  0  0  0  0
    2.3110   -6.5437    0.9150 H   0  0  0  0  0  0  0  0  0  0  0  0
    4.0768   -9.6763    1.8115 H   0  0  0  0  0  0  0  0  0  0  0  0
    4.1346   -8.5559    0.5156 H   0  0  0  0  0  0  0  0  0  0  0  0
    6.7814   -9.0095    0.5753 H   0  0  0  0  0  0  0  0  0  0  0  0
    7.6852   -8.3065    2.0394 H   0  0  0  0  0  0  0  0  0  0  0  0
    5.8824   -8.4391    4.2262 H   0  0  0  0  0  0  0  0  0  0  0  0
    6.2436   -6.2919    4.8338 H   0  0  0  0  0  0  0  0  0  0  0  0
    7.1124   -6.3593    3.3656 H   0  0  0  0  0  0  0  0  0  0  0  0
    4.3561   -5.0658    3.8877 H   0  0  0  0  0  0  0  0  0  0  0  0
    5.8690   -4.2993    3.9137 H   0  0  0  0  0  0  0  0  0  0  0  0
    6.6143   -4.4406    0.2333 H   0  0  0  0  0  0  0  0  0  0  0  0
    6.9196   -5.7795    1.2846 H   0  0  0  0  0  0  0  0  0  0  0  0
    7.3269   -4.1656    1.8015 H   0  0  0  0  0  0  0  0  0  0  0  0
    5.8078   -2.6033    2.4896 H   0  0  0  0  0  0  0  0  0  0  0  0
    2.8766   -3.0474    2.7921 H   0  0  0  0  0  0  0  0  0  0  0  0
    4.0577   -2.9143    4.0356 H   0  0  0  0  0  0  0  0  0  0  0  0
    2.1255    0.2277    4.2282 H   0  0  0  0  0  0  0  0  0  0  0  0
    2.6350   -1.1836    5.1499 H   0  0  0  0  0  0  0  0  0  0  0  0
    1.4634   -1.3564    3.8448 H   0  0  0  0  0  0  0  0  0  0  0  0
    4.5640    0.7882    3.6961 H   0  0  0  0  0  0  0  0  0  0  0  0
    5.6305   -0.4270    3.0054 H   0  0  0  0  0  0  0  0  0  0  0  0
    5.0567   -0.6191    4.6504 H   0  0  0  0  0  0  0  0  0  0  0  0
    2.1784   -1.1659    1.4490 H   0  0  0  0  0  0  0  0  0  0  0  0
    2.7461    0.4433    1.7929 H   0  0  0  0  0  0  0  0  0  0  0  0
    3.7646   -0.4705   -0.2565 H   0  0  0  0  0  0  0  0  0  0  0  0
    4.9151   -0.0221    0.9285 H   0  0  0  0  0  0  0  0  0  0  0  0
    3.2691   -2.4633   -0.9398 H   0  0  0  0  0  0  0  0  0  0  0  0
    4.6133   -3.4818   -1.2010 H   0  0  0  0  0  0  0  0  0  0  0  0
    2.4435   -3.7070    0.8158 H   0  0  0  0  0  0  0  0  0  0  0  0
    2.6180   -4.7110   -0.5505 H   0  0  0  0  0  0  0  0  0  0  0  0
    5.0673   -5.4908   -0.9056 H   0  0  0  0  0  0  0  0  0  0  0  0
    3.8525   -6.6779   -0.6736 H   0  0  0  0  0  0  0  0  0  0  0  0
    5.3949   -6.8017    0.1332 H   0  0  0  0  0  0  0  0  0  0  0  0
    3.6184   -6.9371    4.4613 H   0  0  0  0  0  0  0  0  0  0  0  0
    3.6906   -8.6514    4.3160 H   0  0  0  0  0  0  0  0  0  0  0  0
    1.4713   -8.5874    1.4330 H   0  0  0  0  0  0  0  0  0  0  0  0
    2.2106   -9.8349    3.8128 H   0  0  0  0  0  0  0  0  0  0  0  0
  1  2  2  0
  1 35  1  0
  1 36  1  0
  2  3  1  0
  2 37  1  0
  3 33  1  0
  3  4  1  1
  3  5  1  0
  4 38  1  0
  4 39  1  0
  4 40  1  0
  5  6  1  0
  5 41  1  0
  5 42  1  0
  6  7  1  0
  6 43  1  0
  6 44  1  0
  7 30  1  0
  7  8  1  0
  7 45  1  6
  8 32  1  0
  8  9  1  6
  8 33  1  0
  9 10  1  0
  9 46  1  0
  9 47  1  0
 10 11  2  0
 10 12  1  0
 11 48  1  0
 11 49  1  0
 12 13  1  0
 12 32  1  0
 12 50  1  1
 13 14  1  0
 13 51  1  0
 13 52  1  0
 14 15  1  0
 14 53  1  0
 14 54  1  0
 15 30  1  0
 15 16  1  6
 15 17  1  0
 16 55  1  0
 16 56  1  0
 16 57  1  0
 17 24  1  0
 17 18  1  0
 17 58  1  1
 18 19  1  0
 18 59  1  0
 18 60  1  0
 19 20  1  0
 19 21  1  0
 19 22  1  0
 20 61  1  0
 20 62  1  0
 20 63  1  0
 21 64  1  0
 21 65  1  0
 21 66  1  0
 22 23  1  0
 22 67  1  0
 22 68  1  0
 23 24  1  0
 23 69  1  0
 23 70  1  0
 24 25  1  6
 24 28  1  0
 25 26  2  0
 25 27  1  0
 28 29  1  0
 28 71  1  0
 28 72  1  0
 29 30  1  0
 29 73  1  0
 29 74  1  0
 30 31  1  6
 31 75  1  0
 31 76  1  0
 31 77  1  0
 32 78  1  0
 32 79  1  0
 33 34  1  0
 33 80  1  6
 34 81  1  0
M  CHG  1  27  -1
M  END
>  <i_m_ct_stereo_status>  (339) 
1

>  <s_m_source_file>  (339) 
/var/tmp/pbs.5076255.sched01/tmpy8l6melh/117u1qm2xak.sdf

>  <i_m_source_file_index>  (339) 
33

>  <i_lp_mmshare_version>  (339) 
48012

>  <i_f3d_flags>  (339) 
0

>  <s_epik_input>  (339) 
W0NIMl09W0NIXVtDQF0oW0NIM10pKFtDQEBIXTFbT0hdKVtDSDJdW0NIMl1bQ0BIXShbQ0BAXTEyMylbQ0BdNChbQ0gzXSlbQ0BdKFtDSDNdKShbQ0gyXVtDSDJdW0NAQEhdKFtDSDJdMylDKFtDSDJdMik9W0NIMl0pW0NASF01W0NAQF0oQyg9TylbT0hdKShbQ0gyXVtDSDJdNClbQ0gyXVtDSDJdQyhbQ0gyXTUpKFtDSDNdKVtDSDNd

>  <s_epik_cmdline>  (339) 
J2VwaWtfcHl0aG9uJywgJy1waHQnLCAnMi4wJywgJy1waCcsICc3LjAnLCAnLXRuJywgJzgnLCAnLW1hJywgJzIwMCcsICctaW1hZScsICc8aW5maWxlLm1hZT4nLCAnLW9tYWUnLCAnPG91dGZpbGUubWFlPic=

>  <r_epik_Ionization_Penalty>  (339) 
0.00926936

>  <r_epik_Ionization_Penalty_Charging>  (339) 
0.0092682

>  <r_epik_Ionization_Penalty_Neutral>  (339) 
1.16516e-06

>  <r_epik_State_Penalty>  (339) 
0.00702943

>  <r_epik_Charging_Adjusted_Penalty>  (339) 
0.0162976

>  <i_epik_Tot_Q>  (339) 
-1

>  <i_epik_Tot_abs_Q>  (339) 
1

>  <s_lp_Force_Field>  (339) 
OPLS3e

>  <r_lp_Energy>  (339) 
127.787

>  <b_lp_Chiralities_Consistent>  (339) 
1

>  <s_lp_Variant>  (339) 
107:0-1

>  <s_i_glide_gridfile>  (339) 
pfpi4k_grid

>  <i_i_glide_lignum>  (339) 
33

>  <i_i_glide_rotatable_bonds>  (339) 
3

>  <r_i_docking_score>  (339) 
-2.63779

>  <r_i_glide_ligand_efficiency>  (339) 
-0.0775819

>  <r_i_glide_ligand_efficiency_sa>  (339) 
-0.251335

>  <r_i_glide_ligand_efficiency_ln>  (339) 
-0.582761

>  <r_i_glide_gscore>  (339) 
-2.63779

>  <r_i_glide_lipo>  (339) 
-0.547438

>  <r_i_glide_hbond>  (339) 
-0.197109

>  <r_i_glide_metal>  (339) 
-0

>  <r_i_glide_rewards>  (339) 
-0.220206

>  <r_i_glide_evdw>  (339) 
-32.997

>  <r_i_glide_ecoul>  (339) 
-0.740673

>  <r_i_glide_erotb>  (339) 
0.092273

>  <r_i_glide_esite>  (339) 
-0.00435506

>  <r_i_glide_emodel>  (339) 
-40.3385

>  <r_i_glide_energy>  (339) 
-33.7377

>  <r_i_glide_einternal>  (339) 
0.0957981

>  <r_i_glide_intrahb_reward>  (339) 
-0

>  <i_i_glide_confnum>  (339) 
1

>  <i_i_glide_posenum>  (339) 
40

>  <r_i_glide_eff_state_penalty>  (339) 
0

>  <ligand_id>  (339) 
107

>  <original_smiles>  (339) 
C=CC1(C)CCC2C3(CC(=C)C(CCC4(C)C5CC(C)(C)CCC5(C(=O)O)CCC24C)C3)C1O

>  <smiles>  (339) 
[H]OC1([H])C(C([H])=C([H])[H])(C([H])([H])[H])C([H])([H])C([H])([H])C2([H])C13C([H])([H])C(=C([H])[H])C([H])(C([H])([H])C([H])([H])C1(C([H])([H])[H])C4([H])C([H])([H])C(C([H])([H])[H])(C([H])([H])[H])C([H])([H])C([H])([H])C4(C(=O)[O-])C([H])([H])C([H])([H])C21C([H])([H])[H])C3([H])[H]

$$$$
107:0:2
     RDKit          3D

 81 85  0  0  1  0  0  0  0  0999 V2000
    0.3486   -8.7012    5.6053 C   0  0  0  0  0  0  0  0  0  0  0  0
    1.0719   -8.0101    4.7007 C   0  0  0  0  0  0  0  0  0  0  0  0
    0.9008   -8.0007    3.1730 C   0  0  1  0  0  0  0  0  0  0  0  0
   -0.3831   -8.7776    2.7792 C   0  0  0  0  0  0  0  0  0  0  0  0
    0.6885   -6.5523    2.7021 C   0  0  0  0  0  0  0  0  0  0  0  0
    1.9549   -5.6906    2.6445 C   0  0  0  0  0  0  0  0  0  0  0  0
    3.0764   -6.3122    1.7511 C   0  0  2  0  0  0  0  0  0  0  0  0
    3.4644   -7.7406    2.3783 C   0  0  1  0  0  0  0  0  0  0  0  0
    4.5613   -8.5320    1.6082 C   0  0  0  0  0  0  0  0  0  0  0  0
    5.8842   -8.1132    2.2096 C   0  0  0  0  0  0  0  0  0  0  0  0
    7.0898   -8.2638    1.6410 C   0  0  0  0  0  0  0  0  0  0  0  0
    5.6378   -7.5494    3.5820 C   0  0  1  0  0  0  0  0  0  0  0  0
    6.1955   -6.1333    3.8146 C   0  0  0  0  0  0  0  0  0  0  0  0
    5.3230   -4.9124    3.4183 C   0  0  0  0  0  0  0  0  0  0  0  0
    5.1649   -4.4274    1.9363 C   0  0  2  0  0  0  0  0  0  0  0  0
    6.6046   -4.5083    1.3362 C   0  0  0  0  0  0  0  0  0  0  0  0
    4.7914   -2.8634    2.0172 C   0  0  2  0  0  0  0  0  0  0  0  0
    3.6281   -2.5377    3.0147 C   0  0  0  0  0  0  0  0  0  0  0  0
    3.2174   -1.0585    3.1132 C   0  0  0  0  0  0  0  0  0  0  0  0
    2.0238   -0.9190    4.0818 C   0  0  0  0  0  0  0  0  0  0  0  0
    4.3779   -0.1846    3.6460 C   0  0  0  0  0  0  0  0  0  0  0  0
    2.7642   -0.6386    1.7102 C   0  0  0  0  0  0  0  0  0  0  0  0
    3.9062   -0.7319    0.7001 C   0  0  0  0  0  0  0  0  0  0  0  0
    4.6601   -2.1038    0.6160 C   0  0  1  0  0  0  0  0  0  0  0  0
    6.0558   -1.6640    0.0607 C   0  0  0  0  0  0  0  0  0  0  0  0
    6.9923   -1.4502    0.8611 O   0  0  0  0  0  0  0  0  0  0  0  0
    6.1724   -1.4569   -1.1693 O   0  0  0  0  0  0  0  0  0  0  0  0
    3.9527   -3.0371   -0.4155 C   0  0  0  0  0  0  0  0  0  0  0  0
    3.2277   -4.2428    0.2065 C   0  0  0  0  0  0  0  0  0  0  0  0
    4.0972   -5.2637    1.0396 C   0  0  2  0  0  0  0  0  0  0  0  0
    4.8034   -6.0137   -0.1293 C   0  0  0  0  0  0  0  0  0  0  0  0
    4.1298   -7.6682    3.7817 C   0  0  0  0  0  0  0  0  0  0  0  0
    2.1333   -8.6003    2.4086 C   0  0  1  0  0  0  0  0  0  0  0  0
    2.3401   -9.9245    2.8784 O   0  0  0  0  0  0  0  0  0  0  0  0
   -0.4655   -9.3571    5.3380 H   0  0  0  0  0  0  0  0  0  0  0  0
    0.5821   -8.6111    6.6538 H   0  0  0  0  0  0  0  0  0  0  0  0
    1.8485   -7.3839    5.1036 H   0  0  0  0  0  0  0  0  0  0  0  0
   -0.5764   -8.7237    1.7077 H   0  0  0  0  0  0  0  0  0  0  0  0
   -1.2630   -8.3739    3.2814 H   0  0  0  0  0  0  0  0  0  0  0  0
   -0.3176   -9.8354    3.0402 H   0  0  0  0  0  0  0  0  0  0  0  0
    0.2502   -6.5610    1.7024 H   0  0  0  0  0  0  0  0  0  0  0  0
   -0.0375   -6.0669    3.3557 H   0  0  0  0  0  0  0  0  0  0  0  0
    1.5758   -4.7503    2.2708 H   0  0  0  0  0  0  0  0  0  0  0  0
    2.2986   -5.4714    3.6516 H   0  0  0  0  0  0  0  0  0  0  0  0
    2.5145   -6.6213    0.8688 H   0  0  0  0  0  0  0  0  0  0  0  0
    4.5175   -9.5983    1.8270 H   0  0  0  0  0  0  0  0  0  0  0  0
    4.5079   -8.4806    0.5253 H   0  0  0  0  0  0  0  0  0  0  0  0
    7.1889   -8.7042    0.6613 H   0  0  0  0  0  0  0  0  0  0  0  0
    7.9889   -7.9417    2.1482 H   0  0  0  0  0  0  0  0  0  0  0  0
    6.1371   -8.2172    4.2869 H   0  0  0  0  0  0  0  0  0  0  0  0
    6.3086   -6.0466    4.8953 H   0  0  0  0  0  0  0  0  0  0  0  0
    7.2184   -6.0458    3.4505 H   0  0  0  0  0  0  0  0  0  0  0  0
    4.3569   -4.9765    3.8960 H   0  0  0  0  0  0  0  0  0  0  0  0
    5.8095   -4.0959    3.9515 H   0  0  0  0  0  0  0  0  0  0  0  0
    6.6540   -4.1991    0.2946 H   0  0  0  0  0  0  0  0  0  0  0  0
    7.0333   -5.5062    1.3597 H   0  0  0  0  0  0  0  0  0  0  0  0
    7.2968   -3.8682    1.8790 H   0  0  0  0  0  0  0  0  0  0  0  0
    5.6319   -2.4118    2.5374 H   0  0  0  0  0  0  0  0  0  0  0  0
    2.7396   -3.0897    2.7485 H   0  0  0  0  0  0  0  0  0  0  0  0
    3.8721   -2.8597    4.0241 H   0  0  0  0  0  0  0  0  0  0  0  0
    1.6919    0.1189    4.1483 H   0  0  0  0  0  0  0  0  0  0  0  0
    2.2883   -1.2449    5.0891 H   0  0  0  0  0  0  0  0  0  0  0  0
    1.1715   -1.5147    3.7535 H   0  0  0  0  0  0  0  0  0  0  0  0
    4.0965    0.8707    3.6797 H   0  0  0  0  0  0  0  0  0  0  0  0
    5.2721   -0.2556    3.0239 H   0  0  0  0  0  0  0  0  0  0  0  0
    4.6728   -0.4882    4.6526 H   0  0  0  0  0  0  0  0  0  0  0  0
    1.9408   -1.2713    1.3776 H   0  0  0  0  0  0  0  0  0  0  0  0
    2.3653    0.3767    1.7272 H   0  0  0  0  0  0  0  0  0  0  0  0
    3.5130   -0.4706   -0.2807 H   0  0  0  0  0  0  0  0  0  0  0  0
    4.5980    0.0811    0.9218 H   0  0  0  0  0  0  0  0  0  0  0  0
    3.1993   -2.4796   -0.9703 H   0  0  0  0  0  0  0  0  0  0  0  0
    4.6328   -3.3760   -1.1932 H   0  0  0  0  0  0  0  0  0  0  0  0
    2.4250   -3.7858    0.7620 H   0  0  0  0  0  0  0  0  0  0  0  0
    2.7146   -4.7729   -0.5966 H   0  0  0  0  0  0  0  0  0  0  0  0
    5.2278   -5.3560   -0.8815 H   0  0  0  0  0  0  0  0  0  0  0  0
    4.1206   -6.6537   -0.6854 H   0  0  0  0  0  0  0  0  0  0  0  0
    5.6328   -6.6307    0.1743 H   0  0  0  0  0  0  0  0  0  0  0  0
    3.7544   -6.9036    4.4491 H   0  0  0  0  0  0  0  0  0  0  0  0
    3.9617   -8.6070    4.3109 H   0  0  0  0  0  0  0  0  0  0  0  0
    1.8256   -8.7246    1.3670 H   0  0  0  0  0  0  0  0  0  0  0  0
    2.8899  -10.3889    2.2624 H   0  0  0  0  0  0  0  0  0  0  0  0
  1  2  2  0
  1 35  1  0
  1 36  1  0
  2  3  1  0
  2 37  1  0
  3 33  1  0
  3  4  1  1
  3  5  1  0
  4 38  1  0
  4 39  1  0
  4 40  1  0
  5  6  1  0
  5 41  1  0
  5 42  1  0
  6  7  1  0
  6 43  1  0
  6 44  1  0
  7 30  1  0
  7  8  1  0
  7 45  1  6
  8 32  1  0
  8  9  1  6
  8 33  1  0
  9 10  1  0
  9 46  1  0
  9 47  1  0
 10 11  2  0
 10 12  1  0
 11 48  1  0
 11 49  1  0
 12 13  1  0
 12 32  1  0
 12 50  1  1
 13 14  1  0
 13 51  1  0
 13 52  1  0
 14 15  1  0
 14 53  1  0
 14 54  1  0
 15 30  1  0
 15 16  1  6
 15 17  1  0
 16 55  1  0
 16 56  1  0
 16 57  1  0
 17 24  1  0
 17 18  1  0
 17 58  1  1
 18 19  1  0
 18 59  1  0
 18 60  1  0
 19 20  1  0
 19 21  1  0
 19 22  1  0
 20 61  1  0
 20 62  1  0
 20 63  1  0
 21 64  1  0
 21 65  1  0
 21 66  1  0
 22 23  1  0
 22 67  1  0
 22 68  1  0
 23 24  1  0
 23 69  1  0
 23 70  1  0
 24 25  1  6
 24 28  1  0
 25 26  2  0
 25 27  1  0
 28 29  1  0
 28 71  1  0
 28 72  1  0
 29 30  1  0
 29 73  1  0
 29 74  1  0
 30 31  1  6
 31 75  1  0
 31 76  1  0
 31 77  1  0
 32 78  1  0
 32 79  1  0
 33 34  1  0
 33 80  1  6
 34 81  1  0
M  CHG  1  27  -1
M  END
>  <i_m_ct_stereo_status>  (340) 
1

>  <s_m_source_file>  (340) 
/var/tmp/pbs.5076255.sched01/tmpy8l6melh/117u1qm2xak.sdf

>  <i_m_source_file_index>  (340) 
33

>  <i_lp_mmshare_version>  (340) 
48012

>  <i_f3d_flags>  (340) 
0

>  <s_epik_input>  (340) 
W0NIMl09W0NIXVtDQF0oW0NIM10pKFtDQEBIXTFbT0hdKVtDSDJdW0NIMl1bQ0BIXShbQ0BAXTEyMylbQ0BdNChbQ0gzXSlbQ0BdKFtDSDNdKShbQ0gyXVtDSDJdW0NAQEhdKFtDSDJdMylDKFtDSDJdMik9W0NIMl0pW0NASF01W0NAQF0oQyg9TylbT0hdKShbQ0gyXVtDSDJdNClbQ0gyXVtDSDJdQyhbQ0gyXTUpKFtDSDNdKVtDSDNd

>  <s_epik_cmdline>  (340) 
J2VwaWtfcHl0aG9uJywgJy1waHQnLCAnMi4wJywgJy1waCcsICc3LjAnLCAnLXRuJywgJzgnLCAnLW1hJywgJzIwMCcsICctaW1hZScsICc8aW5maWxlLm1hZT4nLCAnLW9tYWUnLCAnPG91dGZpbGUubWFlPic=

>  <r_epik_Ionization_Penalty>  (340) 
0.00926936

>  <r_epik_Ionization_Penalty_Charging>  (340) 
0.0092682

>  <r_epik_Ionization_Penalty_Neutral>  (340) 
1.16516e-06

>  <r_epik_State_Penalty>  (340) 
0.00702943

>  <r_epik_Charging_Adjusted_Penalty>  (340) 
0.0162976

>  <i_epik_Tot_Q>  (340) 
-1

>  <i_epik_Tot_abs_Q>  (340) 
1

>  <s_lp_Force_Field>  (340) 
OPLS3e

>  <r_lp_Energy>  (340) 
127.787

>  <b_lp_Chiralities_Consistent>  (340) 
1

>  <s_lp_Variant>  (340) 
107:0-1

>  <s_i_glide_gridfile>  (340) 
pfpi4k_grid

>  <i_i_glide_lignum>  (340) 
33

>  <i_i_glide_rotatable_bonds>  (340) 
3

>  <r_i_docking_score>  (340) 
-2.62093

>  <r_i_glide_ligand_efficiency>  (340) 
-0.0770862

>  <r_i_glide_ligand_efficiency_sa>  (340) 
-0.249729

>  <r_i_glide_ligand_efficiency_ln>  (340) 
-0.579037

>  <r_i_glide_gscore>  (340) 
-2.62093

>  <r_i_glide_lipo>  (340) 
-0.493115

>  <r_i_glide_hbond>  (340) 
-0.144265

>  <r_i_glide_metal>  (340) 
-0

>  <r_i_glide_rewards>  (340) 
-0.222278

>  <r_i_glide_evdw>  (340) 
-31.9582

>  <r_i_glide_ecoul>  (340) 
-1.70425

>  <r_i_glide_erotb>  (340) 
0.092273

>  <r_i_glide_esite>  (340) 
0

>  <r_i_glide_emodel>  (340) 
-39.9105

>  <r_i_glide_energy>  (340) 
-33.6624

>  <r_i_glide_einternal>  (340) 
0.658377

>  <r_i_glide_intrahb_reward>  (340) 
-0

>  <i_i_glide_confnum>  (340) 
3

>  <i_i_glide_posenum>  (340) 
14

>  <r_i_glide_eff_state_penalty>  (340) 
0

>  <ligand_id>  (340) 
107

>  <original_smiles>  (340) 
C=CC1(C)CCC2C3(CC(=C)C(CCC4(C)C5CC(C)(C)CCC5(C(=O)O)CCC24C)C3)C1O

>  <smiles>  (340) 
[H]OC1([H])C(C([H])=C([H])[H])(C([H])([H])[H])C([H])([H])C([H])([H])C2([H])C13C([H])([H])C(=C([H])[H])C([H])(C([H])([H])C([H])([H])C1(C([H])([H])[H])C4([H])C([H])([H])C(C([H])([H])[H])(C([H])([H])[H])C([H])([H])C([H])([H])C4(C(=O)[O-])C([H])([H])C([H])([H])C21C([H])([H])[H])C3([H])[H]

$$$$
107:1:0
     RDKit          3D

 82 86  0  0  1  0  0  0  0  0999 V2000
    2.1934   -8.5349    5.7207 C   0  0  0  0  0  0  0  0  0  0  0  0
    2.3163   -9.4125    4.7066 C   0  0  0  0  0  0  0  0  0  0  0  0
    1.9459   -9.2066    3.2277 C   0  0  1  0  0  0  0  0  0  0  0  0
    0.8594  -10.2517    2.8777 C   0  0  0  0  0  0  0  0  0  0  0  0
    1.3221   -7.8243    2.9570 C   0  0  0  0  0  0  0  0  0  0  0  0
    2.3293   -6.6700    2.9319 C   0  0  0  0  0  0  0  0  0  0  0  0
    3.4688   -6.8724    1.8894 C   0  0  2  0  0  0  0  0  0  0  0  0
    4.2472   -8.2364    2.2604 C   0  0  1  0  0  0  0  0  0  0  0  0
    5.3988   -8.6328    1.2925 C   0  0  0  0  0  0  0  0  0  0  0  0
    6.6508   -7.9882    1.8409 C   0  0  0  0  0  0  0  0  0  0  0  0
    7.7953   -7.7702    1.1749 C   0  0  0  0  0  0  0  0  0  0  0  0
    6.4425   -7.6790    3.2966 C   0  0  1  0  0  0  0  0  0  0  0  0
    6.6968   -6.2151    3.6899 C   0  0  0  0  0  0  0  0  0  0  0  0
    5.5229   -5.2082    3.5887 C   0  0  0  0  0  0  0  0  0  0  0  0
    5.0663   -4.5649    2.2339 C   0  0  2  0  0  0  0  0  0  0  0  0
    6.3866   -4.1814    1.4987 C   0  0  0  0  0  0  0  0  0  0  0  0
    4.3469   -3.1740    2.6199 C   0  0  2  0  0  0  0  0  0  0  0  0
    3.2765   -3.3434    3.7523 C   0  0  0  0  0  0  0  0  0  0  0  0
    2.4210   -2.1161    4.1051 C   0  0  0  0  0  0  0  0  0  0  0  0
    1.3322   -2.5064    5.1260 C   0  0  0  0  0  0  0  0  0  0  0  0
    3.2924   -1.0017    4.7342 C   0  0  0  0  0  0  0  0  0  0  0  0
    1.7344   -1.6697    2.8161 C   0  0  0  0  0  0  0  0  0  0  0  0
    2.7556   -1.2330    1.7781 C   0  0  0  0  0  0  0  0  0  0  0  0
    3.8520   -2.2813    1.3905 C   0  0  1  0  0  0  0  0  0  0  0  0
    4.9836   -1.3533    0.8490 C   0  0  0  0  0  0  0  0  0  0  0  0
    6.0508   -1.1450    1.4139 O   0  0  0  0  0  0  0  0  0  0  0  0
    4.5977   -0.6881   -0.2759 O   0  0  0  0  0  0  0  0  0  0  0  0
    3.3653   -3.2094    0.2424 C   0  0  0  0  0  0  0  0  0  0  0  0
    2.9769   -4.6213    0.7096 C   0  0  0  0  0  0  0  0  0  0  0  0
    4.1332   -5.5096    1.2952 C   0  0  2  0  0  0  0  0  0  0  0  0
    4.8547   -5.9075   -0.0258 C   0  0  0  0  0  0  0  0  0  0  0  0
    5.0343   -8.1963    3.6044 C   0  0  0  0  0  0  0  0  0  0  0  0
    3.1670   -9.3888    2.2604 C   0  0  1  0  0  0  0  0  0  0  0  0
    3.7324  -10.6719    2.4805 O   0  0  0  0  0  0  0  0  0  0  0  0
    1.7969   -7.5432    5.5823 H   0  0  0  0  0  0  0  0  0  0  0  0
    2.4939   -8.7981    6.7248 H   0  0  0  0  0  0  0  0  0  0  0  0
    2.7123  -10.3913    4.9394 H   0  0  0  0  0  0  0  0  0  0  0  0
    0.5356  -10.1312    1.8434 H   0  0  0  0  0  0  0  0  0  0  0  0
   -0.0259  -10.1500    3.5065 H   0  0  0  0  0  0  0  0  0  0  0  0
    1.2194  -11.2773    2.9757 H   0  0  0  0  0  0  0  0  0  0  0  0
    0.8073   -7.8388    1.9941 H   0  0  0  0  0  0  0  0  0  0  0  0
    0.5406   -7.6174    3.6903 H   0  0  0  0  0  0  0  0  0  0  0  0
    1.6908   -5.8231    2.7377 H   0  0  0  0  0  0  0  0  0  0  0  0
    2.7504   -6.4928    3.9161 H   0  0  0  0  0  0  0  0  0  0  0  0
    2.9067   -7.1944    1.0117 H   0  0  0  0  0  0  0  0  0  0  0  0
    5.6223   -9.6981    1.3439 H   0  0  0  0  0  0  0  0  0  0  0  0
    5.1910   -8.4518    0.2464 H   0  0  0  0  0  0  0  0  0  0  0  0
    7.9317   -8.0583    0.1451 H   0  0  0  0  0  0  0  0  0  0  0  0
    8.6253   -7.2921    1.6705 H   0  0  0  0  0  0  0  0  0  0  0  0
    7.1683   -8.2901    3.8365 H   0  0  0  0  0  0  0  0  0  0  0  0
    6.9402   -6.2443    4.7516 H   0  0  0  0  0  0  0  0  0  0  0  0
    7.6116   -5.8342    3.2384 H   0  0  0  0  0  0  0  0  0  0  0  0
    4.6698   -5.5910    4.1296 H   0  0  0  0  0  0  0  0  0  0  0  0
    5.8612   -4.3812    4.2128 H   0  0  0  0  0  0  0  0  0  0  0  0
    6.2124   -3.7132    0.5311 H   0  0  0  0  0  0  0  0  0  0  0  0
    7.0420   -5.0264    1.3044 H   0  0  0  0  0  0  0  0  0  0  0  0
    6.9734   -3.4750    2.0812 H   0  0  0  0  0  0  0  0  0  0  0  0
    5.1100   -2.5889    3.1295 H   0  0  0  0  0  0  0  0  0  0  0  0
    2.5880   -4.1269    3.4877 H   0  0  0  0  0  0  0  0  0  0  0  0
    3.7405   -3.6735    4.6788 H   0  0  0  0  0  0  0  0  0  0  0  0
    0.7009   -1.6488    5.3694 H   0  0  0  0  0  0  0  0  0  0  0  0
    1.7658   -2.8728    6.0583 H   0  0  0  0  0  0  0  0  0  0  0  0
    0.6803   -3.2897    4.7327 H   0  0  0  0  0  0  0  0  0  0  0  0
    2.7187   -0.0813    4.8697 H   0  0  0  0  0  0  0  0  0  0  0  0
    4.1574   -0.7576    4.1135 H   0  0  0  0  0  0  0  0  0  0  0  0
    3.6825   -1.3053    5.7086 H   0  0  0  0  0  0  0  0  0  0  0  0
    1.1401   -2.4895    2.4175 H   0  0  0  0  0  0  0  0  0  0  0  0
    1.0310   -0.8610    3.0132 H   0  0  0  0  0  0  0  0  0  0  0  0
    2.2168   -0.9116    0.8873 H   0  0  0  0  0  0  0  0  0  0  0  0
    3.2104   -0.3086    2.1387 H   0  0  0  0  0  0  0  0  0  0  0  0
    5.2169   -0.0210   -0.5244 H   0  0  0  0  0  0  0  0  0  0  0  0
    2.4844   -2.7785   -0.2301 H   0  0  0  0  0  0  0  0  0  0  0  0
    4.0850   -3.2447   -0.5708 H   0  0  0  0  0  0  0  0  0  0  0  0
    2.1645   -4.4451    1.3914 H   0  0  0  0  0  0  0  0  0  0  0  0
    2.5051   -5.1445   -0.1219 H   0  0  0  0  0  0  0  0  0  0  0  0
    5.0388   -5.0830   -0.7071 H   0  0  0  0  0  0  0  0  0  0  0  0
    4.2673   -6.6165   -0.6119 H   0  0  0  0  0  0  0  0  0  0  0  0
    5.8283   -6.3413    0.1222 H   0  0  0  0  0  0  0  0  0  0  0  0
    4.5448   -7.6808    4.4235 H   0  0  0  0  0  0  0  0  0  0  0  0
    5.1674   -9.2150    3.9736 H   0  0  0  0  0  0  0  0  0  0  0  0
    2.7687   -9.4441    1.2462 H   0  0  0  0  0  0  0  0  0  0  0  0
    3.8157  -11.1419    1.6381 H   0  0  0  0  0  0  0  0  0  0  0  0
  1  2  2  0
  1 35  1  0
  1 36  1  0
  2  3  1  0
  2 37  1  0
  3 33  1  0
  3  4  1  6
  3  5  1  0
  4 38  1  0
  4 39  1  0
  4 40  1  0
  5  6  1  0
  5 41  1  0
  5 42  1  0
  6  7  1  0
  6 43  1  0
  6 44  1  0
  7 30  1  0
  7  8  1  0
  7 45  1  6
  8 32  1  0
  8  9  1  6
  8 33  1  0
  9 10  1  0
  9 46  1  0
  9 47  1  0
 10 11  2  0
 10 12  1  0
 11 48  1  0
 11 49  1  0
 12 13  1  0
 12 32  1  0
 12 50  1  1
 13 14  1  0
 13 51  1  0
 13 52  1  0
 14 15  1  0
 14 53  1  0
 14 54  1  0
 15 30  1  0
 15 16  1  6
 15 17  1  0
 16 55  1  0
 16 56  1  0
 16 57  1  0
 17 24  1  0
 17 18  1  0
 17 58  1  1
 18 19  1  0
 18 59  1  0
 18 60  1  0
 19 20  1  0
 19 21  1  0
 19 22  1  0
 20 61  1  0
 20 62  1  0
 20 63  1  0
 21 64  1  0
 21 65  1  0
 21 66  1  0
 22 23  1  0
 22 67  1  0
 22 68  1  0
 23 24  1  0
 23 69  1  0
 23 70  1  0
 24 25  1  6
 24 28  1  0
 25 26  2  0
 25 27  1  0
 27 71  1  0
 28 29  1  0
 28 72  1  0
 28 73  1  0
 29 30  1  0
 29 74  1  0
 29 75  1  0
 30 31  1  6
 31 76  1  0
 31 77  1  0
 31 78  1  0
 32 79  1  0
 32 80  1  0
 33 34  1  0
 33 81  1  6
 34 82  1  0
M  END
>  <i_m_ct_stereo_status>  (341) 
1

>  <s_m_source_file>  (341) 
/var/tmp/pbs.5076255.sched01/tmpy8l6melh/117u1qm2xak.sdf

>  <i_m_source_file_index>  (341) 
34

>  <i_lp_mmshare_version>  (341) 
48012

>  <i_f3d_flags>  (341) 
0

>  <s_epik_input>  (341) 
W0NIMl09W0NIXVtDQF0oW0NIM10pKFtDQEBIXTFbT0hdKVtDSDJdW0NIMl1bQ0BIXShbQ0BAXTEyMylbQ0BdNChbQ0gzXSlbQ0BdKFtDSDNdKShbQ0gyXVtDSDJdW0NAQEhdKFtDSDJdMylDKFtDSDJdMik9W0NIMl0pW0NASF01W0NAQF0oQyg9TylbT0hdKShbQ0gyXVtDSDJdNClbQ0gyXVtDSDJdQyhbQ0gyXTUpKFtDSDNdKVtDSDNd

>  <s_epik_cmdline>  (341) 
J2VwaWtfcHl0aG9uJywgJy1waHQnLCAnMi4wJywgJy1waCcsICc3LjAnLCAnLXRuJywgJzgnLCAnLW1hJywgJzIwMCcsICctaW1hZScsICc8aW5maWxlLm1hZT4nLCAnLW9tYWUnLCAnPG91dGZpbGUubWFlPic=

>  <r_epik_Ionization_Penalty>  (341) 
2.46803

>  <r_epik_Ionization_Penalty_Charging>  (341) 
0

>  <r_epik_Ionization_Penalty_Neutral>  (341) 
2.46803

>  <r_epik_State_Penalty>  (341) 
2.63072

>  <r_epik_Charging_Adjusted_Penalty>  (341) 
2.63072

>  <i_epik_Tot_Q>  (341) 
0

>  <i_epik_Tot_abs_Q>  (341) 
0

>  <s_lp_Force_Field>  (341) 
OPLS3e

>  <r_lp_Energy>  (341) 
130.573

>  <b_lp_Chiralities_Consistent>  (341) 
1

>  <s_lp_Variant>  (341) 
107:0-2

>  <s_i_glide_gridfile>  (341) 
pfpi4k_grid

>  <i_i_glide_lignum>  (341) 
34

>  <i_i_glide_rotatable_bonds>  (341) 
4

>  <r_i_docking_score>  (341) 
-3.10082

>  <r_i_glide_ligand_efficiency>  (341) 
-0.0912006

>  <r_i_glide_ligand_efficiency_sa>  (341) 
-0.295455

>  <r_i_glide_ligand_efficiency_ln>  (341) 
-0.685058

>  <r_i_glide_gscore>  (341) 
-3.10082

>  <r_i_glide_lipo>  (341) 
-0.490248

>  <r_i_glide_hbond>  (341) 
-0.153956

>  <r_i_glide_metal>  (341) 
-0

>  <r_i_glide_rewards>  (341) 
-0.294485

>  <r_i_glide_evdw>  (341) 
-29.8382

>  <r_i_glide_ecoul>  (341) 
-5.69364

>  <r_i_glide_erotb>  (341) 
0.183823

>  <r_i_glide_esite>  (341) 
0

>  <r_i_glide_emodel>  (341) 
-41.3549

>  <r_i_glide_energy>  (341) 
-35.5318

>  <r_i_glide_einternal>  (341) 
2.58898

>  <r_i_glide_intrahb_reward>  (341) 
-0

>  <i_i_glide_confnum>  (341) 
2

>  <i_i_glide_posenum>  (341) 
19

>  <r_i_glide_eff_state_penalty>  (341) 
0

>  <ligand_id>  (341) 
107

>  <original_smiles>  (341) 
C=CC1(C)CCC2C3(CC(=C)C(CCC4(C)C5CC(C)(C)CCC5(C(=O)O)CCC24C)C3)C1O

>  <smiles>  (341) 
[H]OC(=O)C12C([H])([H])C([H])([H])C(C([H])([H])[H])(C([H])([H])[H])C([H])([H])C1([H])C1(C([H])([H])[H])C([H])([H])C([H])([H])C3([H])C(=C([H])[H])C([H])([H])C4(C3([H])[H])C([H])(O[H])C(C([H])=C([H])[H])(C([H])([H])[H])C([H])([H])C([H])([H])C4([H])C1(C([H])([H])[H])C([H])([H])C2([H])[H]

$$$$
107:1:1
     RDKit          3D

 82 86  0  0  1  0  0  0  0  0999 V2000
    1.6703  -10.2614    5.8666 C   0  0  0  0  0  0  0  0  0  0  0  0
    2.1924   -9.4209    4.9593 C   0  0  0  0  0  0  0  0  0  0  0  0
    1.8485   -9.3259    3.4640 C   0  0  1  0  0  0  0  0  0  0  0  0
    0.7358  -10.3491    3.1084 C   0  0  0  0  0  0  0  0  0  0  0  0
    1.2656   -7.9348    3.1711 C   0  0  0  0  0  0  0  0  0  0  0  0
    2.2961   -6.8015    3.1033 C   0  0  0  0  0  0  0  0  0  0  0  0
    3.4253   -7.0558    2.0533 C   0  0  2  0  0  0  0  0  0  0  0  0
    4.1861   -8.4123    2.4720 C   0  0  1  0  0  0  0  0  0  0  0  0
    5.3309   -8.8645    1.5183 C   0  0  0  0  0  0  0  0  0  0  0  0
    6.5964   -8.2146    2.0368 C   0  0  0  0  0  0  0  0  0  0  0  0
    7.7355   -8.0394    1.3518 C   0  0  0  0  0  0  0  0  0  0  0  0
    6.3953   -7.8420    3.4759 C   0  0  1  0  0  0  0  0  0  0  0  0
    6.6634   -6.3627    3.8092 C   0  0  0  0  0  0  0  0  0  0  0  0
    5.5035   -5.3428    3.6628 C   0  0  0  0  0  0  0  0  0  0  0  0
    5.0588   -4.7552    2.2801 C   0  0  2  0  0  0  0  0  0  0  0  0
    6.3852   -4.4260    1.5296 C   0  0  0  0  0  0  0  0  0  0  0  0
    4.3584   -3.3378    2.6028 C   0  0  2  0  0  0  0  0  0  0  0  0
    3.2829   -3.4392    3.7408 C   0  0  0  0  0  0  0  0  0  0  0  0
    2.4528   -2.1799    4.0370 C   0  0  0  0  0  0  0  0  0  0  0  0
    1.3517   -2.5066    5.0668 C   0  0  0  0  0  0  0  0  0  0  0  0
    3.3424   -1.0527    4.6125 C   0  0  0  0  0  0  0  0  0  0  0  0
    1.7755   -1.7835    2.7271 C   0  0  0  0  0  0  0  0  0  0  0  0
    2.8055   -1.4038    1.6754 C   0  0  0  0  0  0  0  0  0  0  0  0
    3.8854   -2.4887    1.3336 C   0  0  1  0  0  0  0  0  0  0  0  0
    5.0344   -1.6193    0.7426 C   0  0  0  0  0  0  0  0  0  0  0  0
    6.1103   -1.4156    1.2997 O   0  0  0  0  0  0  0  0  0  0  0  0
    4.6722   -1.0374   -0.4430 O   0  0  0  0  0  0  0  0  0  0  0  0
    3.3724   -3.4634    0.2317 C   0  0  0  0  0  0  0  0  0  0  0  0
    2.9646   -4.8513    0.7589 C   0  0  0  0  0  0  0  0  0  0  0  0
    4.1097   -5.7308    1.3873 C   0  0  2  0  0  0  0  0  0  0  0  0
    4.8215   -6.2010    0.0816 C   0  0  0  0  0  0  0  0  0  0  0  0
    4.9835   -8.3168    3.8030 C   0  0  0  0  0  0  0  0  0  0  0  0
    3.0866   -9.5573    2.5307 C   0  0  1  0  0  0  0  0  0  0  0  0
    3.6289  -10.8400    2.8148 O   0  0  0  0  0  0  0  0  0  0  0  0
    0.9159  -11.0007    5.6372 H   0  0  0  0  0  0  0  0  0  0  0  0
    2.0091  -10.2295    6.8898 H   0  0  0  0  0  0  0  0  0  0  0  0
    2.9276   -8.7332    5.3375 H   0  0  0  0  0  0  0  0  0  0  0  0
    0.4155  -10.2569    2.0725 H   0  0  0  0  0  0  0  0  0  0  0  0
   -0.1543  -10.2020    3.7209 H   0  0  0  0  0  0  0  0  0  0  0  0
    1.0655  -11.3786    3.2507 H   0  0  0  0  0  0  0  0  0  0  0  0
    0.7328   -7.9569    2.2183 H   0  0  0  0  0  0  0  0  0  0  0  0
    0.5222   -7.6908    3.9314 H   0  0  0  0  0  0  0  0  0  0  0  0
    1.6707   -5.9555    2.8584 H   0  0  0  0  0  0  0  0  0  0  0  0
    2.6935   -6.5998    4.0952 H   0  0  0  0  0  0  0  0  0  0  0  0
    2.8491   -7.4014    1.1948 H   0  0  0  0  0  0  0  0  0  0  0  0
    5.5324   -9.9300    1.6146 H   0  0  0  0  0  0  0  0  0  0  0  0
    5.1353   -8.7263    0.4607 H   0  0  0  0  0  0  0  0  0  0  0  0
    7.8252   -8.3712    0.3316 H   0  0  0  0  0  0  0  0  0  0  0  0
    8.5967   -7.5708    1.8121 H   0  0  0  0  0  0  0  0  0  0  0  0
    7.1061   -8.4417    4.0480 H   0  0  0  0  0  0  0  0  0  0  0  0
    6.9013   -6.3537    4.8724 H   0  0  0  0  0  0  0  0  0  0  0  0
    7.5845   -6.0130    3.3457 H   0  0  0  0  0  0  0  0  0  0  0  0
    4.6381   -5.6776    4.2174 H   0  0  0  0  0  0  0  0  0  0  0  0
    5.8576   -4.4963    4.2507 H   0  0  0  0  0  0  0  0  0  0  0  0
    6.2244   -3.9941    0.5472 H   0  0  0  0  0  0  0  0  0  0  0  0
    7.0275   -5.2866    1.3751 H   0  0  0  0  0  0  0  0  0  0  0  0
    6.9888   -3.7036    2.0766 H   0  0  0  0  0  0  0  0  0  0  0  0
    5.1286   -2.7427    3.0902 H   0  0  0  0  0  0  0  0  0  0  0  0
    2.5817   -4.2223    3.5073 H   0  0  0  0  0  0  0  0  0  0  0  0
    3.7400   -3.7366    4.6824 H   0  0  0  0  0  0  0  0  0  0  0  0
    0.7344   -1.6286    5.2700 H   0  0  0  0  0  0  0  0  0  0  0  0
    1.7773   -2.8386    6.0163 H   0  0  0  0  0  0  0  0  0  0  0  0
    0.6888   -3.2957    4.7064 H   0  0  0  0  0  0  0  0  0  0  0  0
    2.7849   -0.1174    4.7051 H   0  0  0  0  0  0  0  0  0  0  0  0
    4.2126   -0.8512    3.9848 H   0  0  0  0  0  0  0  0  0  0  0  0
    3.7256   -1.3174    5.6009 H   0  0  0  0  0  0  0  0  0  0  0  0
    1.1703   -2.6103    2.3625 H   0  0  0  0  0  0  0  0  0  0  0  0
    1.0843   -0.9540    2.8823 H   0  0  0  0  0  0  0  0  0  0  0  0
    2.2558   -1.1149    0.7848 H   0  0  0  0  0  0  0  0  0  0  0  0
    3.2750   -0.4735    2.0005 H   0  0  0  0  0  0  0  0  0  0  0  0
    3.7792   -1.2211   -0.6888 H   0  0  0  0  0  0  0  0  0  0  0  0
    2.5040   -3.0399   -0.2687 H   0  0  0  0  0  0  0  0  0  0  0  0
    4.0981   -3.5590   -0.5735 H   0  0  0  0  0  0  0  0  0  0  0  0
    2.1521   -4.6370    1.4336 H   0  0  0  0  0  0  0  0  0  0  0  0
    2.4873   -5.3991   -0.0525 H   0  0  0  0  0  0  0  0  0  0  0  0
    5.0263   -5.4079   -0.6309 H   0  0  0  0  0  0  0  0  0  0  0  0
    4.2205   -6.9235   -0.4715 H   0  0  0  0  0  0  0  0  0  0  0  0
    5.7880   -6.6434    0.2544 H   0  0  0  0  0  0  0  0  0  0  0  0
    4.5346   -7.7204    4.5861 H   0  0  0  0  0  0  0  0  0  0  0  0
    5.0838   -9.3132    4.2340 H   0  0  0  0  0  0  0  0  0  0  0  0
    2.6961   -9.6521    1.5147 H   0  0  0  0  0  0  0  0  0  0  0  0
    3.8155  -11.2798    1.9872 H   0  0  0  0  0  0  0  0  0  0  0  0
  1  2  2  0
  1 35  1  0
  1 36  1  0
  2  3  1  0
  2 37  1  0
  3 33  1  0
  3  4  1  6
  3  5  1  0
  4 38  1  0
  4 39  1  0
  4 40  1  0
  5  6  1  0
  5 41  1  0
  5 42  1  0
  6  7  1  0
  6 43  1  0
  6 44  1  0
  7 30  1  0
  7  8  1  0
  7 45  1  6
  8 32  1  0
  8  9  1  6
  8 33  1  0
  9 10  1  0
  9 46  1  0
  9 47  1  0
 10 11  2  0
 10 12  1  0
 11 48  1  0
 11 49  1  0
 12 13  1  0
 12 32  1  0
 12 50  1  1
 13 14  1  0
 13 51  1  0
 13 52  1  0
 14 15  1  0
 14 53  1  0
 14 54  1  0
 15 30  1  0
 15 16  1  6
 15 17  1  0
 16 55  1  0
 16 56  1  0
 16 57  1  0
 17 24  1  0
 17 18  1  0
 17 58  1  1
 18 19  1  0
 18 59  1  0
 18 60  1  0
 19 20  1  0
 19 21  1  0
 19 22  1  0
 20 61  1  0
 20 62  1  0
 20 63  1  0
 21 64  1  0
 21 65  1  0
 21 66  1  0
 22 23  1  0
 22 67  1  0
 22 68  1  0
 23 24  1  0
 23 69  1  0
 23 70  1  0
 24 25  1  6
 24 28  1  0
 25 26  2  0
 25 27  1  0
 27 71  1  0
 28 29  1  0
 28 72  1  0
 28 73  1  0
 29 30  1  0
 29 74  1  0
 29 75  1  0
 30 31  1  6
 31 76  1  0
 31 77  1  0
 31 78  1  0
 32 79  1  0
 32 80  1  0
 33 34  1  0
 33 81  1  6
 34 82  1  0
M  END
>  <i_m_ct_stereo_status>  (342) 
1

>  <s_m_source_file>  (342) 
/var/tmp/pbs.5076255.sched01/tmpy8l6melh/117u1qm2xak.sdf

>  <i_m_source_file_index>  (342) 
34

>  <i_lp_mmshare_version>  (342) 
48012

>  <i_f3d_flags>  (342) 
0

>  <s_epik_input>  (342) 
W0NIMl09W0NIXVtDQF0oW0NIM10pKFtDQEBIXTFbT0hdKVtDSDJdW0NIMl1bQ0BIXShbQ0BAXTEyMylbQ0BdNChbQ0gzXSlbQ0BdKFtDSDNdKShbQ0gyXVtDSDJdW0NAQEhdKFtDSDJdMylDKFtDSDJdMik9W0NIMl0pW0NASF01W0NAQF0oQyg9TylbT0hdKShbQ0gyXVtDSDJdNClbQ0gyXVtDSDJdQyhbQ0gyXTUpKFtDSDNdKVtDSDNd

>  <s_epik_cmdline>  (342) 
J2VwaWtfcHl0aG9uJywgJy1waHQnLCAnMi4wJywgJy1waCcsICc3LjAnLCAnLXRuJywgJzgnLCAnLW1hJywgJzIwMCcsICctaW1hZScsICc8aW5maWxlLm1hZT4nLCAnLW9tYWUnLCAnPG91dGZpbGUubWFlPic=

>  <r_epik_Ionization_Penalty>  (342) 
2.46803

>  <r_epik_Ionization_Penalty_Charging>  (342) 
0

>  <r_epik_Ionization_Penalty_Neutral>  (342) 
2.46803

>  <r_epik_State_Penalty>  (342) 
2.63072

>  <r_epik_Charging_Adjusted_Penalty>  (342) 
2.63072

>  <i_epik_Tot_Q>  (342) 
0

>  <i_epik_Tot_abs_Q>  (342) 
0

>  <s_lp_Force_Field>  (342) 
OPLS3e

>  <r_lp_Energy>  (342) 
130.573

>  <b_lp_Chiralities_Consistent>  (342) 
1

>  <s_lp_Variant>  (342) 
107:0-2

>  <s_i_glide_gridfile>  (342) 
pfpi4k_grid

>  <i_i_glide_lignum>  (342) 
34

>  <i_i_glide_rotatable_bonds>  (342) 
4

>  <r_i_docking_score>  (342) 
-2.96833

>  <r_i_glide_ligand_efficiency>  (342) 
-0.0873039

>  <r_i_glide_ligand_efficiency_sa>  (342) 
-0.282831

>  <r_i_glide_ligand_efficiency_ln>  (342) 
-0.655788

>  <r_i_glide_gscore>  (342) 
-2.96833

>  <r_i_glide_lipo>  (342) 
-0.443021

>  <r_i_glide_hbond>  (342) 
-0.16

>  <r_i_glide_metal>  (342) 
-0

>  <r_i_glide_rewards>  (342) 
-0.286084

>  <r_i_glide_evdw>  (342) 
-31.7419

>  <r_i_glide_ecoul>  (342) 
-4.50636

>  <r_i_glide_erotb>  (342) 
0.183823

>  <r_i_glide_esite>  (342) 
0

>  <r_i_glide_emodel>  (342) 
-41.7934

>  <r_i_glide_energy>  (342) 
-36.2483

>  <r_i_glide_einternal>  (342) 
2.36406

>  <r_i_glide_intrahb_reward>  (342) 
-0

>  <i_i_glide_confnum>  (342) 
2

>  <i_i_glide_posenum>  (342) 
40

>  <r_i_glide_eff_state_penalty>  (342) 
0

>  <ligand_id>  (342) 
107

>  <original_smiles>  (342) 
C=CC1(C)CCC2C3(CC(=C)C(CCC4(C)C5CC(C)(C)CCC5(C(=O)O)CCC24C)C3)C1O

>  <smiles>  (342) 
[H]OC(=O)C12C([H])([H])C([H])([H])C(C([H])([H])[H])(C([H])([H])[H])C([H])([H])C1([H])C1(C([H])([H])[H])C([H])([H])C([H])([H])C3([H])C(=C([H])[H])C([H])([H])C4(C3([H])[H])C([H])(O[H])C(C([H])=C([H])[H])(C([H])([H])[H])C([H])([H])C([H])([H])C4([H])C1(C([H])([H])[H])C([H])([H])C2([H])[H]

$$$$
107:1:2
     RDKit          3D

 82 86  0  0  1  0  0  0  0  0999 V2000
    0.9491   -7.4656    5.6077 C   0  0  0  0  0  0  0  0  0  0  0  0
    0.9736   -8.4519    4.6914 C   0  0  0  0  0  0  0  0  0  0  0  0
    0.7866   -8.3357    3.1678 C   0  0  1  0  0  0  0  0  0  0  0  0
   -0.4640   -9.1654    2.7861 C   0  0  0  0  0  0  0  0  0  0  0  0
    0.4967   -6.8927    2.7184 C   0  0  0  0  0  0  0  0  0  0  0  0
    1.7250   -5.9760    2.7058 C   0  0  0  0  0  0  0  0  0  0  0  0
    2.8803   -6.5126    1.8091 C   0  0  2  0  0  0  0  0  0  0  0  0
    3.3206   -7.9554    2.3764 C   0  0  1  0  0  0  0  0  0  0  0  0
    4.4441   -8.6712    1.5712 C   0  0  0  0  0  0  0  0  0  0  0  0
    5.7525   -8.2408    2.1942 C   0  0  0  0  0  0  0  0  0  0  0  0
    6.9619   -8.3279    1.6201 C   0  0  0  0  0  0  0  0  0  0  0  0
    5.4835   -7.7472    3.5899 C   0  0  1  0  0  0  0  0  0  0  0  0
    6.0060   -6.3303    3.8828 C   0  0  0  0  0  0  0  0  0  0  0  0
    5.0858   -5.1245    3.5743 C   0  0  0  0  0  0  0  0  0  0  0  0
    4.8961   -4.5526    2.1289 C   0  0  2  0  0  0  0  0  0  0  0  0
    6.3262   -4.5039    1.5080 C   0  0  0  0  0  0  0  0  0  0  0  0
    4.4468   -3.0193    2.3153 C   0  0  2  0  0  0  0  0  0  0  0  0
    3.2688   -2.8398    3.3325 C   0  0  0  0  0  0  0  0  0  0  0  0
    2.6728   -1.4308    3.4800 C   0  0  0  0  0  0  0  0  0  0  0  0
    1.4383   -1.4841    4.4060 C   0  0  0  0  0  0  0  0  0  0  0  0
    3.6996   -0.4554    4.1022 C   0  0  0  0  0  0  0  0  0  0  0  0
    2.2191   -0.9988    2.0830 C   0  0  0  0  0  0  0  0  0  0  0  0
    3.4030   -0.8878    1.1266 C   0  0  0  0  0  0  0  0  0  0  0  0
    4.2832   -2.1758    0.9632 C   0  0  1  0  0  0  0  0  0  0  0  0
    5.6307   -1.5796    0.4594 C   0  0  0  0  0  0  0  0  0  0  0  0
    5.9562   -1.5008   -0.7245 O   0  0  0  0  0  0  0  0  0  0  0  0
    6.3712   -1.0495    1.4712 O   0  0  0  0  0  0  0  0  0  0  0  0
    3.6824   -3.0979   -0.1434 C   0  0  0  0  0  0  0  0  0  0  0  0
    2.9775   -4.3474    0.3993 C   0  0  0  0  0  0  0  0  0  0  0  0
    3.8729   -5.3845    1.1784 C   0  0  2  0  0  0  0  0  0  0  0  0
    4.6114   -6.0537   -0.0170 C   0  0  0  0  0  0  0  0  0  0  0  0
    3.9764   -7.9323    3.7852 C   0  0  0  0  0  0  0  0  0  0  0  0
    2.0265   -8.8653    2.3697 C   0  0  1  0  0  0  0  0  0  0  0  0
    2.2861  -10.2034    2.7782 O   0  0  0  0  0  0  0  0  0  0  0  0
    0.7833   -6.4352    5.3407 H   0  0  0  0  0  0  0  0  0  0  0  0
    1.1008   -7.6753    6.6570 H   0  0  0  0  0  0  0  0  0  0  0  0
    1.1372   -9.4600    5.0484 H   0  0  0  0  0  0  0  0  0  0  0  0
   -0.6764   -9.0809    1.7178 H   0  0  0  0  0  0  0  0  0  0  0  0
   -1.3517   -8.8280    3.3215 H   0  0  0  0  0  0  0  0  0  0  0  0
   -0.3376  -10.2261    3.0090 H   0  0  0  0  0  0  0  0  0  0  0  0
    0.0768   -6.9058    1.7093 H   0  0  0  0  0  0  0  0  0  0  0  0
   -0.2814   -6.4581    3.3466 H   0  0  0  0  0  0  0  0  0  0  0  0
    1.2966   -5.0423    2.3720 H   0  0  0  0  0  0  0  0  0  0  0  0
    2.0828   -5.7825    3.7103 H   0  0  0  0  0  0  0  0  0  0  0  0
    2.3420   -6.8023    0.9049 H   0  0  0  0  0  0  0  0  0  0  0  0
    4.4385   -9.7480    1.7315 H   0  0  0  0  0  0  0  0  0  0  0  0
    4.3899   -8.5668    0.4927 H   0  0  0  0  0  0  0  0  0  0  0  0
    7.0708   -8.7234    0.6223 H   0  0  0  0  0  0  0  0  0  0  0  0
    7.8516   -8.0013    2.1415 H   0  0  0  0  0  0  0  0  0  0  0  0
    6.0121   -8.4308    4.2567 H   0  0  0  0  0  0  0  0  0  0  0  0
    6.1434   -6.2957    4.9628 H   0  0  0  0  0  0  0  0  0  0  0  0
    7.0157   -6.1899    3.4983 H   0  0  0  0  0  0  0  0  0  0  0  0
    4.1253   -5.2657    4.0493 H   0  0  0  0  0  0  0  0  0  0  0  0
    5.5422   -4.3241    4.1566 H   0  0  0  0  0  0  0  0  0  0  0  0
    6.3421   -4.1209    0.4930 H   0  0  0  0  0  0  0  0  0  0  0  0
    6.8072   -5.4760    1.4626 H   0  0  0  0  0  0  0  0  0  0  0  0
    6.9924   -3.8578    2.0775 H   0  0  0  0  0  0  0  0  0  0  0  0
    5.2618   -2.5652    2.8749 H   0  0  0  0  0  0  0  0  0  0  0  0
    2.4555   -3.4899    3.0646 H   0  0  0  0  0  0  0  0  0  0  0  0
    3.5699   -3.1551    4.3284 H   0  0  0  0  0  0  0  0  0  0  0  0
    0.9844   -0.4956    4.5094 H   0  0  0  0  0  0  0  0  0  0  0  0
    1.7029   -1.8286    5.4084 H   0  0  0  0  0  0  0  0  0  0  0  0
    0.6715   -2.1571    4.0162 H   0  0  0  0  0  0  0  0  0  0  0  0
    3.3217    0.5703    4.0974 H   0  0  0  0  0  0  0  0  0  0  0  0
    4.6471   -0.4578    3.5621 H   0  0  0  0  0  0  0  0  0  0  0  0
    3.9265   -0.7273    5.1361 H   0  0  0  0  0  0  0  0  0  0  0  0
    1.5001   -1.7119    1.6836 H   0  0  0  0  0  0  0  0  0  0  0  0
    1.6863   -0.0486    2.1326 H   0  0  0  0  0  0  0  0  0  0  0  0
    3.0167   -0.5740    0.1578 H   0  0  0  0  0  0  0  0  0  0  0  0
    4.0037   -0.0366    1.4525 H   0  0  0  0  0  0  0  0  0  0  0  0
    7.1528   -0.6052    1.1760 H   0  0  0  0  0  0  0  0  0  0  0  0
    2.9538   -2.5501   -0.7357 H   0  0  0  0  0  0  0  0  0  0  0  0
    4.4222   -3.3952   -0.8794 H   0  0  0  0  0  0  0  0  0  0  0  0
    2.1696   -3.9349    0.9781 H   0  0  0  0  0  0  0  0  0  0  0  0
    2.4753   -4.8471   -0.4278 H   0  0  0  0  0  0  0  0  0  0  0  0
    5.0252   -5.3595   -0.7426 H   0  0  0  0  0  0  0  0  0  0  0  0
    3.9408   -6.6771   -0.5972 H   0  0  0  0  0  0  0  0  0  0  0  0
    5.4572   -6.6620    0.2659 H   0  0  0  0  0  0  0  0  0  0  0  0
    3.5360   -7.2465    4.5004 H   0  0  0  0  0  0  0  0  0  0  0  0
    3.8575   -8.9090    4.2567 H   0  0  0  0  0  0  0  0  0  0  0  0
    1.7204   -8.9501    1.3241 H   0  0  0  0  0  0  0  0  0  0  0  0
    2.8430  -10.6207    2.1371 H   0  0  0  0  0  0  0  0  0  0  0  0
  1  2  2  0
  1 35  1  0
  1 36  1  0
  2  3  1  0
  2 37  1  0
  3 33  1  0
  3  4  1  6
  3  5  1  0
  4 38  1  0
  4 39  1  0
  4 40  1  0
  5  6  1  0
  5 41  1  0
  5 42  1  0
  6  7  1  0
  6 43  1  0
  6 44  1  0
  7 30  1  0
  7  8  1  0
  7 45  1  6
  8 32  1  0
  8  9  1  6
  8 33  1  0
  9 10  1  0
  9 46  1  0
  9 47  1  0
 10 11  2  0
 10 12  1  0
 11 48  1  0
 11 49  1  0
 12 13  1  0
 12 32  1  0
 12 50  1  1
 13 14  1  0
 13 51  1  0
 13 52  1  0
 14 15  1  0
 14 53  1  0
 14 54  1  0
 15 30  1  0
 15 16  1  6
 15 17  1  0
 16 55  1  0
 16 56  1  0
 16 57  1  0
 17 24  1  0
 17 18  1  0
 17 58  1  1
 18 19  1  0
 18 59  1  0
 18 60  1  0
 19 20  1  0
 19 21  1  0
 19 22  1  0
 20 61  1  0
 20 62  1  0
 20 63  1  0
 21 64  1  0
 21 65  1  0
 21 66  1  0
 22 23  1  0
 22 67  1  0
 22 68  1  0
 23 24  1  0
 23 69  1  0
 23 70  1  0
 24 25  1  6
 24 28  1  0
 25 26  2  0
 25 27  1  0
 27 71  1  0
 28 29  1  0
 28 72  1  0
 28 73  1  0
 29 30  1  0
 29 74  1  0
 29 75  1  0
 30 31  1  6
 31 76  1  0
 31 77  1  0
 31 78  1  0
 32 79  1  0
 32 80  1  0
 33 34  1  0
 33 81  1  6
 34 82  1  0
M  END
>  <i_m_ct_stereo_status>  (343) 
1

>  <s_m_source_file>  (343) 
/var/tmp/pbs.5076255.sched01/tmpy8l6melh/117u1qm2xak.sdf

>  <i_m_source_file_index>  (343) 
34

>  <i_lp_mmshare_version>  (343) 
48012

>  <i_f3d_flags>  (343) 
0

>  <s_epik_input>  (343) 
W0NIMl09W0NIXVtDQF0oW0NIM10pKFtDQEBIXTFbT0hdKVtDSDJdW0NIMl1bQ0BIXShbQ0BAXTEyMylbQ0BdNChbQ0gzXSlbQ0BdKFtDSDNdKShbQ0gyXVtDSDJdW0NAQEhdKFtDSDJdMylDKFtDSDJdMik9W0NIMl0pW0NASF01W0NAQF0oQyg9TylbT0hdKShbQ0gyXVtDSDJdNClbQ0gyXVtDSDJdQyhbQ0gyXTUpKFtDSDNdKVtDSDNd

>  <s_epik_cmdline>  (343) 
J2VwaWtfcHl0aG9uJywgJy1waHQnLCAnMi4wJywgJy1waCcsICc3LjAnLCAnLXRuJywgJzgnLCAnLW1hJywgJzIwMCcsICctaW1hZScsICc8aW5maWxlLm1hZT4nLCAnLW9tYWUnLCAnPG91dGZpbGUubWFlPic=

>  <r_epik_Ionization_Penalty>  (343) 
2.46803

>  <r_epik_Ionization_Penalty_Charging>  (343) 
0

>  <r_epik_Ionization_Penalty_Neutral>  (343) 
2.46803

>  <r_epik_State_Penalty>  (343) 
2.63072

>  <r_epik_Charging_Adjusted_Penalty>  (343) 
2.63072

>  <i_epik_Tot_Q>  (343) 
0

>  <i_epik_Tot_abs_Q>  (343) 
0

>  <s_lp_Force_Field>  (343) 
OPLS3e

>  <r_lp_Energy>  (343) 
130.573

>  <b_lp_Chiralities_Consistent>  (343) 
1

>  <s_lp_Variant>  (343) 
107:0-2

>  <s_i_glide_gridfile>  (343) 
pfpi4k_grid

>  <i_i_glide_lignum>  (343) 
34

>  <i_i_glide_rotatable_bonds>  (343) 
4

>  <r_i_docking_score>  (343) 
-2.81572

>  <r_i_glide_ligand_efficiency>  (343) 
-0.0828153

>  <r_i_glide_ligand_efficiency_sa>  (343) 
-0.268289

>  <r_i_glide_ligand_efficiency_ln>  (343) 
-0.622071

>  <r_i_glide_gscore>  (343) 
-2.81572

>  <r_i_glide_lipo>  (343) 
-0.396041

>  <r_i_glide_hbond>  (343) 
-0.0570175

>  <r_i_glide_metal>  (343) 
-0

>  <r_i_glide_rewards>  (343) 
-0.324481

>  <r_i_glide_evdw>  (343) 
-34.021

>  <r_i_glide_ecoul>  (343) 
-3.473

>  <r_i_glide_erotb>  (343) 
0.183823

>  <r_i_glide_esite>  (343) 
0

>  <r_i_glide_emodel>  (343) 
-43.049

>  <r_i_glide_energy>  (343) 
-37.494

>  <r_i_glide_einternal>  (343) 
2.00767

>  <r_i_glide_intrahb_reward>  (343) 
-0

>  <i_i_glide_confnum>  (343) 
2

>  <i_i_glide_posenum>  (343) 
34

>  <r_i_glide_eff_state_penalty>  (343) 
0

>  <ligand_id>  (343) 
107

>  <original_smiles>  (343) 
C=CC1(C)CCC2C3(CC(=C)C(CCC4(C)C5CC(C)(C)CCC5(C(=O)O)CCC24C)C3)C1O

>  <smiles>  (343) 
[H]OC(=O)C12C([H])([H])C([H])([H])C(C([H])([H])[H])(C([H])([H])[H])C([H])([H])C1([H])C1(C([H])([H])[H])C([H])([H])C([H])([H])C3([H])C(=C([H])[H])C([H])([H])C4(C3([H])[H])C([H])(O[H])C(C([H])=C([H])[H])(C([H])([H])[H])C([H])([H])C([H])([H])C4([H])C1(C([H])([H])[H])C([H])([H])C2([H])[H]

$$$$
109:0:0
     RDKit          3D

 60 65  0  0  1  0  0  0  0  0999 V2000
    4.6484   -3.7310   -3.3356 C   0  0  0  0  0  0  0  0  0  0  0  0
    4.3028   -2.3390   -3.4618 N   0  0  0  0  0  0  0  0  0  0  0  0
    3.8052   -1.8552   -4.6247 N   0  0  0  0  0  0  0  0  0  0  0  0
    3.5703   -0.5689   -4.4359 C   0  0  0  0  0  0  0  0  0  0  0  0
    3.9517   -0.1534   -3.1229 C   0  0  0  0  0  0  0  0  0  0  0  0
    4.3328   -1.3140   -2.5580 C   0  0  0  0  0  0  0  0  0  0  0  0
    4.7849   -1.4402   -1.1445 C   0  0  0  0  0  0  0  0  0  0  0  0
    5.9527   -1.7047   -0.8797 O   0  0  0  0  0  0  0  0  0  0  0  0
    3.8117   -1.3039   -0.2436 N   0  0  0  0  0  0  0  0  0  0  0  0
    3.9872   -1.4480    1.1989 C   0  0  2  0  0  0  0  0  0  0  0  0
    2.6899   -2.0017    1.8461 C   0  0  0  0  0  0  0  0  0  0  0  0
    2.6857   -1.7842    3.3785 C   0  0  1  0  0  0  0  0  0  0  0  0
    3.9298   -2.3698    4.0555 C   0  0  0  0  0  0  0  0  0  0  0  0
    4.9557   -1.2193    4.0300 C   0  0  0  0  0  0  0  0  0  0  0  0
    4.2248   -0.0583    3.3419 C   0  0  1  0  0  0  0  0  0  0  0  0
    4.4278   -0.0925    1.8081 C   0  0  0  0  0  0  0  0  0  0  0  0
    2.8127   -0.3418    3.6693 N   0  0  1  0  0  0  0  0  0  0  0  0
    1.7530    0.5832    3.1847 C   0  0  2  0  0  0  0  0  0  0  0  0
    1.9631    2.0051    3.7645 C   0  0  1  0  0  0  0  0  0  0  0  0
    0.8997    2.9426    3.1923 C   0  0  0  0  0  0  0  0  0  0  0  0
   -0.5026    2.4515    3.6083 C   0  0  2  0  0  0  0  0  0  0  0  0
   -0.6005    2.4072    5.1532 C   0  0  0  0  0  0  0  0  0  0  0  0
    0.4834    1.4653    5.7197 C   0  0  2  0  0  0  0  0  0  0  0  0
    1.8781    1.9877    5.3030 C   0  0  0  0  0  0  0  0  0  0  0  0
    0.2489    0.0452    5.1555 C   0  0  0  0  0  0  0  0  0  0  0  0
    0.3449    0.0906    3.6086 C   0  0  1  0  0  0  0  0  0  0  0  0
   -0.7314    1.0356    3.0458 C   0  0  0  0  0  0  0  0  0  0  0  0
    5.6342   -3.8440   -2.8980 H   0  0  0  0  0  0  0  0  0  0  0  0
    4.6333   -4.2211   -4.3075 H   0  0  0  0  0  0  0  0  0  0  0  0
    3.9241   -4.2054   -2.6875 H   0  0  0  0  0  0  0  0  0  0  0  0
    3.1743    0.0203   -5.2428 H   0  0  0  0  0  0  0  0  0  0  0  0
    3.9278    0.8417   -2.7288 H   0  0  0  0  0  0  0  0  0  0  0  0
    2.8694   -1.1186   -0.5824 H   0  0  0  0  0  0  0  0  0  0  0  0
    4.7722   -2.1780    1.4007 H   0  0  0  0  0  0  0  0  0  0  0  0
    1.8182   -1.5241    1.4000 H   0  0  0  0  0  0  0  0  0  0  0  0
    2.5837   -3.0640    1.6241 H   0  0  0  0  0  0  0  0  0  0  0  0
    1.7992   -2.2273    3.8279 H   0  0  0  0  0  0  0  0  0  0  0  0
    3.6956   -2.6248    5.0910 H   0  0  0  0  0  0  0  0  0  0  0  0
    4.2796   -3.2779    3.5697 H   0  0  0  0  0  0  0  0  0  0  0  0
    5.2221   -0.9374    5.0506 H   0  0  0  0  0  0  0  0  0  0  0  0
    5.8668   -1.4910    3.5087 H   0  0  0  0  0  0  0  0  0  0  0  0
    4.5649    0.8932    3.7488 H   0  0  0  0  0  0  0  0  0  0  0  0
    5.4739    0.1025    1.5616 H   0  0  0  0  0  0  0  0  0  0  0  0
    3.8635    0.7174    1.3463 H   0  0  0  0  0  0  0  0  0  0  0  0
    1.7566    0.6574    2.0970 H   0  0  0  0  0  0  0  0  0  0  0  0
    2.9251    2.4152    3.4447 H   0  0  0  0  0  0  0  0  0  0  0  0
    1.0603    3.9726    3.5106 H   0  0  0  0  0  0  0  0  0  0  0  0
    0.9969    2.9257    2.1110 H   0  0  0  0  0  0  0  0  0  0  0  0
   -1.2616    3.1299    3.2031 H   0  0  0  0  0  0  0  0  0  0  0  0
   -0.4782    3.4083    5.5701 H   0  0  0  0  0  0  0  0  0  0  0  0
   -1.5889    2.0502    5.4495 H   0  0  0  0  0  0  0  0  0  0  0  0
    0.4212    1.4429    6.8132 H   0  0  0  0  0  0  0  0  0  0  0  0
    2.6602    1.3628    5.7370 H   0  0  0  0  0  0  0  0  0  0  0  0
    2.0461    2.9865    5.7053 H   0  0  0  0  0  0  0  0  0  0  0  0
    0.9802   -0.6444    5.5817 H   0  0  0  0  0  0  0  0  0  0  0  0
   -0.7247   -0.3329    5.4601 H   0  0  0  0  0  0  0  0  0  0  0  0
    0.1248   -0.8918    3.1869 H   0  0  0  0  0  0  0  0  0  0  0  0
   -1.7234    0.6773    3.3149 H   0  0  0  0  0  0  0  0  0  0  0  0
   -0.6908    1.0506    1.9539 H   0  0  0  0  0  0  0  0  0  0  0  0
    2.7761   -0.2835    4.6743 H   0  0  0  0  0  0  0  0  0  0  0  0
  1  2  1  0
  1 28  1  0
  1 29  1  0
  1 30  1  0
  2  6  1  0
  2  3  1  0
  3  4  2  0
  4  5  1  0
  4 31  1  0
  5  6  2  0
  5 32  1  0
  6  7  1  0
  7  8  2  0
  7  9  1  0
  9 10  1  0
  9 33  1  0
 10 16  1  0
 10 11  1  0
 10 34  1  6
 11 12  1  0
 11 35  1  0
 11 36  1  0
 12 17  1  0
 12 13  1  0
 12 37  1  1
 13 14  1  0
 13 38  1  0
 13 39  1  0
 14 15  1  0
 14 40  1  0
 14 41  1  0
 15 16  1  0
 15 17  1  0
 15 42  1  1
 16 43  1  0
 16 44  1  0
 17 18  1  0
 17 60  1  1
 18 26  1  0
 18 19  1  0
 18 45  1  6
 19 24  1  0
 19 20  1  0
 19 46  1  1
 20 21  1  0
 20 47  1  0
 20 48  1  0
 21 27  1  0
 21 22  1  0
 21 49  1  6
 22 23  1  0
 22 50  1  0
 22 51  1  0
 23 24  1  0
 23 25  1  0
 23 52  1  1
 24 53  1  0
 24 54  1  0
 25 26  1  0
 25 55  1  0
 25 56  1  0
 26 27  1  0
 26 57  1  6
 27 58  1  0
 27 59  1  0
M  CHG  1  17   1
M  END
>  <i_m_ct_stereo_status>  (344) 
1

>  <s_m_source_file>  (344) 
/var/tmp/pbs.5076255.sched01/tmpy8l6melh/117u1qm2xak.sdf

>  <i_m_source_file_index>  (344) 
36

>  <i_lp_mmshare_version>  (344) 
48012

>  <i_f3d_flags>  (344) 
0

>  <s_epik_input>  (344) 
W0NIM11uMW5bY0hdW2NIXWMxQyg9TylbTkhdW0NASF0oW0NIMl1bQ0BASF0yMylbQ0gyXVtDQEhdKFtDSDJdW0NIMl0yKU4zW0NASF0oW0NAQEhdNDUpW0NASF02W0NIMl1bQ0BASF0oW0NIMl01KVtDSDJdW0NAQEhdKFtDSDJdNClbQ0gyXTY=

>  <s_epik_cmdline>  (344) 
J2VwaWtfcHl0aG9uJywgJy1waHQnLCAnMi4wJywgJy1waCcsICc3LjAnLCAnLXRuJywgJzgnLCAnLW1hJywgJzIwMCcsICctaW1hZScsICc8aW5maWxlLm1hZT4nLCAnLW9tYWUnLCAnPG91dGZpbGUubWFlPic=

>  <r_lp_tautomer_probability>  (344) 
1

>  <r_epik_Ionization_Penalty>  (344) 
0.000501495

>  <r_epik_Ionization_Penalty_Charging>  (344) 
0.000498239

>  <r_epik_Ionization_Penalty_Neutral>  (344) 
3.25554e-06

>  <r_epik_State_Penalty>  (344) 
0.000309907

>  <r_epik_Charging_Adjusted_Penalty>  (344) 
0.000808146

>  <i_epik_Tot_Q>  (344) 
1

>  <i_epik_Tot_abs_Q>  (344) 
1

>  <s_lp_Force_Field>  (344) 
OPLS3e

>  <r_lp_Energy>  (344) 
29.836

>  <b_lp_Chiralities_Consistent>  (344) 
1

>  <s_lp_Variant>  (344) 
109:0-1

>  <s_i_glide_gridfile>  (344) 
pfpi4k_grid

>  <i_i_glide_lignum>  (344) 
36

>  <i_i_glide_rotatable_bonds>  (344) 
4

>  <r_i_docking_score>  (344) 
-4.48277

>  <r_i_glide_ligand_efficiency>  (344) 
-0.166028

>  <r_i_glide_ligand_efficiency_sa>  (344) 
-0.498085

>  <r_i_glide_ligand_efficiency_ln>  (344) 
-1.04351

>  <r_i_glide_gscore>  (344) 
-4.48277

>  <r_i_glide_lipo>  (344) 
-0.588354

>  <r_i_glide_hbond>  (344) 
-0.468075

>  <r_i_glide_metal>  (344) 
-0

>  <r_i_glide_rewards>  (344) 
-1.09385

>  <r_i_glide_evdw>  (344) 
-23.5347

>  <r_i_glide_ecoul>  (344) 
-10.7627

>  <r_i_glide_erotb>  (344) 
0.564841

>  <r_i_glide_esite>  (344) 
-0.106177

>  <r_i_glide_emodel>  (344) 
-42.0409

>  <r_i_glide_energy>  (344) 
-34.2975

>  <r_i_glide_einternal>  (344) 
4.56789

>  <r_i_glide_intrahb_reward>  (344) 
-0

>  <i_i_glide_confnum>  (344) 
1

>  <i_i_glide_posenum>  (344) 
2

>  <r_i_glide_eff_state_penalty>  (344) 
0

>  <ligand_id>  (344) 
109

>  <original_smiles>  (344) 
Cn1nccc1C(=O)NC1CC2CCC(C1)N2C1C2CC3CC(C2)CC1C3

>  <smiles>  (344) 
[H]c1nn(C([H])([H])[H])c(C(=O)N([H])C2([H])C([H])([H])C3([H])C([H])([H])C([H])([H])C([H])(C2([H])[H])[N+]3([H])C2([H])C3([H])C([H])([H])C4([H])C([H])([H])C([H])(C3([H])[H])C([H])([H])C2([H])C4([H])[H])c1[H]

$$$$
109:0:1
     RDKit          3D

 60 65  0  0  1  0  0  0  0  0999 V2000
    4.8465   -0.5603   -2.1248 C   0  0  0  0  0  0  0  0  0  0  0  0
    3.8530   -1.5434   -2.4341 N   0  0  0  0  0  0  0  0  0  0  0  0
    3.1061   -1.4252   -3.5558 N   0  0  0  0  0  0  0  0  0  0  0  0
    2.2871   -2.4771   -3.5447 C   0  0  0  0  0  0  0  0  0  0  0  0
    2.4804   -3.3162   -2.4010 C   0  0  0  0  0  0  0  0  0  0  0  0
    3.5220   -2.7180   -1.7979 C   0  0  0  0  0  0  0  0  0  0  0  0
    4.1521   -3.2396   -0.5382 C   0  0  0  0  0  0  0  0  0  0  0  0
    4.8711   -2.5252    0.1522 O   0  0  0  0  0  0  0  0  0  0  0  0
    3.9844   -4.5423   -0.3047 N   0  0  0  0  0  0  0  0  0  0  0  0
    4.6435   -5.2814    0.7815 C   0  0  2  0  0  0  0  0  0  0  0  0
    4.4274   -6.7997    0.5822 C   0  0  0  0  0  0  0  0  0  0  0  0
    4.7313   -7.6049    1.8660 C   0  0  1  0  0  0  0  0  0  0  0  0
    6.1444   -7.3244    2.3936 C   0  0  0  0  0  0  0  0  0  0  0  0
    5.9689   -6.1171    3.3353 C   0  0  0  0  0  0  0  0  0  0  0  0
    4.4664   -5.8019    3.2868 C   0  0  1  0  0  0  0  0  0  0  0  0
    4.1408   -4.7920    2.1676 C   0  0  0  0  0  0  0  0  0  0  0  0
    3.8711   -7.1158    2.9639 N   0  0  1  0  0  0  0  0  0  0  0  0
    2.3858   -7.2303    2.8256 C   0  0  2  0  0  0  0  0  0  0  0  0
    1.6736   -6.7897    4.1278 C   0  0  1  0  0  0  0  0  0  0  0  0
    0.1541   -6.8533    3.9356 C   0  0  0  0  0  0  0  0  0  0  0  0
   -0.2492   -8.3079    3.6300 C   0  0  2  0  0  0  0  0  0  0  0  0
    0.1934   -9.2317    4.7901 C   0  0  0  0  0  0  0  0  0  0  0  0
    1.7206   -9.1486    4.9839 C   0  0  2  0  0  0  0  0  0  0  0  0
    2.1020   -7.6884    5.3085 C   0  0  0  0  0  0  0  0  0  0  0  0
    2.4109   -9.6135    3.6803 C   0  0  0  0  0  0  0  0  0  0  0  0
    1.9720   -8.6873    2.5166 C   0  0  1  0  0  0  0  0  0  0  0  0
    0.4479   -8.7672    2.3367 C   0  0  0  0  0  0  0  0  0  0  0  0
    4.7778   -0.2592   -1.0866 H   0  0  0  0  0  0  0  0  0  0  0  0
    4.7102    0.3186   -2.7406 H   0  0  0  0  0  0  0  0  0  0  0  0
    5.8156   -1.0016   -2.3069 H   0  0  0  0  0  0  0  0  0  0  0  0
    1.5575   -2.5730   -4.3285 H   0  0  0  0  0  0  0  0  0  0  0  0
    1.9368   -4.2087   -2.1356 H   0  0  0  0  0  0  0  0  0  0  0  0
    3.4530   -5.0716   -0.9887 H   0  0  0  0  0  0  0  0  0  0  0  0
    5.7159   -5.0971    0.7193 H   0  0  0  0  0  0  0  0  0  0  0  0
    3.4051   -6.9830    0.2806 H   0  0  0  0  0  0  0  0  0  0  0  0
    5.0128   -7.1682   -0.2504 H   0  0  0  0  0  0  0  0  0  0  0  0
    4.6214   -8.6764    1.6912 H   0  0  0  0  0  0  0  0  0  0  0  0
    6.4885   -8.1871    2.9663 H   0  0  0  0  0  0  0  0  0  0  0  0
    6.8583   -7.1570    1.5898 H   0  0  0  0  0  0  0  0  0  0  0  0
    6.2410   -6.4042    4.3511 H   0  0  0  0  0  0  0  0  0  0  0  0
    6.5836   -5.2631    3.0576 H   0  0  0  0  0  0  0  0  0  0  0  0
    4.1394   -5.4136    4.2511 H   0  0  0  0  0  0  0  0  0  0  0  0
    4.5839   -3.8274    2.4207 H   0  0  0  0  0  0  0  0  0  0  0  0
    3.0655   -4.6143    2.1268 H   0  0  0  0  0  0  0  0  0  0  0  0
    2.0089   -6.6057    2.0195 H   0  0  0  0  0  0  0  0  0  0  0  0
    1.8893   -5.7493    4.3588 H   0  0  0  0  0  0  0  0  0  0  0  0
   -0.3672   -6.4893    4.8221 H   0  0  0  0  0  0  0  0  0  0  0  0
   -0.1373   -6.2059    3.1098 H   0  0  0  0  0  0  0  0  0  0  0  0
   -1.3348   -8.3772    3.5035 H   0  0  0  0  0  0  0  0  0  0  0  0
   -0.3191   -8.9580    5.7145 H   0  0  0  0  0  0  0  0  0  0  0  0
   -0.0862  -10.2616    4.5615 H   0  0  0  0  0  0  0  0  0  0  0  0
    2.0218   -9.7990    5.8122 H   0  0  0  0  0  0  0  0  0  0  0  0
    3.1735   -7.6187    5.5010 H   0  0  0  0  0  0  0  0  0  0  0  0
    1.6228   -7.3675    6.2349 H   0  0  0  0  0  0  0  0  0  0  0  0
    3.4945   -9.6105    3.8130 H   0  0  0  0  0  0  0  0  0  0  0  0
    2.1522  -10.6495    3.4566 H   0  0  0  0  0  0  0  0  0  0  0  0
    2.3918   -9.0422    1.5740 H   0  0  0  0  0  0  0  0  0  0  0  0
    0.1580   -9.7925    2.1044 H   0  0  0  0  0  0  0  0  0  0  0  0
    0.1346   -8.1512    1.4918 H   0  0  0  0  0  0  0  0  0  0  0  0
    4.1224   -7.6975    3.7486 H   0  0  0  0  0  0  0  0  0  0  0  0
  1  2  1  0
  1 28  1  0
  1 29  1  0
  1 30  1  0
  2  6  1  0
  2  3  1  0
  3  4  2  0
  4  5  1  0
  4 31  1  0
  5  6  2  0
  5 32  1  0
  6  7  1  0
  7  8  2  0
  7  9  1  0
  9 10  1  0
  9 33  1  0
 10 16  1  0
 10 11  1  0
 10 34  1  1
 11 12  1  0
 11 35  1  0
 11 36  1  0
 12 17  1  0
 12 13  1  0
 12 37  1  6
 13 14  1  0
 13 38  1  0
 13 39  1  0
 14 15  1  0
 14 40  1  0
 14 41  1  0
 15 16  1  0
 15 17  1  0
 15 42  1  1
 16 43  1  0
 16 44  1  0
 17 18  1  0
 17 60  1  1
 18 26  1  0
 18 19  1  0
 18 45  1  6
 19 24  1  0
 19 20  1  0
 19 46  1  1
 20 21  1  0
 20 47  1  0
 20 48  1  0
 21 27  1  0
 21 22  1  0
 21 49  1  6
 22 23  1  0
 22 50  1  0
 22 51  1  0
 23 24  1  0
 23 25  1  0
 23 52  1  1
 24 53  1  0
 24 54  1  0
 25 26  1  0
 25 55  1  0
 25 56  1  0
 26 27  1  0
 26 57  1  6
 27 58  1  0
 27 59  1  0
M  CHG  1  17   1
M  END
>  <i_m_ct_stereo_status>  (345) 
1

>  <s_m_source_file>  (345) 
/var/tmp/pbs.5076255.sched01/tmpy8l6melh/117u1qm2xak.sdf

>  <i_m_source_file_index>  (345) 
36

>  <i_lp_mmshare_version>  (345) 
48012

>  <i_f3d_flags>  (345) 
0

>  <s_epik_input>  (345) 
W0NIM11uMW5bY0hdW2NIXWMxQyg9TylbTkhdW0NASF0oW0NIMl1bQ0BASF0yMylbQ0gyXVtDQEhdKFtDSDJdW0NIMl0yKU4zW0NASF0oW0NAQEhdNDUpW0NASF02W0NIMl1bQ0BASF0oW0NIMl01KVtDSDJdW0NAQEhdKFtDSDJdNClbQ0gyXTY=

>  <s_epik_cmdline>  (345) 
J2VwaWtfcHl0aG9uJywgJy1waHQnLCAnMi4wJywgJy1waCcsICc3LjAnLCAnLXRuJywgJzgnLCAnLW1hJywgJzIwMCcsICctaW1hZScsICc8aW5maWxlLm1hZT4nLCAnLW9tYWUnLCAnPG91dGZpbGUubWFlPic=

>  <r_lp_tautomer_probability>  (345) 
1

>  <r_epik_Ionization_Penalty>  (345) 
0.000501495

>  <r_epik_Ionization_Penalty_Charging>  (345) 
0.000498239

>  <r_epik_Ionization_Penalty_Neutral>  (345) 
3.25554e-06

>  <r_epik_State_Penalty>  (345) 
0.000309907

>  <r_epik_Charging_Adjusted_Penalty>  (345) 
0.000808146

>  <i_epik_Tot_Q>  (345) 
1

>  <i_epik_Tot_abs_Q>  (345) 
1

>  <s_lp_Force_Field>  (345) 
OPLS3e

>  <r_lp_Energy>  (345) 
29.836

>  <b_lp_Chiralities_Consistent>  (345) 
1

>  <s_lp_Variant>  (345) 
109:0-1

>  <s_i_glide_gridfile>  (345) 
pfpi4k_grid

>  <i_i_glide_lignum>  (345) 
36

>  <i_i_glide_rotatable_bonds>  (345) 
4

>  <r_i_docking_score>  (345) 
-3.39372

>  <r_i_glide_ligand_efficiency>  (345) 
-0.125693

>  <r_i_glide_ligand_efficiency_sa>  (345) 
-0.37708

>  <r_i_glide_ligand_efficiency_ln>  (345) 
-0.790003

>  <r_i_glide_gscore>  (345) 
-3.39372

>  <r_i_glide_lipo>  (345) 
-0.660884

>  <r_i_glide_hbond>  (345) 
-0.32

>  <r_i_glide_metal>  (345) 
-0

>  <r_i_glide_rewards>  (345) 
-0.936902

>  <r_i_glide_evdw>  (345) 
-24.7131

>  <r_i_glide_ecoul>  (345) 
-4.91259

>  <r_i_glide_erotb>  (345) 
0.564841

>  <r_i_glide_esite>  (345) 
-0.0682335

>  <r_i_glide_emodel>  (345) 
-36.7264

>  <r_i_glide_energy>  (345) 
-29.6257

>  <r_i_glide_einternal>  (345) 
0.979625

>  <r_i_glide_intrahb_reward>  (345) 
-0

>  <i_i_glide_confnum>  (345) 
4

>  <i_i_glide_posenum>  (345) 
39

>  <r_i_glide_eff_state_penalty>  (345) 
0

>  <ligand_id>  (345) 
109

>  <original_smiles>  (345) 
Cn1nccc1C(=O)NC1CC2CCC(C1)N2C1C2CC3CC(C2)CC1C3

>  <smiles>  (345) 
[H]c1nn(C([H])([H])[H])c(C(=O)N([H])C2([H])C([H])([H])C3([H])C([H])([H])C([H])([H])C([H])(C2([H])[H])[N+]3([H])C2([H])C3([H])C([H])([H])C4([H])C([H])([H])C([H])(C3([H])[H])C([H])([H])C2([H])C4([H])[H])c1[H]

$$$$
109:0:2
     RDKit          3D

 60 65  0  0  1  0  0  0  0  0999 V2000
    8.5988   -2.8458   -0.1747 C   0  0  0  0  0  0  0  0  0  0  0  0
    7.1698   -2.8662   -0.4457 N   0  0  0  0  0  0  0  0  0  0  0  0
    6.5988   -1.8748   -1.1313 N   0  0  0  0  0  0  0  0  0  0  0  0
    5.3105   -2.1595   -1.2363 C   0  0  0  0  0  0  0  0  0  0  0  0
    4.9871   -3.3898   -0.5995 C   0  0  0  0  0  0  0  0  0  0  0  0
    6.2020   -3.8108   -0.1314 C   0  0  0  0  0  0  0  0  0  0  0  0
    6.4182   -5.0494    0.6414 C   0  0  0  0  0  0  0  0  0  0  0  0
    7.4786   -5.2861    1.1993 O   0  0  0  0  0  0  0  0  0  0  0  0
    5.3937   -5.9117    0.6319 N   0  0  0  0  0  0  0  0  0  0  0  0
    5.3891   -7.1925    1.3410 C   0  0  2  0  0  0  0  0  0  0  0  0
    4.3338   -8.1246    0.7095 C   0  0  0  0  0  0  0  0  0  0  0  0
    3.9954   -9.3041    1.6455 C   0  0  1  0  0  0  0  0  0  0  0  0
    5.2498  -10.0781    2.0846 C   0  0  0  0  0  0  0  0  0  0  0  0
    5.7138   -9.3642    3.3639 C   0  0  0  0  0  0  0  0  0  0  0  0
    4.6881   -8.2315    3.5708 C   0  0  1  0  0  0  0  0  0  0  0  0
    5.1381   -6.9429    2.8490 C   0  0  0  0  0  0  0  0  0  0  0  0
    3.4855   -8.7888    2.9269 N   0  0  1  0  0  0  0  0  0  0  0  0
    2.2269   -7.9655    2.9161 C   0  0  2  0  0  0  0  0  0  0  0  0
    1.7035   -7.7589    4.3581 C   0  0  1  0  0  0  0  0  0  0  0  0
    0.4513   -6.8627    4.3183 C   0  0  0  0  0  0  0  0  0  0  0  0
   -0.6426   -7.5556    3.4846 C   0  0  2  0  0  0  0  0  0  0  0  0
   -0.9775   -8.9331    4.0990 C   0  0  0  0  0  0  0  0  0  0  0  0
    0.2827   -9.8221    4.1468 C   0  0  2  0  0  0  0  0  0  0  0  0
    1.3582   -9.1254    5.0008 C   0  0  0  0  0  0  0  0  0  0  0  0
    0.7854  -10.0338    2.7032 C   0  0  0  0  0  0  0  0  0  0  0  0
    1.1211   -8.6542    2.0842 C   0  0  1  0  0  0  0  0  0  0  0  0
   -0.1335   -7.7679    2.0474 C   0  0  0  0  0  0  0  0  0  0  0  0
    8.7907   -3.0481    0.8714 H   0  0  0  0  0  0  0  0  0  0  0  0
    9.0163   -1.8758   -0.4156 H   0  0  0  0  0  0  0  0  0  0  0  0
    9.0829   -3.6019   -0.7789 H   0  0  0  0  0  0  0  0  0  0  0  0
    4.6742   -1.4674   -1.7611 H   0  0  0  0  0  0  0  0  0  0  0  0
    4.0177   -3.8804   -0.5178 H   0  0  0  0  0  0  0  0  0  0  0  0
    4.5815   -5.6553    0.0923 H   0  0  0  0  0  0  0  0  0  0  0  0
    6.3627   -7.6735    1.2270 H   0  0  0  0  0  0  0  0  0  0  0  0
    3.4330   -7.5512    0.4899 H   0  0  0  0  0  0  0  0  0  0  0  0
    4.6671   -8.5038   -0.2552 H   0  0  0  0  0  0  0  0  0  0  0  0
    3.3086  -10.0007    1.1612 H   0  0  0  0  0  0  0  0  0  0  0  0
    4.9724  -11.1045    2.3169 H   0  0  0  0  0  0  0  0  0  0  0  0
    6.0003  -10.1132    1.2933 H   0  0  0  0  0  0  0  0  0  0  0  0
    5.6711  -10.0519    4.2065 H   0  0  0  0  0  0  0  0  0  0  0  0
    6.7361   -8.9886    3.2905 H   0  0  0  0  0  0  0  0  0  0  0  0
    4.5422   -8.0420    4.6370 H   0  0  0  0  0  0  0  0  0  0  0  0
    6.0393   -6.5433    3.3202 H   0  0  0  0  0  0  0  0  0  0  0  0
    4.3893   -6.1607    2.9792 H   0  0  0  0  0  0  0  0  0  0  0  0
    2.3975   -6.9876    2.4715 H   0  0  0  0  0  0  0  0  0  0  0  0
    2.4320   -7.2458    4.9653 H   0  0  0  0  0  0  0  0  0  0  0  0
    0.0965   -6.6602    5.3313 H   0  0  0  0  0  0  0  0  0  0  0  0
    0.7089   -5.8988    3.8789 H   0  0  0  0  0  0  0  0  0  0  0  0
   -1.5443   -6.9418    3.4705 H   0  0  0  0  0  0  0  0  0  0  0  0
   -1.3784   -8.8125    5.1052 H   0  0  0  0  0  0  0  0  0  0  0  0
   -1.7442   -9.4291    3.5032 H   0  0  0  0  0  0  0  0  0  0  0  0
    0.0523  -10.7913    4.5919 H   0  0  0  0  0  0  0  0  0  0  0  0
    2.2390   -9.7618    5.0871 H   0  0  0  0  0  0  0  0  0  0  0  0
    1.0055   -8.9918    6.0259 H   0  0  0  0  0  0  0  0  0  0  0  0
    1.6466  -10.7037    2.7171 H   0  0  0  0  0  0  0  0  0  0  0  0
    0.0341  -10.5482    2.1004 H   0  0  0  0  0  0  0  0  0  0  0  0
    1.4233   -8.7600    1.0489 H   0  0  0  0  0  0  0  0  0  0  0  0
   -0.8982   -8.2488    1.4365 H   0  0  0  0  0  0  0  0  0  0  0  0
    0.0977   -6.8142    1.5732 H   0  0  0  0  0  0  0  0  0  0  0  0
    3.2639   -9.6159    3.4569 H   0  0  0  0  0  0  0  0  0  0  0  0
  1  2  1  0
  1 28  1  0
  1 29  1  0
  1 30  1  0
  2  6  1  0
  2  3  1  0
  3  4  2  0
  4  5  1  0
  4 31  1  0
  5  6  2  0
  5 32  1  0
  6  7  1  0
  7  8  2  0
  7  9  1  0
  9 10  1  0
  9 33  1  0
 10 16  1  0
 10 11  1  0
 10 34  1  1
 11 12  1  0
 11 35  1  0
 11 36  1  0
 12 17  1  0
 12 13  1  0
 12 37  1  6
 13 14  1  0
 13 38  1  0
 13 39  1  0
 14 15  1  0
 14 40  1  0
 14 41  1  0
 15 16  1  0
 15 17  1  0
 15 42  1  1
 16 43  1  0
 16 44  1  0
 17 18  1  0
 17 60  1  1
 18 26  1  0
 18 19  1  0
 18 45  1  6
 19 24  1  0
 19 20  1  0
 19 46  1  1
 20 21  1  0
 20 47  1  0
 20 48  1  0
 21 27  1  0
 21 22  1  0
 21 49  1  6
 22 23  1  0
 22 50  1  0
 22 51  1  0
 23 24  1  0
 23 25  1  0
 23 52  1  1
 24 53  1  0
 24 54  1  0
 25 26  1  0
 25 55  1  0
 25 56  1  0
 26 27  1  0
 26 57  1  6
 27 58  1  0
 27 59  1  0
M  CHG  1  17   1
M  END
>  <i_m_ct_stereo_status>  (346) 
1

>  <s_m_source_file>  (346) 
/var/tmp/pbs.5076255.sched01/tmpy8l6melh/117u1qm2xak.sdf

>  <i_m_source_file_index>  (346) 
36

>  <i_lp_mmshare_version>  (346) 
48012

>  <i_f3d_flags>  (346) 
0

>  <s_epik_input>  (346) 
W0NIM11uMW5bY0hdW2NIXWMxQyg9TylbTkhdW0NASF0oW0NIMl1bQ0BASF0yMylbQ0gyXVtDQEhdKFtDSDJdW0NIMl0yKU4zW0NASF0oW0NAQEhdNDUpW0NASF02W0NIMl1bQ0BASF0oW0NIMl01KVtDSDJdW0NAQEhdKFtDSDJdNClbQ0gyXTY=

>  <s_epik_cmdline>  (346) 
J2VwaWtfcHl0aG9uJywgJy1waHQnLCAnMi4wJywgJy1waCcsICc3LjAnLCAnLXRuJywgJzgnLCAnLW1hJywgJzIwMCcsICctaW1hZScsICc8aW5maWxlLm1hZT4nLCAnLW9tYWUnLCAnPG91dGZpbGUubWFlPic=

>  <r_lp_tautomer_probability>  (346) 
1

>  <r_epik_Ionization_Penalty>  (346) 
0.000501495

>  <r_epik_Ionization_Penalty_Charging>  (346) 
0.000498239

>  <r_epik_Ionization_Penalty_Neutral>  (346) 
3.25554e-06

>  <r_epik_State_Penalty>  (346) 
0.000309907

>  <r_epik_Charging_Adjusted_Penalty>  (346) 
0.000808146

>  <i_epik_Tot_Q>  (346) 
1

>  <i_epik_Tot_abs_Q>  (346) 
1

>  <s_lp_Force_Field>  (346) 
OPLS3e

>  <r_lp_Energy>  (346) 
29.836

>  <b_lp_Chiralities_Consistent>  (346) 
1

>  <s_lp_Variant>  (346) 
109:0-1

>  <s_i_glide_gridfile>  (346) 
pfpi4k_grid

>  <i_i_glide_lignum>  (346) 
36

>  <i_i_glide_rotatable_bonds>  (346) 
4

>  <r_i_docking_score>  (346) 
-3.13125

>  <r_i_glide_ligand_efficiency>  (346) 
-0.115972

>  <r_i_glide_ligand_efficiency_sa>  (346) 
-0.347916

>  <r_i_glide_ligand_efficiency_ln>  (346) 
-0.728903

>  <r_i_glide_gscore>  (346) 
-3.13125

>  <r_i_glide_lipo>  (346) 
-0.328699

>  <r_i_glide_hbond>  (346) 
-0.16

>  <r_i_glide_metal>  (346) 
-0

>  <r_i_glide_rewards>  (346) 
-1.08758

>  <r_i_glide_evdw>  (346) 
-25.9858

>  <r_i_glide_ecoul>  (346) 
-5.40801

>  <r_i_glide_erotb>  (346) 
0.564841

>  <r_i_glide_esite>  (346) 
-0.00931533

>  <r_i_glide_emodel>  (346) 
-38.034

>  <r_i_glide_energy>  (346) 
-31.3938

>  <r_i_glide_einternal>  (346) 
0.683892

>  <r_i_glide_intrahb_reward>  (346) 
-0

>  <i_i_glide_confnum>  (346) 
4

>  <i_i_glide_posenum>  (346) 
27

>  <r_i_glide_eff_state_penalty>  (346) 
0

>  <ligand_id>  (346) 
109

>  <original_smiles>  (346) 
Cn1nccc1C(=O)NC1CC2CCC(C1)N2C1C2CC3CC(C2)CC1C3

>  <smiles>  (346) 
[H]c1nn(C([H])([H])[H])c(C(=O)N([H])C2([H])C([H])([H])C3([H])C([H])([H])C([H])([H])C([H])(C2([H])[H])[N+]3([H])C2([H])C3([H])C([H])([H])C4([H])C([H])([H])C([H])(C3([H])[H])C([H])([H])C2([H])C4([H])[H])c1[H]

$$$$
109:1:0
     RDKit          3D

 60 65  0  0  1  0  0  0  0  0999 V2000
    6.5679   -0.9935    0.6061 C   0  0  0  0  0  0  0  0  0  0  0  0
    6.0442   -1.9951   -0.2973 N   0  0  0  0  0  0  0  0  0  0  0  0
    6.6200   -2.0931   -1.5187 N   0  0  0  0  0  0  0  0  0  0  0  0
    5.9838   -3.0583   -2.1516 C   0  0  0  0  0  0  0  0  0  0  0  0
    4.9681   -3.6470   -1.3451 C   0  0  0  0  0  0  0  0  0  0  0  0
    5.0330   -2.9260   -0.1799 C   0  0  0  0  0  0  0  0  0  0  0  0
    4.1470   -3.1284    0.9871 C   0  0  0  0  0  0  0  0  0  0  0  0
    4.0937   -2.3330    1.9246 O   0  0  0  0  0  0  0  0  0  0  0  0
    3.4839   -4.2843    0.9764 N   0  0  0  0  0  0  0  0  0  0  0  0
    2.6702   -4.8623    2.0379 C   0  0  1  0  0  0  0  0  0  0  0  0
    1.8389   -6.0088    1.4136 C   0  0  0  0  0  0  0  0  0  0  0  0
    2.6406   -7.3368    1.3104 C   0  0  1  0  0  0  0  0  0  0  0  0
    3.9720   -7.1976    0.5451 C   0  0  0  0  0  0  0  0  0  0  0  0
    5.0002   -6.8159    1.6347 C   0  0  0  0  0  0  0  0  0  0  0  0
    4.1773   -6.7712    2.9411 C   0  0  1  0  0  0  0  0  0  0  0  0
    3.5597   -5.3693    3.2124 C   0  0  0  0  0  0  0  0  0  0  0  0
    3.1063   -7.7425    2.6461 N   0  0  1  0  0  0  0  0  0  0  0  0
    2.0905   -8.0492    3.6855 C   0  0  2  0  0  0  0  0  0  0  0  0
    2.7456   -8.8291    4.8571 C   0  0  2  0  0  0  0  0  0  0  0  0
    3.2900  -10.1890    4.3463 C   0  0  0  0  0  0  0  0  0  0  0  0
    2.1277  -11.0180    3.7456 C   0  0  1  0  0  0  0  0  0  0  0  0
    1.0740  -11.2634    4.8385 C   0  0  0  0  0  0  0  0  0  0  0  0
    0.5347   -9.9167    5.3764 C   0  0  1  0  0  0  0  0  0  0  0  0
    1.6932   -9.0756    5.9563 C   0  0  0  0  0  0  0  0  0  0  0  0
   -0.1244   -9.1426    4.2170 C   0  0  0  0  0  0  0  0  0  0  0  0
    0.9202   -8.9017    3.1146 C   0  0  2  0  0  0  0  0  0  0  0  0
    1.4598  -10.2544    2.5871 C   0  0  0  0  0  0  0  0  0  0  0  0
    6.0687   -1.0070    1.5609 H   0  0  0  0  0  0  0  0  0  0  0  0
    6.4377   -0.0067    0.1743 H   0  0  0  0  0  0  0  0  0  0  0  0
    7.6267   -1.1576    0.7855 H   0  0  0  0  0  0  0  0  0  0  0  0
    6.2797   -3.3025   -3.1641 H   0  0  0  0  0  0  0  0  0  0  0  0
    4.3038   -4.4594   -1.5983 H   0  0  0  0  0  0  0  0  0  0  0  0
    3.6781   -4.8768    0.1763 H   0  0  0  0  0  0  0  0  0  0  0  0
    1.9879   -4.0856    2.4042 H   0  0  0  0  0  0  0  0  0  0  0  0
    0.9485   -6.1607    2.0212 H   0  0  0  0  0  0  0  0  0  0  0  0
    1.4702   -5.7336    0.4221 H   0  0  0  0  0  0  0  0  0  0  0  0
    2.0202   -8.1084    0.8769 H   0  0  0  0  0  0  0  0  0  0  0  0
    4.2438   -8.1568    0.1027 H   0  0  0  0  0  0  0  0  0  0  0  0
    3.9027   -6.4967   -0.2850 H   0  0  0  0  0  0  0  0  0  0  0  0
    5.7689   -7.5878    1.6961 H   0  0  0  0  0  0  0  0  0  0  0  0
    5.5148   -5.8737    1.4475 H   0  0  0  0  0  0  0  0  0  0  0  0
    4.7840   -7.0982    3.7855 H   0  0  0  0  0  0  0  0  0  0  0  0
    4.3531   -4.6578    3.4525 H   0  0  0  0  0  0  0  0  0  0  0  0
    2.9531   -5.4063    4.1148 H   0  0  0  0  0  0  0  0  0  0  0  0
    1.6421   -7.1377    4.0826 H   0  0  0  0  0  0  0  0  0  0  0  0
    3.5586   -8.2519    5.3025 H   0  0  0  0  0  0  0  0  0  0  0  0
    4.0746  -10.0453    3.5993 H   0  0  0  0  0  0  0  0  0  0  0  0
    3.7575  -10.7387    5.1659 H   0  0  0  0  0  0  0  0  0  0  0  0
    2.5144  -11.9741    3.3794 H   0  0  0  0  0  0  0  0  0  0  0  0
    0.2508  -11.8566    4.4365 H   0  0  0  0  0  0  0  0  0  0  0  0
    1.5378  -11.8314    5.6406 H   0  0  0  0  0  0  0  0  0  0  0  0
   -0.2008  -10.1082    6.1634 H   0  0  0  0  0  0  0  0  0  0  0  0
    2.1411   -9.5907    6.8070 H   0  0  0  0  0  0  0  0  0  0  0  0
    1.3160   -8.1212    6.3303 H   0  0  0  0  0  0  0  0  0  0  0  0
   -0.9642   -9.6979    3.7992 H   0  0  0  0  0  0  0  0  0  0  0  0
   -0.5314   -8.1955    4.5717 H   0  0  0  0  0  0  0  0  0  0  0  0
    0.3876   -8.3793    2.3219 H   0  0  0  0  0  0  0  0  0  0  0  0
    2.1904  -10.1293    1.7871 H   0  0  0  0  0  0  0  0  0  0  0  0
    0.6403  -10.8318    2.1547 H   0  0  0  0  0  0  0  0  0  0  0  0
    3.5729   -8.6240    2.4847 H   0  0  0  0  0  0  0  0  0  0  0  0
  1  2  1  0
  1 28  1  0
  1 29  1  0
  1 30  1  0
  2  6  1  0
  2  3  1  0
  3  4  2  0
  4  5  1  0
  4 31  1  0
  5  6  2  0
  5 32  1  0
  6  7  1  0
  7  8  2  0
  7  9  1  0
  9 10  1  0
  9 33  1  0
 10 16  1  0
 10 11  1  0
 10 34  1  1
 11 12  1  0
 11 35  1  0
 11 36  1  0
 12 17  1  0
 12 13  1  0
 12 37  1  6
 13 14  1  0
 13 38  1  0
 13 39  1  0
 14 15  1  0
 14 40  1  0
 14 41  1  0
 15 16  1  0
 15 17  1  0
 15 42  1  1
 16 43  1  0
 16 44  1  0
 17 18  1  0
 17 60  1  6
 18 26  1  0
 18 19  1  0
 18 45  1  1
 19 24  1  0
 19 20  1  0
 19 46  1  1
 20 21  1  0
 20 47  1  0
 20 48  1  0
 21 27  1  0
 21 22  1  0
 21 49  1  6
 22 23  1  0
 22 50  1  0
 22 51  1  0
 23 24  1  0
 23 25  1  0
 23 52  1  1
 24 53  1  0
 24 54  1  0
 25 26  1  0
 25 55  1  0
 25 56  1  0
 26 27  1  0
 26 57  1  6
 27 58  1  0
 27 59  1  0
M  CHG  1  17   1
M  END
>  <i_m_ct_stereo_status>  (347) 
1

>  <s_m_source_file>  (347) 
/var/tmp/pbs.5076255.sched01/tmpy8l6melh/117u1qm2xak.sdf

>  <i_m_source_file_index>  (347) 
37

>  <i_lp_mmshare_version>  (347) 
48012

>  <i_f3d_flags>  (347) 
0

>  <s_epik_input>  (347) 
W0NIM11uMW5bY0hdW2NIXWMxQyg9TylbTkhdW0NASF0oW0NIMl1bQ0BASF0yMylbQ0gyXVtDQEhdKFtDSDJdW0NIMl0yKU4zW0NASF0oW0NAQEhdNDUpW0NASF02W0NIMl1bQ0BASF0oW0NIMl01KVtDSDJdW0NAQEhdKFtDSDJdNClbQ0gyXTY=

>  <s_epik_cmdline>  (347) 
J2VwaWtfcHl0aG9uJywgJy1waHQnLCAnMi4wJywgJy1waCcsICc3LjAnLCAnLXRuJywgJzgnLCAnLW1hJywgJzIwMCcsICctaW1hZScsICc8aW5maWxlLm1hZT4nLCAnLW9tYWUnLCAnPG91dGZpbGUubWFlPic=

>  <r_lp_tautomer_probability>  (347) 
1

>  <r_epik_Ionization_Penalty>  (347) 
0.000501495

>  <r_epik_Ionization_Penalty_Charging>  (347) 
0.000498239

>  <r_epik_Ionization_Penalty_Neutral>  (347) 
3.25554e-06

>  <r_epik_State_Penalty>  (347) 
0.000309907

>  <r_epik_Charging_Adjusted_Penalty>  (347) 
0.000808146

>  <i_epik_Tot_Q>  (347) 
1

>  <i_epik_Tot_abs_Q>  (347) 
1

>  <s_lp_Force_Field>  (347) 
OPLS3e

>  <r_lp_Energy>  (347) 
35.9168

>  <b_lp_Chiralities_Consistent>  (347) 
1

>  <s_lp_Variant>  (347) 
109:0-2

>  <s_i_glide_gridfile>  (347) 
pfpi4k_grid

>  <i_i_glide_lignum>  (347) 
37

>  <i_i_glide_rotatable_bonds>  (347) 
4

>  <r_i_docking_score>  (347) 
-3.15304

>  <r_i_glide_ligand_efficiency>  (347) 
-0.116779

>  <r_i_glide_ligand_efficiency_sa>  (347) 
-0.350338

>  <r_i_glide_ligand_efficiency_ln>  (347) 
-0.733976

>  <r_i_glide_gscore>  (347) 
-3.15304

>  <r_i_glide_lipo>  (347) 
-0.581558

>  <r_i_glide_hbond>  (347) 
-0.16

>  <r_i_glide_metal>  (347) 
-0

>  <r_i_glide_rewards>  (347) 
-0.901183

>  <r_i_glide_evdw>  (347) 
-23.3592

>  <r_i_glide_ecoul>  (347) 
-5.89164

>  <r_i_glide_erotb>  (347) 
0.564841

>  <r_i_glide_esite>  (347) 
-0.0234354

>  <r_i_glide_emodel>  (347) 
-34.5562

>  <r_i_glide_energy>  (347) 
-29.2509

>  <r_i_glide_einternal>  (347) 
1.33375

>  <r_i_glide_intrahb_reward>  (347) 
-0

>  <i_i_glide_confnum>  (347) 
1

>  <i_i_glide_posenum>  (347) 
14

>  <r_i_glide_eff_state_penalty>  (347) 
0

>  <ligand_id>  (347) 
109

>  <original_smiles>  (347) 
Cn1nccc1C(=O)NC1CC2CCC(C1)N2C1C2CC3CC(C2)CC1C3

>  <smiles>  (347) 
[H]c1nn(C([H])([H])[H])c(C(=O)N([H])C2([H])C([H])([H])C3([H])C([H])([H])C([H])([H])C([H])(C2([H])[H])[N+]3([H])C2([H])C3([H])C([H])([H])C4([H])C([H])([H])C([H])(C3([H])[H])C([H])([H])C2([H])C4([H])[H])c1[H]

$$$$
109:1:1
     RDKit          3D

 60 65  0  0  1  0  0  0  0  0999 V2000
    5.6628   -0.7576    0.6404 C   0  0  0  0  0  0  0  0  0  0  0  0
    5.5247   -1.8695   -0.2704 N   0  0  0  0  0  0  0  0  0  0  0  0
    6.2262   -1.8591   -1.4191 N   0  0  0  0  0  0  0  0  0  0  0  0
    5.9234   -2.9932   -2.0429 C   0  0  0  0  0  0  0  0  0  0  0  0
    4.9995   -3.7917   -1.3172 C   0  0  0  0  0  0  0  0  0  0  0  0
    4.7574   -3.0251   -0.1929 C   0  0  0  0  0  0  0  0  0  0  0  0
    3.8018   -3.3996    0.8728 C   0  0  0  0  0  0  0  0  0  0  0  0
    3.4954   -2.6591    1.7959 O   0  0  0  0  0  0  0  0  0  0  0  0
    3.3692   -4.6697    0.8211 N   0  0  0  0  0  0  0  0  0  0  0  0
    2.6226   -5.4223    1.8328 C   0  0  1  0  0  0  0  0  0  0  0  0
    2.1229   -6.7312    1.1579 C   0  0  0  0  0  0  0  0  0  0  0  0
    3.1963   -7.8652    1.1889 C   0  0  1  0  0  0  0  0  0  0  0  0
    4.5306   -7.4466    0.5335 C   0  0  0  0  0  0  0  0  0  0  0  0
    5.3488   -6.8395    1.6998 C   0  0  0  0  0  0  0  0  0  0  0  0
    4.4104   -6.9601    2.9205 C   0  0  1  0  0  0  0  0  0  0  0  0
    3.4792   -5.7301    3.1015 C   0  0  0  0  0  0  0  0  0  0  0  0
    3.6033   -8.1410    2.5698 N   0  0  1  0  0  0  0  0  0  0  0  0
    2.5676   -8.6429    3.5281 C   0  0  2  0  0  0  0  0  0  0  0  0
    3.2031   -8.8978    4.9112 C   0  0  2  0  0  0  0  0  0  0  0  0
    4.3055   -9.9826    4.7965 C   0  0  0  0  0  0  0  0  0  0  0  0
    3.6793  -11.2869    4.2552 C   0  0  1  0  0  0  0  0  0  0  0  0
    2.5882  -11.7438    5.2381 C   0  0  0  0  0  0  0  0  0  0  0  0
    1.4869  -10.6607    5.3643 C   0  0  1  0  0  0  0  0  0  0  0  0
    2.1112   -9.3538    5.8863 C   0  0  0  0  0  0  0  0  0  0  0  0
    0.8492  -10.4269    3.9881 C   0  0  0  0  0  0  0  0  0  0  0  0
    1.9425   -9.9656    3.0171 C   0  0  2  0  0  0  0  0  0  0  0  0
    3.0335  -11.0509    2.8788 C   0  0  0  0  0  0  0  0  0  0  0  0
    5.0686   -0.8679    1.5324 H   0  0  0  0  0  0  0  0  0  0  0  0
    5.3319    0.1350    0.1297 H   0  0  0  0  0  0  0  0  0  0  0  0
    6.7013   -0.6453    0.9308 H   0  0  0  0  0  0  0  0  0  0  0  0
    6.3863   -3.1754   -3.0116 H   0  0  0  0  0  0  0  0  0  0  0  0
    4.5791   -4.7550   -1.5888 H   0  0  0  0  0  0  0  0  0  0  0  0
    3.8009   -5.2110    0.0952 H   0  0  0  0  0  0  0  0  0  0  0  0
    1.7614   -4.8117    2.1158 H   0  0  0  0  0  0  0  0  0  0  0  0
    1.2125   -7.0681    1.6576 H   0  0  0  0  0  0  0  0  0  0  0  0
    1.8014   -6.5233    0.1333 H   0  0  0  0  0  0  0  0  0  0  0  0
    2.8409   -8.7814    0.7173 H   0  0  0  0  0  0  0  0  0  0  0  0
    5.0164   -8.3381    0.1433 H   0  0  0  0  0  0  0  0  0  0  0  0
    4.3955   -6.7958   -0.3298 H   0  0  0  0  0  0  0  0  0  0  0  0
    6.2472   -7.4323    1.8679 H   0  0  0  0  0  0  0  0  0  0  0  0
    5.6929   -5.8161    1.5534 H   0  0  0  0  0  0  0  0  0  0  0  0
    5.0180   -7.1184    3.8121 H   0  0  0  0  0  0  0  0  0  0  0  0
    4.0556   -4.8644    3.4232 H   0  0  0  0  0  0  0  0  0  0  0  0
    2.7961   -5.9090    3.9339 H   0  0  0  0  0  0  0  0  0  0  0  0
    1.7630   -7.9249    3.6577 H   0  0  0  0  0  0  0  0  0  0  0  0
    3.6176   -7.9890    5.3425 H   0  0  0  0  0  0  0  0  0  0  0  0
    5.1190   -9.6665    4.1400 H   0  0  0  0  0  0  0  0  0  0  0  0
    4.7700  -10.1544    5.7702 H   0  0  0  0  0  0  0  0  0  0  0  0
    4.4524  -12.0559    4.1778 H   0  0  0  0  0  0  0  0  0  0  0  0
    2.1393  -12.6691    4.8826 H   0  0  0  0  0  0  0  0  0  0  0  0
    3.0380  -11.9565    6.2079 H   0  0  0  0  0  0  0  0  0  0  0  0
    0.7111  -10.9910    6.0635 H   0  0  0  0  0  0  0  0  0  0  0  0
    2.5323   -9.5019    6.8819 H   0  0  0  0  0  0  0  0  0  0  0  0
    1.3458   -8.5816    5.9733 H   0  0  0  0  0  0  0  0  0  0  0  0
    0.3767  -11.3427    3.6310 H   0  0  0  0  0  0  0  0  0  0  0  0
    0.0570   -9.6819    4.0636 H   0  0  0  0  0  0  0  0  0  0  0  0
    1.4345   -9.8296    2.0724 H   0  0  0  0  0  0  0  0  0  0  0  0
    3.7948  -10.7607    2.1544 H   0  0  0  0  0  0  0  0  0  0  0  0
    2.6133  -11.9800    2.4922 H   0  0  0  0  0  0  0  0  0  0  0  0
    4.2702   -8.8884    2.4745 H   0  0  0  0  0  0  0  0  0  0  0  0
  1  2  1  0
  1 28  1  0
  1 29  1  0
  1 30  1  0
  2  6  1  0
  2  3  1  0
  3  4  2  0
  4  5  1  0
  4 31  1  0
  5  6  2  0
  5 32  1  0
  6  7  1  0
  7  8  2  0
  7  9  1  0
  9 10  1  0
  9 33  1  0
 10 16  1  0
 10 11  1  0
 10 34  1  1
 11 12  1  0
 11 35  1  0
 11 36  1  0
 12 17  1  0
 12 13  1  0
 12 37  1  6
 13 14  1  0
 13 38  1  0
 13 39  1  0
 14 15  1  0
 14 40  1  0
 14 41  1  0
 15 16  1  0
 15 17  1  0
 15 42  1  1
 16 43  1  0
 16 44  1  0
 17 18  1  0
 17 60  1  6
 18 26  1  0
 18 19  1  0
 18 45  1  1
 19 24  1  0
 19 20  1  0
 19 46  1  1
 20 21  1  0
 20 47  1  0
 20 48  1  0
 21 27  1  0
 21 22  1  0
 21 49  1  6
 22 23  1  0
 22 50  1  0
 22 51  1  0
 23 24  1  0
 23 25  1  0
 23 52  1  1
 24 53  1  0
 24 54  1  0
 25 26  1  0
 25 55  1  0
 25 56  1  0
 26 27  1  0
 26 57  1  6
 27 58  1  0
 27 59  1  0
M  CHG  1  17   1
M  END
>  <i_m_ct_stereo_status>  (348) 
1

>  <s_m_source_file>  (348) 
/var/tmp/pbs.5076255.sched01/tmpy8l6melh/117u1qm2xak.sdf

>  <i_m_source_file_index>  (348) 
37

>  <i_lp_mmshare_version>  (348) 
48012

>  <i_f3d_flags>  (348) 
0

>  <s_epik_input>  (348) 
W0NIM11uMW5bY0hdW2NIXWMxQyg9TylbTkhdW0NASF0oW0NIMl1bQ0BASF0yMylbQ0gyXVtDQEhdKFtDSDJdW0NIMl0yKU4zW0NASF0oW0NAQEhdNDUpW0NASF02W0NIMl1bQ0BASF0oW0NIMl01KVtDSDJdW0NAQEhdKFtDSDJdNClbQ0gyXTY=

>  <s_epik_cmdline>  (348) 
J2VwaWtfcHl0aG9uJywgJy1waHQnLCAnMi4wJywgJy1waCcsICc3LjAnLCAnLXRuJywgJzgnLCAnLW1hJywgJzIwMCcsICctaW1hZScsICc8aW5maWxlLm1hZT4nLCAnLW9tYWUnLCAnPG91dGZpbGUubWFlPic=

>  <r_lp_tautomer_probability>  (348) 
1

>  <r_epik_Ionization_Penalty>  (348) 
0.000501495

>  <r_epik_Ionization_Penalty_Charging>  (348) 
0.000498239

>  <r_epik_Ionization_Penalty_Neutral>  (348) 
3.25554e-06

>  <r_epik_State_Penalty>  (348) 
0.000309907

>  <r_epik_Charging_Adjusted_Penalty>  (348) 
0.000808146

>  <i_epik_Tot_Q>  (348) 
1

>  <i_epik_Tot_abs_Q>  (348) 
1

>  <s_lp_Force_Field>  (348) 
OPLS3e

>  <r_lp_Energy>  (348) 
35.9168

>  <b_lp_Chiralities_Consistent>  (348) 
1

>  <s_lp_Variant>  (348) 
109:0-2

>  <s_i_glide_gridfile>  (348) 
pfpi4k_grid

>  <i_i_glide_lignum>  (348) 
37

>  <i_i_glide_rotatable_bonds>  (348) 
4

>  <r_i_docking_score>  (348) 
-2.92654

>  <r_i_glide_ligand_efficiency>  (348) 
-0.10839

>  <r_i_glide_ligand_efficiency_sa>  (348) 
-0.325171

>  <r_i_glide_ligand_efficiency_ln>  (348) 
-0.681251

>  <r_i_glide_gscore>  (348) 
-2.92654

>  <r_i_glide_lipo>  (348) 
-0.475471

>  <r_i_glide_hbond>  (348) 
-0.146392

>  <r_i_glide_metal>  (348) 
-0

>  <r_i_glide_rewards>  (348) 
-0.896226

>  <r_i_glide_evdw>  (348) 
-22.9793

>  <r_i_glide_ecoul>  (348) 
-5.33525

>  <r_i_glide_erotb>  (348) 
0.564841

>  <r_i_glide_esite>  (348) 
-0.0240438

>  <r_i_glide_emodel>  (348) 
-33.7587

>  <r_i_glide_energy>  (348) 
-28.3145

>  <r_i_glide_einternal>  (348) 
0.158424

>  <r_i_glide_intrahb_reward>  (348) 
-0

>  <i_i_glide_confnum>  (348) 
1

>  <i_i_glide_posenum>  (348) 
8

>  <r_i_glide_eff_state_penalty>  (348) 
0

>  <ligand_id>  (348) 
109

>  <original_smiles>  (348) 
Cn1nccc1C(=O)NC1CC2CCC(C1)N2C1C2CC3CC(C2)CC1C3

>  <smiles>  (348) 
[H]c1nn(C([H])([H])[H])c(C(=O)N([H])C2([H])C([H])([H])C3([H])C([H])([H])C([H])([H])C([H])(C2([H])[H])[N+]3([H])C2([H])C3([H])C([H])([H])C4([H])C([H])([H])C([H])(C3([H])[H])C([H])([H])C2([H])C4([H])[H])c1[H]

$$$$
109:1:2
     RDKit          3D

 60 65  0  0  1  0  0  0  0  0999 V2000
    3.0905   -3.0797   -3.3412 C   0  0  0  0  0  0  0  0  0  0  0  0
    4.2720   -3.1958   -2.5107 N   0  0  0  0  0  0  0  0  0  0  0  0
    5.4536   -2.8739   -3.0717 N   0  0  0  0  0  0  0  0  0  0  0  0
    6.3646   -3.0578   -2.1283 C   0  0  0  0  0  0  0  0  0  0  0  0
    5.7954   -3.5261   -0.9152 C   0  0  0  0  0  0  0  0  0  0  0  0
    4.4545   -3.5899   -1.1978 C   0  0  0  0  0  0  0  0  0  0  0  0
    3.4082   -4.0083   -0.2322 C   0  0  0  0  0  0  0  0  0  0  0  0
    2.2157   -3.8384   -0.4413 O   0  0  0  0  0  0  0  0  0  0  0  0
    3.8721   -4.6667    0.8330 N   0  0  0  0  0  0  0  0  0  0  0  0
    3.1115   -5.3419    1.8803 C   0  0  1  0  0  0  0  0  0  0  0  0
    2.4112   -6.6162    1.3286 C   0  0  0  0  0  0  0  0  0  0  0  0
    3.3696   -7.8354    1.2559 C   0  0  1  0  0  0  0  0  0  0  0  0
    4.6268   -7.5538    0.4207 C   0  0  0  0  0  0  0  0  0  0  0  0
    5.6498   -6.9954    1.4416 C   0  0  0  0  0  0  0  0  0  0  0  0
    4.8830   -6.9967    2.7785 C   0  0  1  0  0  0  0  0  0  0  0  0
    4.0889   -5.6831    3.0374 C   0  0  0  0  0  0  0  0  0  0  0  0
    3.9440   -8.1143    2.5775 N   0  0  1  0  0  0  0  0  0  0  0  0
    3.0211   -8.4903    3.6836 C   0  0  2  0  0  0  0  0  0  0  0  0
    3.8373   -8.9304    4.9276 C   0  0  2  0  0  0  0  0  0  0  0  0
    4.6893  -10.1800    4.5855 C   0  0  0  0  0  0  0  0  0  0  0  0
    3.7558  -11.3279    4.1375 C   0  0  1  0  0  0  0  0  0  0  0  0
    2.7826  -11.6647    5.2823 C   0  0  0  0  0  0  0  0  0  0  0  0
    1.9405  -10.4164    5.6425 C   0  0  1  0  0  0  0  0  0  0  0  0
    2.8651   -9.2597    6.0746 C   0  0  0  0  0  0  0  0  0  0  0  0
    1.1209   -9.9858    4.4110 C   0  0  0  0  0  0  0  0  0  0  0  0
    2.0874   -9.6557    3.2608 C   0  0  2  0  0  0  0  0  0  0  0  0
    2.9349  -10.8999    2.9048 C   0  0  0  0  0  0  0  0  0  0  0  0
    2.1963   -3.3882   -2.8199 H   0  0  0  0  0  0  0  0  0  0  0  0
    3.1920   -3.7057   -4.2245 H   0  0  0  0  0  0  0  0  0  0  0  0
    2.9628   -2.0478   -3.6591 H   0  0  0  0  0  0  0  0  0  0  0  0
    7.4029   -2.8473   -2.3514 H   0  0  0  0  0  0  0  0  0  0  0  0
    6.2999   -3.7752    0.0033 H   0  0  0  0  0  0  0  0  0  0  0  0
    4.8727   -4.8229    0.8320 H   0  0  0  0  0  0  0  0  0  0  0  0
    2.3538   -4.6381    2.2384 H   0  0  0  0  0  0  0  0  0  0  0  0
    1.5724   -6.8637    1.9745 H   0  0  0  0  0  0  0  0  0  0  0  0
    1.9544   -6.4385    0.3557 H   0  0  0  0  0  0  0  0  0  0  0  0
    2.8548   -8.7181    0.8720 H   0  0  0  0  0  0  0  0  0  0  0  0
    5.0028   -8.4863    0.0024 H   0  0  0  0  0  0  0  0  0  0  0  0
    4.4259   -6.8871   -0.4170 H   0  0  0  0  0  0  0  0  0  0  0  0
    6.5156   -7.6531    1.4990 H   0  0  0  0  0  0  0  0  0  0  0  0
    6.0360   -6.0103    1.1925 H   0  0  0  0  0  0  0  0  0  0  0  0
    5.5763   -7.1910    3.5995 H   0  0  0  0  0  0  0  0  0  0  0  0
    4.7809   -4.8587    3.2087 H   0  0  0  0  0  0  0  0  0  0  0  0
    3.5213   -5.7644    3.9653 H   0  0  0  0  0  0  0  0  0  0  0  0
    2.3885   -7.6506    3.9621 H   0  0  0  0  0  0  0  0  0  0  0  0
    4.4851   -8.1261    5.2793 H   0  0  0  0  0  0  0  0  0  0  0  0
    5.4155   -9.9601    3.8002 H   0  0  0  0  0  0  0  0  0  0  0  0
    5.2746  -10.4867    5.4548 H   0  0  0  0  0  0  0  0  0  0  0  0
    4.3534  -12.2081    3.8832 H   0  0  0  0  0  0  0  0  0  0  0  0
    2.1233  -12.4777    4.9728 H   0  0  0  0  0  0  0  0  0  0  0  0
    3.3378  -12.0163    6.1515 H   0  0  0  0  0  0  0  0  0  0  0  0
    1.2482  -10.6504    6.4551 H   0  0  0  0  0  0  0  0  0  0  0  0
    3.4183   -9.5292    6.9751 H   0  0  0  0  0  0  0  0  0  0  0  0
    2.2725   -8.3766    6.3231 H   0  0  0  0  0  0  0  0  0  0  0  0
    0.4352  -10.7799    4.1138 H   0  0  0  0  0  0  0  0  0  0  0  0
    0.5038   -9.1194    4.6480 H   0  0  0  0  0  0  0  0  0  0  0  0
    1.4595   -9.3727    2.4110 H   0  0  0  0  0  0  0  0  0  0  0  0
    3.6110  -10.6877    2.0781 H   0  0  0  0  0  0  0  0  0  0  0  0
    2.2964  -11.7169    2.5691 H   0  0  0  0  0  0  0  0  0  0  0  0
    4.5157   -8.9368    2.4427 H   0  0  0  0  0  0  0  0  0  0  0  0
  1  2  1  0
  1 28  1  0
  1 29  1  0
  1 30  1  0
  2  6  1  0
  2  3  1  0
  3  4  2  0
  4  5  1  0
  4 31  1  0
  5  6  2  0
  5 32  1  0
  6  7  1  0
  7  8  2  0
  7  9  1  0
  9 10  1  0
  9 33  1  0
 10 16  1  0
 10 11  1  0
 10 34  1  1
 11 12  1  0
 11 35  1  0
 11 36  1  0
 12 17  1  0
 12 13  1  0
 12 37  1  6
 13 14  1  0
 13 38  1  0
 13 39  1  0
 14 15  1  0
 14 40  1  0
 14 41  1  0
 15 16  1  0
 15 17  1  0
 15 42  1  1
 16 43  1  0
 16 44  1  0
 17 18  1  0
 17 60  1  6
 18 26  1  0
 18 19  1  0
 18 45  1  1
 19 24  1  0
 19 20  1  0
 19 46  1  1
 20 21  1  0
 20 47  1  0
 20 48  1  0
 21 27  1  0
 21 22  1  0
 21 49  1  6
 22 23  1  0
 22 50  1  0
 22 51  1  0
 23 24  1  0
 23 25  1  0
 23 52  1  1
 24 53  1  0
 24 54  1  0
 25 26  1  0
 25 55  1  0
 25 56  1  0
 26 27  1  0
 26 57  1  6
 27 58  1  0
 27 59  1  0
M  CHG  1  17   1
M  END
>  <i_m_ct_stereo_status>  (349) 
1

>  <s_m_source_file>  (349) 
/var/tmp/pbs.5076255.sched01/tmpy8l6melh/117u1qm2xak.sdf

>  <i_m_source_file_index>  (349) 
37

>  <i_lp_mmshare_version>  (349) 
48012

>  <i_f3d_flags>  (349) 
0

>  <s_epik_input>  (349) 
W0NIM11uMW5bY0hdW2NIXWMxQyg9TylbTkhdW0NASF0oW0NIMl1bQ0BASF0yMylbQ0gyXVtDQEhdKFtDSDJdW0NIMl0yKU4zW0NASF0oW0NAQEhdNDUpW0NASF02W0NIMl1bQ0BASF0oW0NIMl01KVtDSDJdW0NAQEhdKFtDSDJdNClbQ0gyXTY=

>  <s_epik_cmdline>  (349) 
J2VwaWtfcHl0aG9uJywgJy1waHQnLCAnMi4wJywgJy1waCcsICc3LjAnLCAnLXRuJywgJzgnLCAnLW1hJywgJzIwMCcsICctaW1hZScsICc8aW5maWxlLm1hZT4nLCAnLW9tYWUnLCAnPG91dGZpbGUubWFlPic=

>  <r_lp_tautomer_probability>  (349) 
1

>  <r_epik_Ionization_Penalty>  (349) 
0.000501495

>  <r_epik_Ionization_Penalty_Charging>  (349) 
0.000498239

>  <r_epik_Ionization_Penalty_Neutral>  (349) 
3.25554e-06

>  <r_epik_State_Penalty>  (349) 
0.000309907

>  <r_epik_Charging_Adjusted_Penalty>  (349) 
0.000808146

>  <i_epik_Tot_Q>  (349) 
1

>  <i_epik_Tot_abs_Q>  (349) 
1

>  <s_lp_Force_Field>  (349) 
OPLS3e

>  <r_lp_Energy>  (349) 
35.9168

>  <b_lp_Chiralities_Consistent>  (349) 
1

>  <s_lp_Variant>  (349) 
109:0-2

>  <s_i_glide_gridfile>  (349) 
pfpi4k_grid

>  <i_i_glide_lignum>  (349) 
37

>  <i_i_glide_rotatable_bonds>  (349) 
4

>  <r_i_docking_score>  (349) 
-2.55428

>  <r_i_glide_ligand_efficiency>  (349) 
-0.094603

>  <r_i_glide_ligand_efficiency_sa>  (349) 
-0.283809

>  <r_i_glide_ligand_efficiency_ln>  (349) 
-0.594595

>  <r_i_glide_gscore>  (349) 
-2.55428

>  <r_i_glide_lipo>  (349) 
-0.478603

>  <r_i_glide_hbond>  (349) 
-0.000297575

>  <r_i_glide_metal>  (349) 
-0

>  <r_i_glide_rewards>  (349) 
-0.889612

>  <r_i_glide_evdw>  (349) 
-25.2468

>  <r_i_glide_ecoul>  (349) 
-3.0319

>  <r_i_glide_erotb>  (349) 
0.564841

>  <r_i_glide_esite>  (349) 
-0.033486

>  <r_i_glide_emodel>  (349) 
-32.9081

>  <r_i_glide_energy>  (349) 
-28.2787

>  <r_i_glide_einternal>  (349) 
0.471118

>  <r_i_glide_intrahb_reward>  (349) 
-0

>  <i_i_glide_confnum>  (349) 
2

>  <i_i_glide_posenum>  (349) 
36

>  <r_i_glide_eff_state_penalty>  (349) 
0

>  <ligand_id>  (349) 
109

>  <original_smiles>  (349) 
Cn1nccc1C(=O)NC1CC2CCC(C1)N2C1C2CC3CC(C2)CC1C3

>  <smiles>  (349) 
[H]c1nn(C([H])([H])[H])c(C(=O)N([H])C2([H])C([H])([H])C3([H])C([H])([H])C([H])([H])C([H])(C2([H])[H])[N+]3([H])C2([H])C3([H])C([H])([H])C4([H])C([H])([H])C([H])(C3([H])[H])C([H])([H])C2([H])C4([H])[H])c1[H]

$$$$
110:0:0
     RDKit          3D

 72 78  0  0  1  0  0  0  0  0999 V2000
    0.1759   -7.6780    5.7860 C   0  0  0  0  0  0  0  0  0  0  0  0
    0.1171   -6.5955    4.7160 C   0  0  0  0  0  0  0  0  0  0  0  0
   -0.6860   -6.6526    3.7799 O   0  0  0  0  0  0  0  0  0  0  0  0
    1.0215   -5.6245    4.9265 O   0  0  0  0  0  0  0  0  0  0  0  0
    1.1439   -4.5343    4.0136 C   0  0  2  0  0  0  0  0  0  0  0  0
    1.9549   -4.8502    2.7632 C   0  0  1  0  0  0  0  0  0  0  0  0
    2.5439   -3.4287    2.3258 C   0  0  1  0  0  0  0  0  0  0  0  0
    2.2473   -2.5752    3.4274 O   0  0  0  0  0  0  0  0  0  0  0  0
    1.9318   -3.3468    4.5688 C   0  0  1  0  0  0  0  0  0  0  0  0
    1.1919   -2.4565    5.5922 C   0  0  0  0  0  0  0  0  0  0  0  0
   -0.1573   -2.2210    5.2326 O   0  0  0  0  0  0  0  0  0  0  0  0
    3.3087   -3.7725    5.0700 C   0  0  0  0  0  0  0  0  0  0  0  0
    3.9209   -4.9702    4.2905 C   0  0  2  0  0  0  0  0  0  0  0  0
    5.4450   -4.9079    4.2338 C   0  0  1  0  0  0  0  0  0  0  0  0
    6.1448   -5.6594    5.3902 C   0  0  0  0  0  0  0  0  0  0  0  0
    5.7127   -5.5149    2.8771 C   0  0  1  0  0  0  0  0  0  0  0  0
    7.0920   -5.5190    2.6004 O   0  0  0  0  0  0  0  0  0  0  0  0
    5.1921   -6.8847    3.0296 O   0  0  0  0  0  0  0  0  0  0  0  0
    3.7186   -7.0683    3.1873 C   0  0  0  0  0  0  0  0  0  0  0  0
    3.2395   -5.6211    2.9423 C   0  0  1  0  0  0  0  0  0  0  0  0
    3.8219   -5.5934    1.4325 C   0  0  1  0  0  0  0  0  0  0  0  0
    2.9969   -5.3321    0.1196 C   0  0  0  0  0  0  0  0  0  0  0  0
    3.1255   -3.9491   -0.5736 C   0  0  1  0  0  0  0  0  0  0  0  0
    1.8407   -3.4613   -0.9354 O   0  0  0  0  0  0  0  0  0  0  0  0
    3.9165   -2.8773    0.2294 C   0  0  2  0  0  0  0  0  0  0  0  0
    5.1507   -2.2921   -0.5920 C   0  0  0  0  0  0  0  0  0  0  0  0
    6.1828   -3.3277   -1.1310 C   0  0  0  0  0  0  0  0  0  0  0  0
    4.6087   -1.5107   -1.8163 C   0  0  0  0  0  0  0  0  0  0  0  0
    5.9267   -1.2661    0.2560 C   0  0  0  0  0  0  0  0  0  0  0  0
    6.2002   -1.7604    1.6746 C   0  0  0  0  0  0  0  0  0  0  0  0
    4.8929   -2.0949    2.3940 C   0  0  1  0  0  0  0  0  0  0  0  0
    4.1491   -0.8889    2.4597 O   0  0  0  0  0  0  0  0  0  0  0  0
    4.1059   -3.2957    1.7522 C   0  0  1  0  0  0  0  0  0  0  0  0
    4.9406   -4.7050    1.6722 C   0  0  1  0  0  0  0  0  0  0  0  0
    0.0335   -7.2414    6.7762 H   0  0  0  0  0  0  0  0  0  0  0  0
    1.1516   -8.1636    5.7580 H   0  0  0  0  0  0  0  0  0  0  0  0
   -0.5931   -8.4335    5.6193 H   0  0  0  0  0  0  0  0  0  0  0  0
    0.1580   -4.1842    3.7126 H   0  0  0  0  0  0  0  0  0  0  0  0
    1.2769   -5.3183    2.0581 H   0  0  0  0  0  0  0  0  0  0  0  0
    1.8451   -3.0397    1.5900 H   0  0  0  0  0  0  0  0  0  0  0  0
    1.1846   -2.9311    6.5748 H   0  0  0  0  0  0  0  0  0  0  0  0
    1.7037   -1.4999    5.7039 H   0  0  0  0  0  0  0  0  0  0  0  0
   -0.1614   -1.7635    4.4048 H   0  0  0  0  0  0  0  0  0  0  0  0
    3.9676   -2.9077    5.0713 H   0  0  0  0  0  0  0  0  0  0  0  0
    3.2316   -4.0467    6.1236 H   0  0  0  0  0  0  0  0  0  0  0  0
    3.7179   -5.7049    5.0706 H   0  0  0  0  0  0  0  0  0  0  0  0
    5.8318   -3.9019    4.2601 H   0  0  0  0  0  0  0  0  0  0  0  0
    5.8478   -6.7084    5.4518 H   0  0  0  0  0  0  0  0  0  0  0  0
    5.8902   -5.1980    6.3463 H   0  0  0  0  0  0  0  0  0  0  0  0
    7.2313   -5.6234    5.3001 H   0  0  0  0  0  0  0  0  0  0  0  0
    7.5279   -5.9246    3.3366 H   0  0  0  0  0  0  0  0  0  0  0  0
    3.3259   -7.7914    2.4695 H   0  0  0  0  0  0  0  0  0  0  0  0
    3.4720   -7.4966    4.1609 H   0  0  0  0  0  0  0  0  0  0  0  0
    4.2653   -6.5310    1.0820 H   0  0  0  0  0  0  0  0  0  0  0  0
    3.4087   -6.0386   -0.5954 H   0  0  0  0  0  0  0  0  0  0  0  0
    1.9610   -5.6560    0.1679 H   0  0  0  0  0  0  0  0  0  0  0  0
    3.6144   -4.1242   -1.5286 H   0  0  0  0  0  0  0  0  0  0  0  0
    1.8728   -2.5253   -1.1153 H   0  0  0  0  0  0  0  0  0  0  0  0
    3.2533   -2.0135    0.2841 H   0  0  0  0  0  0  0  0  0  0  0  0
    6.7716   -2.9132   -1.9513 H   0  0  0  0  0  0  0  0  0  0  0  0
    5.7294   -4.2410   -1.5133 H   0  0  0  0  0  0  0  0  0  0  0  0
    6.9142   -3.6200   -0.3781 H   0  0  0  0  0  0  0  0  0  0  0  0
    5.4139   -0.9980   -2.3470 H   0  0  0  0  0  0  0  0  0  0  0  0
    3.8934   -0.7422   -1.5122 H   0  0  0  0  0  0  0  0  0  0  0  0
    4.1060   -2.1590   -2.5368 H   0  0  0  0  0  0  0  0  0  0  0  0
    6.8777   -1.0339   -0.2155 H   0  0  0  0  0  0  0  0  0  0  0  0
    5.3851   -0.3190    0.2977 H   0  0  0  0  0  0  0  0  0  0  0  0
    6.8610   -2.6273    1.6649 H   0  0  0  0  0  0  0  0  0  0  0  0
    6.7293   -0.9855    2.2272 H   0  0  0  0  0  0  0  0  0  0  0  0
    5.1306   -2.2735    3.4257 H   0  0  0  0  0  0  0  0  0  0  0  0
    3.8808   -0.6534    1.5867 H   0  0  0  0  0  0  0  0  0  0  0  0
    5.5899   -4.7638    0.8110 H   0  0  0  0  0  0  0  0  0  0  0  0
  1  2  1  0
  1 35  1  0
  1 36  1  0
  1 37  1  0
  2  3  2  0
  2  4  1  0
  4  5  1  0
  5  9  1  0
  5  6  1  0
  5 38  1  6
  6 20  1  0
  6  7  1  0
  6 39  1  6
  7 33  1  0
  7  8  1  0
  7 40  1  6
  8  9  1  0
  9 10  1  1
  9 12  1  0
 10 11  1  0
 10 41  1  0
 10 42  1  0
 11 43  1  0
 12 13  1  0
 12 44  1  0
 12 45  1  0
 13 20  1  0
 13 14  1  0
 13 46  1  1
 14 15  1  0
 14 16  1  0
 14 47  1  6
 15 48  1  0
 15 49  1  0
 15 50  1  0
 16 34  1  0
 16 17  1  6
 16 18  1  0
 17 51  1  0
 18 19  1  0
 20 19  1  1
 19 52  1  0
 19 53  1  0
 20 21  1  0
 21 34  1  0
 21 22  1  0
 21 54  1  6
 22 23  1  0
 22 55  1  0
 22 56  1  0
 23 24  1  0
 23 25  1  0
 23 57  1  6
 24 58  1  0
 25 33  1  0
 25 26  1  0
 25 59  1  1
 26 27  1  0
 26 28  1  0
 26 29  1  0
 27 60  1  0
 27 61  1  0
 27 62  1  0
 28 63  1  0
 28 64  1  0
 28 65  1  0
 29 30  1  0
 29 66  1  0
 29 67  1  0
 30 31  1  0
 30 68  1  0
 30 69  1  0
 31 32  1  0
 33 31  1  1
 31 70  1  1
 32 71  1  0
 33 34  1  0
 34 72  1  6
M  END
>  <i_m_ct_stereo_status>  (350) 
1

>  <s_m_source_file>  (350) 
/var/tmp/pbs.5076255.sched01/tmpy8l6melh/117u1qm2xak.sdf

>  <i_m_source_file_index>  (350) 
38

>  <i_lp_mmshare_version>  (350) 
48012

>  <i_f3d_flags>  (350) 
0

>  <s_epik_input>  (350) 
W0NIM11DKD1PKU9bQ0BIXTFbQ0BAXShPMikoW0NIMl1bT0hdKVtDSDJdW0NAQEhdM1tDQEBIXShbQ0gzXSlbQ0BAXShbT0hdKShPW0NIMl00KVtDQEhdNVtDQEhdNltDSDJdW0NAQEhdKFtPSF0pW0NAQEhdKFtDQEBdNTdbQ0BIXTJbQ0BIXTFbQ0BAXTM0NilDKFtDSDNdKShbQ0gzXSlbQ0gyXVtDSDJdW0NASF03W09IXQ==

>  <s_epik_cmdline>  (350) 
J2VwaWtfcHl0aG9uJywgJy1waHQnLCAnMi4wJywgJy1waCcsICc3LjAnLCAnLXRuJywgJzgnLCAnLW1hJywgJzIwMCcsICctaW1hZScsICc8aW5maWxlLm1hZT4nLCAnLW9tYWUnLCAnPG91dGZpbGUubWFlPic=

>  <r_lp_tautomer_probability>  (350) 
1

>  <r_epik_Ionization_Penalty>  (350) 
9.04151e-07

>  <r_epik_Ionization_Penalty_Charging>  (350) 
0

>  <r_epik_Ionization_Penalty_Neutral>  (350) 
9.04151e-07

>  <r_epik_State_Penalty>  (350) 
-0

>  <r_epik_Charging_Adjusted_Penalty>  (350) 
0

>  <i_epik_Tot_Q>  (350) 
0

>  <i_epik_Tot_abs_Q>  (350) 
0

>  <s_epik_Chemistry_Notes>  (350) 
This compound has an ester and may undergo hydrolysis at high or low pH.

>  <s_lp_Force_Field>  (350) 
OPLS3e

>  <r_lp_Energy>  (350) 
206.374

>  <b_lp_Chiralities_Consistent>  (350) 
1

>  <s_lp_Variant>  (350) 
110:0-1

>  <s_i_glide_gridfile>  (350) 
pfpi4k_grid

>  <i_i_glide_lignum>  (350) 
38

>  <i_i_glide_rotatable_bonds>  (350) 
7

>  <r_i_docking_score>  (350) 
-2.55853

>  <r_i_glide_ligand_efficiency>  (350) 
-0.0752508

>  <r_i_glide_ligand_efficiency_sa>  (350) 
-0.243784

>  <r_i_glide_ligand_efficiency_ln>  (350) 
-0.565251

>  <r_i_glide_gscore>  (350) 
-2.55853

>  <r_i_glide_lipo>  (350) 
-0.456484

>  <r_i_glide_hbond>  (350) 
-0.237914

>  <r_i_glide_metal>  (350) 
-0

>  <r_i_glide_rewards>  (350) 
-0.161481

>  <r_i_glide_evdw>  (350) 
-19.7964

>  <r_i_glide_ecoul>  (350) 
-5.78515

>  <r_i_glide_erotb>  (350) 
0.176965

>  <r_i_glide_esite>  (350) 
-0.0220207

>  <r_i_glide_emodel>  (350) 
-28.5651

>  <r_i_glide_energy>  (350) 
-25.5816

>  <r_i_glide_einternal>  (350) 
2.54255

>  <r_i_glide_intrahb_reward>  (350) 
-0

>  <i_i_glide_confnum>  (350) 
1

>  <i_i_glide_posenum>  (350) 
25

>  <r_i_glide_eff_state_penalty>  (350) 
0

>  <ligand_id>  (350) 
110

>  <original_smiles>  (350) 
CC(=O)OC1C2C3OC1(CO)CC1C(C)C4(O)OCC12C1CC(O)C2C(C)(C)CCC(O)C32C14

>  <smiles>  (350) 
[H]OC([H])([H])C12OC3([H])C([H])(C1([H])OC(=O)C([H])([H])[H])C14C([H])([H])OC(O[H])(C([H])(C([H])([H])[H])C1([H])C2([H])[H])C1([H])C4([H])C([H])([H])C([H])(O[H])C2([H])C(C([H])([H])[H])(C([H])([H])[H])C([H])([H])C([H])([H])C([H])(O[H])C312

$$$$
110:0:1
     RDKit          3D

 72 78  0  0  1  0  0  0  0  0999 V2000
    0.4527   -8.2916    4.5740 C   0  0  0  0  0  0  0  0  0  0  0  0
    0.3698   -7.0532    3.6702 C   0  0  0  0  0  0  0  0  0  0  0  0
   -0.5413   -6.8943    2.8739 O   0  0  0  0  0  0  0  0  0  0  0  0
    1.3963   -6.2020    3.9023 O   0  0  0  0  0  0  0  0  0  0  0  0
    1.4706   -4.9752    3.1736 C   0  0  2  0  0  0  0  0  0  0  0  0
    2.4166   -5.0174    1.9840 C   0  0  1  0  0  0  0  0  0  0  0  0
    2.8720   -3.4925    1.8230 C   0  0  1  0  0  0  0  0  0  0  0  0
    2.3875   -2.8488    2.9994 O   0  0  0  0  0  0  0  0  0  0  0  0
    2.0714   -3.8154    3.9732 C   0  0  1  0  0  0  0  0  0  0  0  0
    1.1522   -3.1735    5.0322 C   0  0  0  0  0  0  0  0  0  0  0  0
   -0.0882   -2.7729    4.4904 O   0  0  0  0  0  0  0  0  0  0  0  0
    3.4284   -4.1723    4.5541 C   0  0  0  0  0  0  0  0  0  0  0  0
    4.2484   -5.1663    3.6817 C   0  0  2  0  0  0  0  0  0  0  0  0
    5.7618   -4.9457    3.7752 C   0  0  1  0  0  0  0  0  0  0  0  0
    6.4397   -5.7867    4.8825 C   0  0  0  0  0  0  0  0  0  0  0  0
    6.2137   -5.3251    2.3783 C   0  0  1  0  0  0  0  0  0  0  0  0
    7.5920   -5.1974    2.1860 O   0  0  0  0  0  0  0  0  0  0  0  0
    5.8186   -6.7436    2.2926 O   0  0  0  0  0  0  0  0  0  0  0  0
    4.3674   -7.0848    2.2667 C   0  0  0  0  0  0  0  0  0  0  0  0
    3.7552   -5.6682    2.1910 C   0  0  1  0  0  0  0  0  0  0  0  0
    4.4832   -5.3283    0.7911 C   0  0  1  0  0  0  0  0  0  0  0  0
    3.8047   -4.9350   -0.5492 C   0  0  0  0  0  0  0  0  0  0  0  0
    3.7711   -3.4766   -1.0251 C   0  0  1  0  0  0  0  0  0  0  0  0
    2.4544   -3.1200   -1.4167 O   0  0  0  0  0  0  0  0  0  0  0  0
    4.3454   -2.4716   -0.0087 C   0  0  2  0  0  0  0  0  0  0  0  0
    5.5676   -1.6560   -0.6187 C   0  0  0  0  0  0  0  0  0  0  0  0
    6.7620   -2.4888   -1.1920 C   0  0  0  0  0  0  0  0  0  0  0  0
    5.0423   -0.7826   -1.7880 C   0  0  0  0  0  0  0  0  0  0  0  0
    6.1180   -0.6812    0.4357 C   0  0  0  0  0  0  0  0  0  0  0  0
    6.3183   -1.3727    1.7735 C   0  0  0  0  0  0  0  0  0  0  0  0
    5.0164   -1.9402    2.3234 C   0  0  1  0  0  0  0  0  0  0  0  0
    4.1249   -0.8483    2.4730 O   0  0  0  0  0  0  0  0  0  0  0  0
    4.4525   -3.1088    1.4471 C   0  0  1  0  0  0  0  0  0  0  0  0
    5.4612   -4.3881    1.2521 C   0  0  1  0  0  0  0  0  0  0  0  0
    0.4680   -7.9912    5.6215 H   0  0  0  0  0  0  0  0  0  0  0  0
    1.3665   -8.8489    4.3682 H   0  0  0  0  0  0  0  0  0  0  0  0
   -0.3996   -8.9551    4.4182 H   0  0  0  0  0  0  0  0  0  0  0  0
    0.4791   -4.6659    2.8354 H   0  0  0  0  0  0  0  0  0  0  0  0
    1.8683   -5.4447    1.1544 H   0  0  0  0  0  0  0  0  0  0  0  0
    2.2023   -3.0668    1.0783 H   0  0  0  0  0  0  0  0  0  0  0  0
    0.9508   -3.8812    5.8380 H   0  0  0  0  0  0  0  0  0  0  0  0
    1.6315   -2.3006    5.4720 H   0  0  0  0  0  0  0  0  0  0  0  0
    0.0834   -2.2041    3.7551 H   0  0  0  0  0  0  0  0  0  0  0  0
    3.9837   -3.2619    4.7489 H   0  0  0  0  0  0  0  0  0  0  0  0
    3.2754   -4.6236    5.5311 H   0  0  0  0  0  0  0  0  0  0  0  0
    4.0655   -6.0354    4.3191 H   0  0  0  0  0  0  0  0  0  0  0  0
    6.0105   -3.9210    3.9854 H   0  0  0  0  0  0  0  0  0  0  0  0
    6.2580   -6.8532    4.7588 H   0  0  0  0  0  0  0  0  0  0  0  0
    6.0399   -5.5014    5.8587 H   0  0  0  0  0  0  0  0  0  0  0  0
    7.5121   -5.6163    4.9082 H   0  0  0  0  0  0  0  0  0  0  0  0
    8.0256   -5.6382    2.9073 H   0  0  0  0  0  0  0  0  0  0  0  0
    4.1354   -7.7160    1.4082 H   0  0  0  0  0  0  0  0  0  0  0  0
    4.0982   -7.6862    3.1380 H   0  0  0  0  0  0  0  0  0  0  0  0
    5.0418   -6.1647    0.3588 H   0  0  0  0  0  0  0  0  0  0  0  0
    4.4684   -5.3904   -1.2799 H   0  0  0  0  0  0  0  0  0  0  0  0
    2.8248   -5.3827   -0.6797 H   0  0  0  0  0  0  0  0  0  0  0  0
    4.3435   -3.4472   -1.9513 H   0  0  0  0  0  0  0  0  0  0  0  0
    2.3170   -2.1813   -1.3336 H   0  0  0  0  0  0  0  0  0  0  0  0
    3.5838   -1.6967    0.0932 H   0  0  0  0  0  0  0  0  0  0  0  0
    7.3612   -1.9079   -1.8920 H   0  0  0  0  0  0  0  0  0  0  0  0
    6.4563   -3.3782   -1.7400 H   0  0  0  0  0  0  0  0  0  0  0  0
    7.4641   -2.8104   -0.4201 H   0  0  0  0  0  0  0  0  0  0  0  0
    5.8015   -0.1219   -2.1592 H   0  0  0  0  0  0  0  0  0  0  0  0
    4.2157   -0.1605   -1.4461 H   0  0  0  0  0  0  0  0  0  0  0  0
    4.6899   -1.3716   -2.6356 H   0  0  0  0  0  0  0  0  0  0  0  0
    7.0743   -0.2871    0.1107 H   0  0  0  0  0  0  0  0  0  0  0  0
    5.4627    0.1835    0.5455 H   0  0  0  0  0  0  0  0  0  0  0  0
    7.0238   -2.1877    1.6466 H   0  0  0  0  0  0  0  0  0  0  0  0
    6.7474   -0.6791    2.4894 H   0  0  0  0  0  0  0  0  0  0  0  0
    5.1999   -2.2479    3.3373 H   0  0  0  0  0  0  0  0  0  0  0  0
    3.8231   -0.5936    1.6196 H   0  0  0  0  0  0  0  0  0  0  0  0
    6.1739   -4.2551    0.4522 H   0  0  0  0  0  0  0  0  0  0  0  0
  1  2  1  0
  1 35  1  0
  1 36  1  0
  1 37  1  0
  2  3  2  0
  2  4  1  0
  4  5  1  0
  5  9  1  0
  5  6  1  0
  5 38  1  6
  6 20  1  0
  6  7  1  0
  6 39  1  6
  7 33  1  0
  7  8  1  0
  7 40  1  6
  8  9  1  0
  9 10  1  1
  9 12  1  0
 10 11  1  0
 10 41  1  0
 10 42  1  0
 11 43  1  0
 12 13  1  0
 12 44  1  0
 12 45  1  0
 13 20  1  0
 13 14  1  0
 13 46  1  1
 14 15  1  0
 14 16  1  0
 14 47  1  1
 15 48  1  0
 15 49  1  0
 15 50  1  0
 16 34  1  0
 16 17  1  1
 16 18  1  0
 17 51  1  0
 18 19  1  0
 20 19  1  1
 19 52  1  0
 19 53  1  0
 20 21  1  0
 21 34  1  0
 21 22  1  0
 21 54  1  6
 22 23  1  0
 22 55  1  0
 22 56  1  0
 23 24  1  0
 23 25  1  0
 23 57  1  6
 24 58  1  0
 25 33  1  0
 25 26  1  0
 25 59  1  1
 26 27  1  0
 26 28  1  0
 26 29  1  0
 27 60  1  0
 27 61  1  0
 27 62  1  0
 28 63  1  0
 28 64  1  0
 28 65  1  0
 29 30  1  0
 29 66  1  0
 29 67  1  0
 30 31  1  0
 30 68  1  0
 30 69  1  0
 31 32  1  0
 33 31  1  1
 31 70  1  1
 32 71  1  0
 33 34  1  0
 34 72  1  6
M  END
>  <i_m_ct_stereo_status>  (351) 
1

>  <s_m_source_file>  (351) 
/var/tmp/pbs.5076255.sched01/tmpy8l6melh/117u1qm2xak.sdf

>  <i_m_source_file_index>  (351) 
38

>  <i_lp_mmshare_version>  (351) 
48012

>  <i_f3d_flags>  (351) 
0

>  <s_epik_input>  (351) 
W0NIM11DKD1PKU9bQ0BIXTFbQ0BAXShPMikoW0NIMl1bT0hdKVtDSDJdW0NAQEhdM1tDQEBIXShbQ0gzXSlbQ0BAXShbT0hdKShPW0NIMl00KVtDQEhdNVtDQEhdNltDSDJdW0NAQEhdKFtPSF0pW0NAQEhdKFtDQEBdNTdbQ0BIXTJbQ0BIXTFbQ0BAXTM0NilDKFtDSDNdKShbQ0gzXSlbQ0gyXVtDSDJdW0NASF03W09IXQ==

>  <s_epik_cmdline>  (351) 
J2VwaWtfcHl0aG9uJywgJy1waHQnLCAnMi4wJywgJy1waCcsICc3LjAnLCAnLXRuJywgJzgnLCAnLW1hJywgJzIwMCcsICctaW1hZScsICc8aW5maWxlLm1hZT4nLCAnLW9tYWUnLCAnPG91dGZpbGUubWFlPic=

>  <r_lp_tautomer_probability>  (351) 
1

>  <r_epik_Ionization_Penalty>  (351) 
9.04151e-07

>  <r_epik_Ionization_Penalty_Charging>  (351) 
0

>  <r_epik_Ionization_Penalty_Neutral>  (351) 
9.04151e-07

>  <r_epik_State_Penalty>  (351) 
-0

>  <r_epik_Charging_Adjusted_Penalty>  (351) 
0

>  <i_epik_Tot_Q>  (351) 
0

>  <i_epik_Tot_abs_Q>  (351) 
0

>  <s_epik_Chemistry_Notes>  (351) 
This compound has an ester and may undergo hydrolysis at high or low pH.

>  <s_lp_Force_Field>  (351) 
OPLS3e

>  <r_lp_Energy>  (351) 
206.374

>  <b_lp_Chiralities_Consistent>  (351) 
1

>  <s_lp_Variant>  (351) 
110:0-1

>  <s_i_glide_gridfile>  (351) 
pfpi4k_grid

>  <i_i_glide_lignum>  (351) 
38

>  <i_i_glide_rotatable_bonds>  (351) 
7

>  <r_i_docking_score>  (351) 
-2.31611

>  <r_i_glide_ligand_efficiency>  (351) 
-0.0681208

>  <r_i_glide_ligand_efficiency_sa>  (351) 
-0.220685

>  <r_i_glide_ligand_efficiency_ln>  (351) 
-0.511693

>  <r_i_glide_gscore>  (351) 
-2.31611

>  <r_i_glide_lipo>  (351) 
-0.508043

>  <r_i_glide_hbond>  (351) 
-0.267082

>  <r_i_glide_metal>  (351) 
-0

>  <r_i_glide_rewards>  (351) 
-0.191884

>  <r_i_glide_evdw>  (351) 
-17.9274

>  <r_i_glide_ecoul>  (351) 
-3.96172

>  <r_i_glide_erotb>  (351) 
0.176965

>  <r_i_glide_esite>  (351) 
-0.0354378

>  <r_i_glide_emodel>  (351) 
-23.4463

>  <r_i_glide_energy>  (351) 
-21.8891

>  <r_i_glide_einternal>  (351) 
3.66226

>  <r_i_glide_intrahb_reward>  (351) 
-0

>  <i_i_glide_confnum>  (351) 
3

>  <i_i_glide_posenum>  (351) 
9

>  <r_i_glide_eff_state_penalty>  (351) 
0

>  <ligand_id>  (351) 
110

>  <original_smiles>  (351) 
CC(=O)OC1C2C3OC1(CO)CC1C(C)C4(O)OCC12C1CC(O)C2C(C)(C)CCC(O)C32C14

>  <smiles>  (351) 
[H]OC([H])([H])C12OC3([H])C([H])(C1([H])OC(=O)C([H])([H])[H])C14C([H])([H])OC(O[H])(C([H])(C([H])([H])[H])C1([H])C2([H])[H])C1([H])C4([H])C([H])([H])C([H])(O[H])C2([H])C(C([H])([H])[H])(C([H])([H])[H])C([H])([H])C([H])([H])C([H])(O[H])C312

$$$$
110:0:2
     RDKit          3D

 72 78  0  0  1  0  0  0  0  0999 V2000
    0.6783   -8.8080    5.3750 C   0  0  0  0  0  0  0  0  0  0  0  0
    0.4660   -7.5590    4.5270 C   0  0  0  0  0  0  0  0  0  0  0  0
   -0.6029   -7.3458    3.9423 O   0  0  0  0  0  0  0  0  0  0  0  0
    1.5488   -6.7597    4.5147 O   0  0  0  0  0  0  0  0  0  0  0  0
    1.5361   -5.5373    3.7766 C   0  0  2  0  0  0  0  0  0  0  0  0
    2.4233   -5.5721    2.5382 C   0  0  1  0  0  0  0  0  0  0  0  0
    2.8125   -4.0362    2.3216 C   0  0  1  0  0  0  0  0  0  0  0  0
    2.3900   -3.3922    3.5170 O   0  0  0  0  0  0  0  0  0  0  0  0
    2.1343   -4.3469    4.5230 C   0  0  1  0  0  0  0  0  0  0  0  0
    1.2604   -3.7160    5.6267 C   0  0  0  0  0  0  0  0  0  0  0  0
   -0.0891   -3.5797    5.2438 O   0  0  0  0  0  0  0  0  0  0  0  0
    3.5449   -4.6423    5.0222 C   0  0  0  0  0  0  0  0  0  0  0  0
    4.3458   -5.6237    4.1289 C   0  0  2  0  0  0  0  0  0  0  0  0
    5.8451   -5.3388    4.1445 C   0  0  1  0  0  0  0  0  0  0  0  0
    6.6193   -6.1422    5.2115 C   0  0  0  0  0  0  0  0  0  0  0  0
    6.2404   -5.7118    2.7310 C   0  0  1  0  0  0  0  0  0  0  0  0
    7.6095   -5.4973    2.4987 O   0  0  0  0  0  0  0  0  0  0  0  0
    5.9040   -7.1507    2.6870 O   0  0  0  0  0  0  0  0  0  0  0  0
    4.4748   -7.5557    2.7449 C   0  0  0  0  0  0  0  0  0  0  0  0
    3.8016   -6.1668    2.6829 C   0  0  1  0  0  0  0  0  0  0  0  0
    4.4231   -5.8427    1.2314 C   0  0  1  0  0  0  0  0  0  0  0  0
    3.6353   -5.5290   -0.0772 C   0  0  0  0  0  0  0  0  0  0  0  0
    3.5515   -4.0654   -0.5774 C   0  0  1  0  0  0  0  0  0  0  0  0
    2.2107   -3.7229   -0.8806 O   0  0  0  0  0  0  0  0  0  0  0  0
    4.1503   -3.0111    0.3892 C   0  0  2  0  0  0  0  0  0  0  0  0
    5.3030   -2.1476   -0.2949 C   0  0  0  0  0  0  0  0  0  0  0  0
    6.4863   -2.9409   -0.9274 C   0  0  0  0  0  0  0  0  0  0  0  0
    4.6901   -1.2938   -1.4341 C   0  0  0  0  0  0  0  0  0  0  0  0
    5.8884   -1.1415    0.7106 C   0  0  0  0  0  0  0  0  0  0  0  0
    6.1871   -1.7903    2.0540 C   0  0  0  0  0  0  0  0  0  0  0  0
    4.9349   -2.4053    2.6710 C   0  0  1  0  0  0  0  0  0  0  0  0
    4.0289   -1.3368    2.8635 O   0  0  0  0  0  0  0  0  0  0  0  0
    4.3533   -3.6074    1.8472 C   0  0  1  0  0  0  0  0  0  0  0  0
    5.3902   -4.8561    1.6194 C   0  0  1  0  0  0  0  0  0  0  0  0
    0.9424   -8.5342    6.3970 H   0  0  0  0  0  0  0  0  0  0  0  0
    1.4919   -9.4065    4.9644 H   0  0  0  0  0  0  0  0  0  0  0  0
   -0.2202   -9.4269    5.4050 H   0  0  0  0  0  0  0  0  0  0  0  0
    0.5264   -5.2622    3.4649 H   0  0  0  0  0  0  0  0  0  0  0  0
    1.8382   -6.0257    1.7417 H   0  0  0  0  0  0  0  0  0  0  0  0
    2.0836   -3.6428    1.6189 H   0  0  0  0  0  0  0  0  0  0  0  0
    1.2716   -4.3403    6.5208 H   0  0  0  0  0  0  0  0  0  0  0  0
    1.6569   -2.7420    5.9115 H   0  0  0  0  0  0  0  0  0  0  0  0
   -0.5283   -3.0271    5.8743 H   0  0  0  0  0  0  0  0  0  0  0  0
    4.0811   -3.7084    5.1801 H   0  0  0  0  0  0  0  0  0  0  0  0
    3.4784   -5.0761    6.0228 H   0  0  0  0  0  0  0  0  0  0  0  0
    4.2345   -6.4852    4.7886 H   0  0  0  0  0  0  0  0  0  0  0  0
    6.1005   -4.3026    4.3210 H   0  0  0  0  0  0  0  0  0  0  0  0
    6.4743   -7.2221    5.1190 H   0  0  0  0  0  0  0  0  0  0  0  0
    6.2774   -5.8610    6.2094 H   0  0  0  0  0  0  0  0  0  0  0  0
    7.6929   -5.9439    5.1788 H   0  0  0  0  0  0  0  0  0  0  0  0
    8.0851   -5.8880    3.2247 H   0  0  0  0  0  0  0  0  0  0  0  0
    4.2117   -8.2177    1.9164 H   0  0  0  0  0  0  0  0  0  0  0  0
    4.2699   -8.1516    3.6362 H   0  0  0  0  0  0  0  0  0  0  0  0
    5.0010   -6.6573    0.7894 H   0  0  0  0  0  0  0  0  0  0  0  0
    4.2217   -6.0309   -0.8427 H   0  0  0  0  0  0  0  0  0  0  0  0
    2.6660   -6.0107   -0.1476 H   0  0  0  0  0  0  0  0  0  0  0  0
    4.0545   -4.0396   -1.5417 H   0  0  0  0  0  0  0  0  0  0  0  0
    2.1930   -2.8522   -1.2644 H   0  0  0  0  0  0  0  0  0  0  0  0
    3.3658   -2.2640    0.5170 H   0  0  0  0  0  0  0  0  0  0  0  0
    7.0320   -2.3396   -1.6579 H   0  0  0  0  0  0  0  0  0  0  0  0
    6.1778   -3.8461   -1.4496 H   0  0  0  0  0  0  0  0  0  0  0  0
    7.2312   -3.2325   -0.1885 H   0  0  0  0  0  0  0  0  0  0  0  0
    5.4222   -0.6018   -1.8597 H   0  0  0  0  0  0  0  0  0  0  0  0
    3.8642   -0.6804   -1.0632 H   0  0  0  0  0  0  0  0  0  0  0  0
    4.3010   -1.8994   -2.2572 H   0  0  0  0  0  0  0  0  0  0  0  0
    6.8118   -0.7148    0.3238 H   0  0  0  0  0  0  0  0  0  0  0  0
    5.2147   -0.2957    0.8465 H   0  0  0  0  0  0  0  0  0  0  0  0
    6.9525   -2.5563    1.9366 H   0  0  0  0  0  0  0  0  0  0  0  0
    6.5857   -1.0351    2.7294 H   0  0  0  0  0  0  0  0  0  0  0  0
    5.1762   -2.6947    3.6771 H   0  0  0  0  0  0  0  0  0  0  0  0
    3.7503   -1.0193    2.0152 H   0  0  0  0  0  0  0  0  0  0  0  0
    6.0568   -4.7092    0.7789 H   0  0  0  0  0  0  0  0  0  0  0  0
  1  2  1  0
  1 35  1  0
  1 36  1  0
  1 37  1  0
  2  3  2  0
  2  4  1  0
  4  5  1  0
  5  9  1  0
  5  6  1  0
  5 38  1  6
  6 20  1  0
  6  7  1  0
  6 39  1  6
  7 33  1  0
  7  8  1  0
  7 40  1  6
  8  9  1  0
  9 10  1  1
  9 12  1  0
 10 11  1  0
 10 41  1  0
 10 42  1  0
 11 43  1  0
 12 13  1  0
 12 44  1  0
 12 45  1  0
 13 20  1  0
 13 14  1  0
 13 46  1  1
 14 15  1  0
 14 16  1  0
 14 47  1  1
 15 48  1  0
 15 49  1  0
 15 50  1  0
 16 34  1  0
 16 17  1  1
 16 18  1  0
 17 51  1  0
 18 19  1  0
 20 19  1  1
 19 52  1  0
 19 53  1  0
 20 21  1  0
 21 34  1  0
 21 22  1  0
 21 54  1  6
 22 23  1  0
 22 55  1  0
 22 56  1  0
 23 24  1  0
 23 25  1  0
 23 57  1  6
 24 58  1  0
 25 33  1  0
 25 26  1  0
 25 59  1  1
 26 27  1  0
 26 28  1  0
 26 29  1  0
 27 60  1  0
 27 61  1  0
 27 62  1  0
 28 63  1  0
 28 64  1  0
 28 65  1  0
 29 30  1  0
 29 66  1  0
 29 67  1  0
 30 31  1  0
 30 68  1  0
 30 69  1  0
 31 32  1  0
 33 31  1  1
 31 70  1  1
 32 71  1  0
 33 34  1  0
 34 72  1  6
M  END
>  <i_m_ct_stereo_status>  (352) 
1

>  <s_m_source_file>  (352) 
/var/tmp/pbs.5076255.sched01/tmpy8l6melh/117u1qm2xak.sdf

>  <i_m_source_file_index>  (352) 
38

>  <i_lp_mmshare_version>  (352) 
48012

>  <i_f3d_flags>  (352) 
0

>  <s_epik_input>  (352) 
W0NIM11DKD1PKU9bQ0BIXTFbQ0BAXShPMikoW0NIMl1bT0hdKVtDSDJdW0NAQEhdM1tDQEBIXShbQ0gzXSlbQ0BAXShbT0hdKShPW0NIMl00KVtDQEhdNVtDQEhdNltDSDJdW0NAQEhdKFtPSF0pW0NAQEhdKFtDQEBdNTdbQ0BIXTJbQ0BIXTFbQ0BAXTM0NilDKFtDSDNdKShbQ0gzXSlbQ0gyXVtDSDJdW0NASF03W09IXQ==

>  <s_epik_cmdline>  (352) 
J2VwaWtfcHl0aG9uJywgJy1waHQnLCAnMi4wJywgJy1waCcsICc3LjAnLCAnLXRuJywgJzgnLCAnLW1hJywgJzIwMCcsICctaW1hZScsICc8aW5maWxlLm1hZT4nLCAnLW9tYWUnLCAnPG91dGZpbGUubWFlPic=

>  <r_lp_tautomer_probability>  (352) 
1

>  <r_epik_Ionization_Penalty>  (352) 
9.04151e-07

>  <r_epik_Ionization_Penalty_Charging>  (352) 
0

>  <r_epik_Ionization_Penalty_Neutral>  (352) 
9.04151e-07

>  <r_epik_State_Penalty>  (352) 
-0

>  <r_epik_Charging_Adjusted_Penalty>  (352) 
0

>  <i_epik_Tot_Q>  (352) 
0

>  <i_epik_Tot_abs_Q>  (352) 
0

>  <s_epik_Chemistry_Notes>  (352) 
This compound has an ester and may undergo hydrolysis at high or low pH.

>  <s_lp_Force_Field>  (352) 
OPLS3e

>  <r_lp_Energy>  (352) 
206.374

>  <b_lp_Chiralities_Consistent>  (352) 
1

>  <s_lp_Variant>  (352) 
110:0-1

>  <s_i_glide_gridfile>  (352) 
pfpi4k_grid

>  <i_i_glide_lignum>  (352) 
38

>  <i_i_glide_rotatable_bonds>  (352) 
7

>  <r_i_docking_score>  (352) 
-1.49048

>  <r_i_glide_ligand_efficiency>  (352) 
-0.0438377

>  <r_i_glide_ligand_efficiency_sa>  (352) 
-0.142017

>  <r_i_glide_ligand_efficiency_ln>  (352) 
-0.329289

>  <r_i_glide_gscore>  (352) 
-1.49048

>  <r_i_glide_lipo>  (352) 
-0.426964

>  <r_i_glide_hbond>  (352) 
-0.00960705

>  <r_i_glide_metal>  (352) 
-0

>  <r_i_glide_rewards>  (352) 
-0.172833

>  <r_i_glide_evdw>  (352) 
-20.3709

>  <r_i_glide_ecoul>  (352) 
-0.119986

>  <r_i_glide_erotb>  (352) 
0.176965

>  <r_i_glide_esite>  (352) 
-0.0215015

>  <r_i_glide_emodel>  (352) 
-21.4323

>  <r_i_glide_energy>  (352) 
-20.4908

>  <r_i_glide_einternal>  (352) 
2.81832

>  <r_i_glide_intrahb_reward>  (352) 
-0

>  <i_i_glide_confnum>  (352) 
1

>  <i_i_glide_posenum>  (352) 
21

>  <r_i_glide_eff_state_penalty>  (352) 
0

>  <ligand_id>  (352) 
110

>  <original_smiles>  (352) 
CC(=O)OC1C2C3OC1(CO)CC1C(C)C4(O)OCC12C1CC(O)C2C(C)(C)CCC(O)C32C14

>  <smiles>  (352) 
[H]OC([H])([H])C12OC3([H])C([H])(C1([H])OC(=O)C([H])([H])[H])C14C([H])([H])OC(O[H])(C([H])(C([H])([H])[H])C1([H])C2([H])[H])C1([H])C4([H])C([H])([H])C([H])(O[H])C2([H])C(C([H])([H])[H])(C([H])([H])[H])C([H])([H])C([H])([H])C([H])(O[H])C312

$$$$
