4:0:0
     RDKit          3D

110118  0  0  1  0  0  0  0  0999 V2000
    4.6161   -3.9785    9.6402 C   0  0  0  0  0  0  0  0  0  0  0  0
    4.6232   -3.9691    8.2968 C   0  0  0  0  0  0  0  0  0  0  0  0
    4.5643   -2.6627    7.5536 C   0  0  0  0  0  0  0  0  0  0  0  0
    3.6093   -2.7636    6.3309 C   0  0  1  0  0  0  0  0  0  0  0  0
    4.0469   -3.9735    5.4067 C   0  0  2  0  0  0  0  0  0  0  0  0
    5.4611   -3.7746    5.2816 O   0  0  0  0  0  0  0  0  0  0  0  0
    3.5907   -3.7983    3.8823 C   0  0  1  0  0  0  0  0  0  0  0  0
    4.5600   -3.1559    3.0612 O   0  0  0  0  0  0  0  0  0  0  0  0
    2.9103   -4.9096    3.0219 C   0  0  2  0  0  0  0  0  0  0  0  0
    1.3858   -4.8548    3.0461 C   0  0  0  0  0  0  0  0  0  0  0  0
    0.9790   -5.7735    4.1978 C   0  0  0  0  0  0  0  0  0  0  0  0
    2.2107   -6.6460    4.6191 C   0  0  1  0  0  0  0  0  0  0  0  0
    1.5381   -8.0461    4.3916 C   0  0  0  0  0  0  0  0  0  0  0  0
    3.2008   -6.3758    3.3425 C   0  0  0  0  0  0  0  0  0  0  0  0
    2.8125   -7.1970    2.0482 C   0  0  0  0  0  0  0  0  0  0  0  0
    4.7403   -6.6254    3.3289 C   0  0  0  0  0  0  0  0  0  0  0  0
    2.7576   -6.3381    6.2030 C   0  0  1  0  0  0  0  0  0  0  0  0
    4.0545   -5.3743    6.1667 C   0  0  2  0  0  0  0  0  0  0  0  0
    4.8631   -5.1569    7.4945 C   0  0  0  0  0  0  0  0  0  0  0  0
    5.9862   -5.8471    7.7905 C   0  0  0  0  0  0  0  0  0  0  0  0
    1.7349   -5.5279    7.2544 C   0  0  2  0  0  0  0  0  0  0  0  0
    0.3660   -6.6297    7.9855 S   0  0  0  0  0  0  0  0  0  0  0  0
   -0.9487   -5.8555    8.0414 O   0  0  0  0  0  0  0  0  0  0  0  0
    1.0066   -6.7771    9.7493 C   0  0  2  0  0  0  0  0  0  0  0  0
    1.4832   -7.9420   10.6587 C   0  0  2  0  0  0  0  0  0  0  0  0
    0.4830   -8.8851   11.0004 O   0  0  0  0  0  0  0  0  0  0  0  0
    2.7826   -7.9173   11.4767 C   0  0  1  0  0  0  0  0  0  0  0  0
    2.8207   -8.8874   12.4912 O   0  0  0  0  0  0  0  0  0  0  0  0
    3.8342   -8.0648   10.5285 O   0  0  0  0  0  0  0  0  0  0  0  0
    3.3948   -7.4858    9.3418 C   0  0  1  0  0  0  0  0  0  0  0  0
    4.0160   -7.8037    8.1251 O   0  0  0  0  0  0  0  0  0  0  0  0
    3.2703   -7.8288    6.8625 C   0  0  2  0  0  0  0  0  0  0  0  0
    4.4340   -8.5125    6.0781 C   0  0  0  0  0  0  0  0  0  0  0  0
    2.1949   -8.9922    7.1027 C   0  0  1  0  0  0  0  0  0  0  0  0
    2.4413  -10.2394    6.4833 O   0  0  0  0  0  0  0  0  0  0  0  0
    1.7969   -9.2026    8.5545 C   0  0  1  0  0  0  0  0  0  0  0  0
    2.5284  -10.2532    9.1634 O   0  0  0  0  0  0  0  0  0  0  0  0
    1.9754   -7.8923    9.3305 C   0  0  2  0  0  0  0  0  0  0  0  0
    1.3514   -3.9130    7.4072 C   0  0  2  0  0  0  0  0  0  0  0  0
    1.0219   -3.6639    8.9087 C   0  0  0  0  0  0  0  0  0  0  0  0
    0.1054   -3.4215    6.5880 C   0  0  0  0  0  0  0  0  0  0  0  0
   -1.1176   -3.4455    6.7363 O   0  0  0  0  0  0  0  0  0  0  0  0
    1.0478   -2.7098    5.5992 C   0  0  1  0  0  0  0  0  0  0  0  0
    0.5174   -1.4546    4.8788 C   0  0  0  0  0  0  0  0  0  0  0  0
   -0.6470   -1.0525    4.8790 O   0  0  0  0  0  0  0  0  0  0  0  0
    1.5531   -0.6431    4.0662 C   0  0  0  0  0  0  0  0  0  0  0  0
    1.4437   -0.8508    2.5343 C   0  0  0  0  0  0  0  0  0  0  0  0
    2.6827   -0.3878    1.7635 C   0  0  0  0  0  0  0  0  0  0  0  0
    3.4255   -1.0890    0.8743 C   0  0  0  0  0  0  0  0  0  0  0  0
    3.1588   -2.5183    0.4267 C   0  0  0  0  0  0  0  0  0  0  0  0
    4.6466   -0.4907    0.2086 C   0  0  0  0  0  0  0  0  0  0  0  0
    2.0948   -2.6352    6.7390 C   0  0  2  0  0  0  0  0  0  0  0  0
    2.0093   -1.2666    7.5348 C   0  0  0  0  0  0  0  0  0  0  0  0
    0.7255   -0.7093    7.7636 O   0  0  0  0  0  0  0  0  0  0  0  0
    4.7645   -4.8818   10.2074 H   0  0  0  0  0  0  0  0  0  0  0  0
    4.4903   -3.0622   10.1936 H   0  0  0  0  0  0  0  0  0  0  0  0
    4.3775   -1.8345    8.2308 H   0  0  0  0  0  0  0  0  0  0  0  0
    5.5777   -2.4327    7.2234 H   0  0  0  0  0  0  0  0  0  0  0  0
    3.8478   -1.8787    5.7468 H   0  0  0  0  0  0  0  0  0  0  0  0
    5.7980   -4.4312    4.6947 H   0  0  0  0  0  0  0  0  0  0  0  0
    2.9091   -2.9717    3.8471 H   0  0  0  0  0  0  0  0  0  0  0  0
    5.2053   -3.7921    2.7925 H   0  0  0  0  0  0  0  0  0  0  0  0
    3.2150   -4.7446    1.9907 H   0  0  0  0  0  0  0  0  0  0  0  0
    0.9393   -3.8685    3.0758 H   0  0  0  0  0  0  0  0  0  0  0  0
    0.9937   -5.2525    2.1147 H   0  0  0  0  0  0  0  0  0  0  0  0
    0.5132   -5.2925    5.0304 H   0  0  0  0  0  0  0  0  0  0  0  0
    0.1251   -6.3376    3.8092 H   0  0  0  0  0  0  0  0  0  0  0  0
    2.2063   -8.8918    4.4709 H   0  0  0  0  0  0  0  0  0  0  0  0
    1.0904   -8.1944    3.4114 H   0  0  0  0  0  0  0  0  0  0  0  0
    0.6358   -8.1716    4.9807 H   0  0  0  0  0  0  0  0  0  0  0  0
    3.0623   -8.2538    2.1596 H   0  0  0  0  0  0  0  0  0  0  0  0
    3.3460   -6.8520    1.1615 H   0  0  0  0  0  0  0  0  0  0  0  0
    1.7660   -7.1489    1.7544 H   0  0  0  0  0  0  0  0  0  0  0  0
    5.0322   -7.5807    3.7423 H   0  0  0  0  0  0  0  0  0  0  0  0
    5.3463   -5.8373    3.7511 H   0  0  0  0  0  0  0  0  0  0  0  0
    5.1255   -6.6481    2.3103 H   0  0  0  0  0  0  0  0  0  0  0  0
    4.7804   -5.9748    5.6563 H   0  0  0  0  0  0  0  0  0  0  0  0
    6.5899   -5.5821    8.6485 H   0  0  0  0  0  0  0  0  0  0  0  0
    6.3609   -6.6560    7.1868 H   0  0  0  0  0  0  0  0  0  0  0  0
    2.4051   -5.5634    8.0859 H   0  0  0  0  0  0  0  0  0  0  0  0
    1.3825   -5.8379   10.1276 H   0  0  0  0  0  0  0  0  0  0  0  0
    0.9032   -9.7346   11.0322 H   0  0  0  0  0  0  0  0  0  0  0  0
    2.9018   -6.9432   11.9650 H   0  0  0  0  0  0  0  0  0  0  0  0
    2.7708   -9.7424   12.0876 H   0  0  0  0  0  0  0  0  0  0  0  0
    3.5184   -6.4224    9.4992 H   0  0  0  0  0  0  0  0  0  0  0  0
    4.1553   -8.9005    5.1057 H   0  0  0  0  0  0  0  0  0  0  0  0
    4.7870   -9.3853    6.6346 H   0  0  0  0  0  0  0  0  0  0  0  0
    5.3310   -7.9226    5.9479 H   0  0  0  0  0  0  0  0  0  0  0  0
    1.2428   -8.6988    6.7224 H   0  0  0  0  0  0  0  0  0  0  0  0
    1.8688  -10.9261    6.8608 H   0  0  0  0  0  0  0  0  0  0  0  0
    0.7534   -9.5187    8.5829 H   0  0  0  0  0  0  0  0  0  0  0  0
    2.3067  -11.0675    8.7128 H   0  0  0  0  0  0  0  0  0  0  0  0
    1.9081   -3.7729    9.5346 H   0  0  0  0  0  0  0  0  0  0  0  0
    0.2307   -4.2887    9.3112 H   0  0  0  0  0  0  0  0  0  0  0  0
    0.6220   -2.6837    9.1343 H   0  0  0  0  0  0  0  0  0  0  0  0
    1.4299    0.4127    4.3012 H   0  0  0  0  0  0  0  0  0  0  0  0
    2.5535   -0.8992    4.3981 H   0  0  0  0  0  0  0  0  0  0  0  0
    1.3817   -3.4451    4.9200 H   0  0  0  0  0  0  0  0  0  0  0  0
    0.5945   -0.2809    2.1543 H   0  0  0  0  0  0  0  0  0  0  0  0
    1.2074   -1.8896    2.3242 H   0  0  0  0  0  0  0  0  0  0  0  0
    2.9738    0.6317    1.9765 H   0  0  0  0  0  0  0  0  0  0  0  0
    2.9088   -2.5555   -0.6331 H   0  0  0  0  0  0  0  0  0  0  0  0
    2.3458   -2.9851    0.9709 H   0  0  0  0  0  0  0  0  0  0  0  0
    4.0604   -3.1174    0.5658 H   0  0  0  0  0  0  0  0  0  0  0  0
    4.5341   -0.5289   -0.8733 H   0  0  0  0  0  0  0  0  0  0  0  0
    5.5419   -1.0553    0.4682 H   0  0  0  0  0  0  0  0  0  0  0  0
    4.8080    0.5456    0.4932 H   0  0  0  0  0  0  0  0  0  0  0  0
    2.4199   -1.3599    8.5369 H   0  0  0  0  0  0  0  0  0  0  0  0
    2.5779   -0.4879    7.0315 H   0  0  0  0  0  0  0  0  0  0  0  0
    0.8381    0.0799    8.2768 H   0  0  0  0  0  0  0  0  0  0  0  0
  1  2  2  0
  1 55  1  0
  1 56  1  0
  2 19  1  0
  2  3  1  0
  3  4  1  0
  3 57  1  0
  3 58  1  0
  4 52  1  0
  4  5  1  0
  4 59  1  6
  5 18  1  0
  5  6  1  6
  5  7  1  0
  6 60  1  0
  7  8  1  0
  7  9  1  0
  7 61  1  1
  8 62  1  0
  9 14  1  0
  9 10  1  0
  9 63  1  6
 10 11  1  0
 10 64  1  0
 10 65  1  0
 11 12  1  0
 11 66  1  0
 11 67  1  0
 12 13  1  1
 12 14  1  0
 17 12  1  6
 13 68  1  0
 13 69  1  0
 13 70  1  0
 14 15  1  0
 14 16  1  0
 15 71  1  0
 15 72  1  0
 15 73  1  0
 16 74  1  0
 16 75  1  0
 16 76  1  0
 17 32  1  0
 17 18  1  0
 17 21  1  0
 18 19  1  0
 18 77  1  6
 19 20  2  0
 20 78  1  0
 20 79  1  0
 22 21  1  6
 21 39  1  0
 21 80  1  1
 22 23  2  0
 22 24  1  0
 24 38  1  0
 24 25  1  0
 24 81  1  1
 38 25  1  1
 25 26  1  6
 25 27  1  0
 26 82  1  0
 27 28  1  0
 27 29  1  0
 27 83  1  1
 28 84  1  0
 29 30  1  0
 30 38  1  0
 30 31  1  0
 30 85  1  1
 31 32  1  0
 32 33  1  6
 32 34  1  0
 33 86  1  0
 33 87  1  0
 33 88  1  0
 34 35  1  0
 34 36  1  0
 34 89  1  6
 35 90  1  0
 36 37  1  0
 36 38  1  0
 36 91  1  6
 37 92  1  0
 39 52  1  0
 39 40  1  1
 39 41  1  0
 40 93  1  0
 40 94  1  0
 40 95  1  0
 41 42  2  0
 41 43  1  0
 43 52  1  0
 43 98  1  6
 43 44  1  0
 44 46  1  0
 44 45  2  0
 46 47  1  0
 46 97  1  0
 46 96  1  0
 47 48  1  0
 47 99  1  0
 47100  1  0
 48 49  2  3
 48101  1  0
 49 50  1  0
 49 51  1  0
 50102  1  0
 50103  1  0
 50104  1  0
 51105  1  0
 51106  1  0
 51107  1  0
 52 53  1  1
 53 54  1  0
 53108  1  0
 53109  1  0
 54110  1  0
M  END
>  <i_m_ct_stereo_status>  (1) 
1

>  <s_m_source_file>  (1) 
/var/tmp/pbs.5075288.sched01/tmpdioscf2v/0xa7vsnym.sdf

>  <i_m_source_file_index>  (1) 
5

>  <i_lp_mmshare_version>  (1) 
48012

>  <i_f3d_flags>  (1) 
0

>  <s_epik_input>  (1) 
W0NIM11bQ0BdMShbQ0BAXTIzNClbQ0gyXVtDSDJdW0NASF0oQzEoW0NIM10pW0NIM10pW0NASF0oW09IXSlbQ0BAXTUoW09IXSlbQ0hdKFtDSDJdQyg9W0NIMl0pQyhbQ0BASF0yNSk9W0NIMl0pW0NAXTYoW0NIMl1bT0hdKVtDQEBdKFtDSDNdKShDKD1PKS9DNj1DKC9bT0hdKVtDSDJdW0NIMl1bQ0hdPUMoW0NIM10pW0NIM10pW0NASF0zW1MrXShbTy1dKVtDQEBIXTdbQ0BdODlbQ0BAXTcoW09IXSlbQ0BASF0oW09IXSlPW0NASF04T1tDQEBdNChbQ0gzXSlbQ0BASF0oW09IXSlbQ0BIXTlbT0hd

>  <s_epik_cmdline>  (1) 
J2VwaWtfcHl0aG9uJywgJy1waHQnLCAnMi4wJywgJy1waCcsICc3LjAnLCAnLXRuJywgJzgnLCAnLW1hJywgJzIwMCcsICctaW1hZScsICc8aW5maWxlLm1hZT4nLCAnLW9tYWUnLCAnPG91dGZpbGUubWFlPic=

>  <r_lp_tautomer_probability>  (1) 
1

>  <r_epik_Ionization_Penalty>  (1) 
0.0288302

>  <r_epik_Ionization_Penalty_Charging>  (1) 
0

>  <r_epik_Ionization_Penalty_Neutral>  (1) 
0.0288302

>  <r_epik_State_Penalty>  (1) 
0.0237729

>  <r_epik_Charging_Adjusted_Penalty>  (1) 
0.0237729

>  <i_epik_Tot_Q>  (1) 
0

>  <i_epik_Tot_abs_Q>  (1) 
0

>  <s_epik_Chemistry_Notes>  (1) 
This compound contains an acetal/aminal-like group ( X-CH(R)-Y where X, Y are N, S, or O) that may be acid/base labile, releasing an aldehyde.

>  <s_lp_Force_Field>  (1) 
OPLS3e

>  <r_lp_Energy>  (1) 
283.958

>  <b_lp_Chiralities_Consistent>  (1) 
1

>  <s_lp_Variant>  (1) 
4:0-1

>  <s_i_glide_gridfile>  (1) 
pfpi4k_grid

>  <i_i_glide_lignum>  (1) 
5

>  <i_i_glide_rotatable_bonds>  (1) 
12

>  <r_i_docking_score>  (1) 
-2.87984

>  <r_i_glide_ligand_efficiency>  (1) 
-0.0533303

>  <r_i_glide_ligand_efficiency_sa>  (1) 
-0.201576

>  <r_i_glide_ligand_efficiency_ln>  (1) 
-0.577239

>  <r_i_glide_gscore>  (1) 
-2.87984

>  <r_i_glide_lipo>  (1) 
-0.0997792

>  <r_i_glide_hbond>  (1) 
-0.025671

>  <r_i_glide_metal>  (1) 
-0

>  <r_i_glide_rewards>  (1) 
0

>  <r_i_glide_evdw>  (1) 
-23.8667

>  <r_i_glide_ecoul>  (1) 
-11.3852

>  <r_i_glide_erotb>  (1) 
0.181553

>  <r_i_glide_esite>  (1) 
-0.0348329

>  <r_i_glide_emodel>  (1) 
-39.5533

>  <r_i_glide_energy>  (1) 
-35.2518

>  <r_i_glide_einternal>  (1) 
4.6651

>  <r_i_glide_intrahb_reward>  (1) 
-0

>  <i_i_glide_confnum>  (1) 
3

>  <i_i_glide_posenum>  (1) 
38

>  <r_i_glide_eff_state_penalty>  (1) 
0

>  <ligand_id>  (1) 
4

>  <original_smiles>  (1) 
C=C1CC2C3(O)C(O)C4CCC(C)(C4(C)C)C4(C3C1=C)C([S+]([O-])C1C3(O)C(O)OC5OC4(C)C(O)C(O)C513)C1(C)C(=O)C(=C(O)CCC=C(C)C)C21CO

>  <smiles>  (1) 
[H]OC([H])([H])C12C([H])(C(=O)C([H])([H])C([H])([H])C([H])=C(C([H])([H])[H])C([H])([H])[H])C(=O)C1(C([H])([H])[H])C1([H])S(=O)C3([H])C4(O[H])C([H])(O[H])OC5([H])OC(C([H])([H])[H])(C([H])(O[H])C([H])(O[H])C534)C13C1([H])C(=C([H])[H])C(=C([H])[H])C([H])([H])C2([H])C1(O[H])C([H])(O[H])C1([H])C([H])([H])C([H])([H])C3(C([H])([H])[H])C1(C([H])([H])[H])C([H])([H])[H]

$$$$
4:0:1
     RDKit          3D

110118  0  0  1  0  0  0  0  0999 V2000
    2.1029   -7.8584    8.1904 C   0  0  0  0  0  0  0  0  0  0  0  0
    3.0353   -7.0022    7.7348 C   0  0  0  0  0  0  0  0  0  0  0  0
    3.1111   -5.6061    8.2971 C   0  0  0  0  0  0  0  0  0  0  0  0
    3.3481   -4.5863    7.1552 C   0  0  1  0  0  0  0  0  0  0  0  0
    4.6429   -4.9650    6.3389 C   0  0  2  0  0  0  0  0  0  0  0  0
    5.6377   -5.1877    7.3560 O   0  0  0  0  0  0  0  0  0  0  0  0
    5.2563   -3.6993    5.5686 C   0  0  1  0  0  0  0  0  0  0  0  0
    6.3331   -3.0531    6.2582 O   0  0  0  0  0  0  0  0  0  0  0  0
    5.6048   -3.7284    4.0509 C   0  0  2  0  0  0  0  0  0  0  0  0
    4.6114   -3.1793    3.0784 C   0  0  0  0  0  0  0  0  0  0  0  0
    3.9076   -4.4264    2.6236 C   0  0  0  0  0  0  0  0  0  0  0  0
    4.7490   -5.6998    3.0380 C   0  0  1  0  0  0  0  0  0  0  0  0
    4.8882   -6.3053    1.5914 C   0  0  0  0  0  0  0  0  0  0  0  0
    6.1946   -5.0129    3.3970 C   0  0  0  0  0  0  0  0  0  0  0  0
    7.0820   -4.6928    2.1147 C   0  0  0  0  0  0  0  0  0  0  0  0
    7.2918   -5.7066    4.2903 C   0  0  0  0  0  0  0  0  0  0  0  0
    3.9519   -6.6775    4.1948 C   0  0  1  0  0  0  0  0  0  0  0  0
    4.5417   -6.4270    5.6806 C   0  0  2  0  0  0  0  0  0  0  0  0
    4.1147   -7.3953    6.8371 C   0  0  0  0  0  0  0  0  0  0  0  0
    4.8622   -8.4502    7.2327 C   0  0  0  0  0  0  0  0  0  0  0  0
    2.3079   -6.4275    4.4092 C   0  0  2  0  0  0  0  0  0  0  0  0
    1.2221   -7.1572    3.0191 S   0  0  0  0  0  0  0  0  0  0  0  0
    0.0562   -6.2459    2.6368 O   0  0  0  0  0  0  0  0  0  0  0  0
    0.5752   -8.6110    4.0044 C   0  0  2  0  0  0  0  0  0  0  0  0
    0.5406  -10.1439    3.8277 C   0  0  2  0  0  0  0  0  0  0  0  0
   -0.0929  -10.6388    2.6749 O   0  0  0  0  0  0  0  0  0  0  0  0
    0.8731  -11.1010    5.0135 C   0  0  1  0  0  0  0  0  0  0  0  0
    0.5402  -12.4190    4.7635 O   0  0  0  0  0  0  0  0  0  0  0  0
    2.2545  -10.9681    5.2640 O   0  0  0  0  0  0  0  0  0  0  0  0
    2.5744   -9.6554    4.9917 C   0  0  1  0  0  0  0  0  0  0  0  0
    3.9241   -9.3363    4.7802 O   0  0  0  0  0  0  0  0  0  0  0  0
    4.2996   -8.3027    3.7990 C   0  0  2  0  0  0  0  0  0  0  0  0
    5.8123   -8.6822    3.8398 C   0  0  0  0  0  0  0  0  0  0  0  0
    3.7780   -8.8831    2.3899 C   0  0  1  0  0  0  0  0  0  0  0  0
    4.7295   -9.4173    1.4609 O   0  0  0  0  0  0  0  0  0  0  0  0
    2.6048   -9.8377    2.4808 C   0  0  1  0  0  0  0  0  0  0  0  0
    2.9957  -11.2125    2.4939 O   0  0  0  0  0  0  0  0  0  0  0  0
    1.8020   -9.4908    3.7449 C   0  0  2  0  0  0  0  0  0  0  0  0
    1.4509   -5.2876    5.2617 C   0  0  2  0  0  0  0  0  0  0  0  0
    0.1293   -5.9555    5.7629 C   0  0  0  0  0  0  0  0  0  0  0  0
    1.0514   -3.9935    4.4533 C   0  0  0  0  0  0  0  0  0  0  0  0
    0.2266   -3.6534    3.6726 O   0  0  0  0  0  0  0  0  0  0  0  0
    2.1246   -3.2222    5.2512 C   0  0  1  0  0  0  0  0  0  0  0  0
    1.9156   -1.7026    5.4616 C   0  0  0  0  0  0  0  0  0  0  0  0
    2.8620   -0.9159    5.5664 O   0  0  0  0  0  0  0  0  0  0  0  0
    0.4743   -1.1543    5.5093 C   0  0  0  0  0  0  0  0  0  0  0  0
    0.2935    0.3456    5.1553 C   0  0  0  0  0  0  0  0  0  0  0  0
    1.0328    0.7895    3.9033 C   0  0  0  0  0  0  0  0  0  0  0  0
    0.5239    1.3639    2.8013 C   0  0  0  0  0  0  0  0  0  0  0  0
   -0.9500    1.6865    2.5719 C   0  0  0  0  0  0  0  0  0  0  0  0
    1.4394    1.7350    1.6510 C   0  0  0  0  0  0  0  0  0  0  0  0
    2.0125   -4.2680    6.3744 C   0  0  2  0  0  0  0  0  0  0  0  0
    0.9620   -3.7954    7.4668 C   0  0  0  0  0  0  0  0  0  0  0  0
    1.3898   -2.7789    8.3581 O   0  0  0  0  0  0  0  0  0  0  0  0
    2.0859   -8.8989    7.9050 H   0  0  0  0  0  0  0  0  0  0  0  0
    1.3589   -7.5362    8.9006 H   0  0  0  0  0  0  0  0  0  0  0  0
    2.2608   -5.3792    8.9272 H   0  0  0  0  0  0  0  0  0  0  0  0
    3.9406   -5.5711    8.9969 H   0  0  0  0  0  0  0  0  0  0  0  0
    3.6347   -3.6553    7.6477 H   0  0  0  0  0  0  0  0  0  0  0  0
    6.4413   -5.4369    6.9120 H   0  0  0  0  0  0  0  0  0  0  0  0
    4.5738   -2.8673    5.7072 H   0  0  0  0  0  0  0  0  0  0  0  0
    6.4024   -2.1627    5.9339 H   0  0  0  0  0  0  0  0  0  0  0  0
    6.1953   -2.8294    3.8426 H   0  0  0  0  0  0  0  0  0  0  0  0
    4.0502   -2.3258    3.4651 H   0  0  0  0  0  0  0  0  0  0  0  0
    5.1685   -2.7256    2.2502 H   0  0  0  0  0  0  0  0  0  0  0  0
    2.8918   -4.4637    2.9306 H   0  0  0  0  0  0  0  0  0  0  0  0
    3.8295   -4.2504    1.5439 H   0  0  0  0  0  0  0  0  0  0  0  0
    5.5443   -7.1528    1.5218 H   0  0  0  0  0  0  0  0  0  0  0  0
    5.2790   -5.6398    0.8390 H   0  0  0  0  0  0  0  0  0  0  0  0
    3.9235   -6.4657    1.1172 H   0  0  0  0  0  0  0  0  0  0  0  0
    7.3523   -5.6533    1.6096 H   0  0  0  0  0  0  0  0  0  0  0  0
    8.0517   -4.2419    2.3453 H   0  0  0  0  0  0  0  0  0  0  0  0
    6.5807   -4.0932    1.3763 H   0  0  0  0  0  0  0  0  0  0  0  0
    7.4974   -6.7330    4.0254 H   0  0  0  0  0  0  0  0  0  0  0  0
    7.1794   -5.6352    5.3629 H   0  0  0  0  0  0  0  0  0  0  0  0
    8.2812   -5.2441    4.1800 H   0  0  0  0  0  0  0  0  0  0  0  0
    5.5586   -6.7568    5.5712 H   0  0  0  0  0  0  0  0  0  0  0  0
    4.5884   -9.0230    8.1066 H   0  0  0  0  0  0  0  0  0  0  0  0
    5.7657   -8.7498    6.7312 H   0  0  0  0  0  0  0  0  0  0  0  0
    2.1908   -7.2076    5.1349 H   0  0  0  0  0  0  0  0  0  0  0  0
    0.2220   -8.3521    4.9990 H   0  0  0  0  0  0  0  0  0  0  0  0
    0.4576  -11.3664    2.3826 H   0  0  0  0  0  0  0  0  0  0  0  0
    0.3164  -10.7939    5.9045 H   0  0  0  0  0  0  0  0  0  0  0  0
    0.8727  -12.9215    5.5048 H   0  0  0  0  0  0  0  0  0  0  0  0
    2.2060   -9.0940    5.8283 H   0  0  0  0  0  0  0  0  0  0  0  0
    6.4024   -8.2350    3.0564 H   0  0  0  0  0  0  0  0  0  0  0  0
    5.9340   -9.7686    3.6987 H   0  0  0  0  0  0  0  0  0  0  0  0
    6.3166   -8.4927    4.7793 H   0  0  0  0  0  0  0  0  0  0  0  0
    3.2961   -8.1142    1.8390 H   0  0  0  0  0  0  0  0  0  0  0  0
    4.4981  -10.3232    1.2830 H   0  0  0  0  0  0  0  0  0  0  0  0
    1.9935   -9.7276    1.5892 H   0  0  0  0  0  0  0  0  0  0  0  0
    3.3794  -11.4554    1.6441 H   0  0  0  0  0  0  0  0  0  0  0  0
    0.3192   -6.7348    6.5051 H   0  0  0  0  0  0  0  0  0  0  0  0
   -0.4766   -6.3795    4.9635 H   0  0  0  0  0  0  0  0  0  0  0  0
   -0.5830   -5.2803    6.2012 H   0  0  0  0  0  0  0  0  0  0  0  0
   -0.2116   -1.7046    4.8575 H   0  0  0  0  0  0  0  0  0  0  0  0
    0.0940   -1.2924    6.5240 H   0  0  0  0  0  0  0  0  0  0  0  0
    3.0164   -3.3943    4.7024 H   0  0  0  0  0  0  0  0  0  0  0  0
    0.6326    0.9746    5.9790 H   0  0  0  0  0  0  0  0  0  0  0  0
   -0.7751    0.5429    5.0450 H   0  0  0  0  0  0  0  0  0  0  0  0
    2.1007    0.6168    3.9139 H   0  0  0  0  0  0  0  0  0  0  0  0
   -1.0729    2.7675    2.4660 H   0  0  0  0  0  0  0  0  0  0  0  0
   -1.5948    1.3471    3.3831 H   0  0  0  0  0  0  0  0  0  0  0  0
   -1.2960    1.2183    1.6501 H   0  0  0  0  0  0  0  0  0  0  0  0
    1.4345    2.8056    1.4442 H   0  0  0  0  0  0  0  0  0  0  0  0
    1.0931    1.1806    0.7807 H   0  0  0  0  0  0  0  0  0  0  0  0
    2.4791    1.4506    1.8296 H   0  0  0  0  0  0  0  0  0  0  0  0
    0.0694   -3.3877    6.9945 H   0  0  0  0  0  0  0  0  0  0  0  0
    0.5891   -4.6284    8.0652 H   0  0  0  0  0  0  0  0  0  0  0  0
    2.1263   -3.1070    8.8612 H   0  0  0  0  0  0  0  0  0  0  0  0
  1  2  2  0
  1 55  1  0
  1 56  1  0
  2 19  1  0
  2  3  1  0
  3  4  1  0
  3 57  1  0
  3 58  1  0
  4 52  1  0
  4  5  1  0
  4 59  1  1
  5 18  1  0
  5  6  1  1
  5  7  1  0
  6 60  1  0
  7  8  1  0
  7  9  1  0
  7 61  1  6
  8 62  1  0
  9 14  1  0
  9 10  1  0
  9 63  1  1
 10 11  1  0
 10 64  1  0
 10 65  1  0
 11 12  1  0
 11 66  1  0
 11 67  1  0
 12 13  1  6
 12 14  1  0
 17 12  1  6
 13 68  1  0
 13 69  1  0
 13 70  1  0
 14 15  1  0
 14 16  1  0
 15 71  1  0
 15 72  1  0
 15 73  1  0
 16 74  1  0
 16 75  1  0
 16 76  1  0
 17 32  1  0
 17 18  1  0
 17 21  1  0
 18 19  1  0
 18 77  1  6
 19 20  2  0
 20 78  1  0
 20 79  1  0
 22 21  1  1
 21 39  1  0
 21 80  1  1
 22 23  2  0
 22 24  1  0
 24 38  1  0
 24 25  1  0
 24 81  1  1
 38 25  1  1
 25 26  1  6
 25 27  1  0
 26 82  1  0
 27 28  1  0
 27 29  1  0
 27 83  1  1
 28 84  1  0
 29 30  1  0
 30 38  1  0
 30 31  1  0
 30 85  1  1
 31 32  1  0
 32 33  1  6
 32 34  1  0
 33 86  1  0
 33 87  1  0
 33 88  1  0
 34 35  1  0
 34 36  1  0
 34 89  1  6
 35 90  1  0
 36 37  1  0
 36 38  1  0
 36 91  1  6
 37 92  1  0
 39 52  1  0
 39 40  1  1
 39 41  1  0
 40 93  1  0
 40 94  1  0
 40 95  1  0
 41 42  2  0
 41 43  1  0
 43 52  1  0
 43 98  1  6
 43 44  1  0
 44 46  1  0
 44 45  2  0
 46 47  1  0
 46 97  1  0
 46 96  1  0
 47 48  1  0
 47 99  1  0
 47100  1  0
 48 49  2  3
 48101  1  0
 49 50  1  0
 49 51  1  0
 50102  1  0
 50103  1  0
 50104  1  0
 51105  1  0
 51106  1  0
 51107  1  0
 52 53  1  1
 53 54  1  0
 53108  1  0
 53109  1  0
 54110  1  0
M  END
>  <i_m_ct_stereo_status>  (2) 
1

>  <s_m_source_file>  (2) 
/var/tmp/pbs.5075288.sched01/tmpdioscf2v/0xa7vsnym.sdf

>  <i_m_source_file_index>  (2) 
5

>  <i_lp_mmshare_version>  (2) 
48012

>  <i_f3d_flags>  (2) 
0

>  <s_epik_input>  (2) 
W0NIM11bQ0BdMShbQ0BAXTIzNClbQ0gyXVtDSDJdW0NASF0oQzEoW0NIM10pW0NIM10pW0NASF0oW09IXSlbQ0BAXTUoW09IXSlbQ0hdKFtDSDJdQyg9W0NIMl0pQyhbQ0BASF0yNSk9W0NIMl0pW0NAXTYoW0NIMl1bT0hdKVtDQEBdKFtDSDNdKShDKD1PKS9DNj1DKC9bT0hdKVtDSDJdW0NIMl1bQ0hdPUMoW0NIM10pW0NIM10pW0NASF0zW1MrXShbTy1dKVtDQEBIXTdbQ0BdODlbQ0BAXTcoW09IXSlbQ0BASF0oW09IXSlPW0NASF04T1tDQEBdNChbQ0gzXSlbQ0BASF0oW09IXSlbQ0BIXTlbT0hd

>  <s_epik_cmdline>  (2) 
J2VwaWtfcHl0aG9uJywgJy1waHQnLCAnMi4wJywgJy1waCcsICc3LjAnLCAnLXRuJywgJzgnLCAnLW1hJywgJzIwMCcsICctaW1hZScsICc8aW5maWxlLm1hZT4nLCAnLW9tYWUnLCAnPG91dGZpbGUubWFlPic=

>  <r_lp_tautomer_probability>  (2) 
1

>  <r_epik_Ionization_Penalty>  (2) 
0.0288302

>  <r_epik_Ionization_Penalty_Charging>  (2) 
0

>  <r_epik_Ionization_Penalty_Neutral>  (2) 
0.0288302

>  <r_epik_State_Penalty>  (2) 
0.0237729

>  <r_epik_Charging_Adjusted_Penalty>  (2) 
0.0237729

>  <i_epik_Tot_Q>  (2) 
0

>  <i_epik_Tot_abs_Q>  (2) 
0

>  <s_epik_Chemistry_Notes>  (2) 
This compound contains an acetal/aminal-like group ( X-CH(R)-Y where X, Y are N, S, or O) that may be acid/base labile, releasing an aldehyde.

>  <s_lp_Force_Field>  (2) 
OPLS3e

>  <r_lp_Energy>  (2) 
283.958

>  <b_lp_Chiralities_Consistent>  (2) 
1

>  <s_lp_Variant>  (2) 
4:0-1

>  <s_i_glide_gridfile>  (2) 
pfpi4k_grid

>  <i_i_glide_lignum>  (2) 
5

>  <i_i_glide_rotatable_bonds>  (2) 
12

>  <r_i_docking_score>  (2) 
-1.01845

>  <r_i_glide_ligand_efficiency>  (2) 
-0.0188601

>  <r_i_glide_ligand_efficiency_sa>  (2) 
-0.0712867

>  <r_i_glide_ligand_efficiency_ln>  (2) 
-0.204139

>  <r_i_glide_gscore>  (2) 
-1.01845

>  <r_i_glide_lipo>  (2) 
-0.15315

>  <r_i_glide_hbond>  (2) 
-0.130289

>  <r_i_glide_metal>  (2) 
-0

>  <r_i_glide_rewards>  (2) 
-0.0150837

>  <r_i_glide_evdw>  (2) 
-2.6107

>  <r_i_glide_ecoul>  (2) 
-4.38268

>  <r_i_glide_erotb>  (2) 
0.181553

>  <r_i_glide_esite>  (2) 
-0.113539

>  <r_i_glide_emodel>  (2) 
-2.93668

>  <r_i_glide_energy>  (2) 
-6.99338

>  <r_i_glide_einternal>  (2) 
6.30038

>  <r_i_glide_intrahb_reward>  (2) 
-0

>  <i_i_glide_confnum>  (2) 
4

>  <i_i_glide_posenum>  (2) 
2

>  <r_i_glide_eff_state_penalty>  (2) 
0

>  <ligand_id>  (2) 
4

>  <original_smiles>  (2) 
C=C1CC2C3(O)C(O)C4CCC(C)(C4(C)C)C4(C3C1=C)C([S+]([O-])C1C3(O)C(O)OC5OC4(C)C(O)C(O)C513)C1(C)C(=O)C(=C(O)CCC=C(C)C)C21CO

>  <smiles>  (2) 
[H]OC([H])([H])C12C([H])(C(=O)C([H])([H])C([H])([H])C([H])=C(C([H])([H])[H])C([H])([H])[H])C(=O)C1(C([H])([H])[H])C1([H])S(=O)C3([H])C4(O[H])C([H])(O[H])OC5([H])OC(C([H])([H])[H])(C([H])(O[H])C([H])(O[H])C534)C13C1([H])C(=C([H])[H])C(=C([H])[H])C([H])([H])C2([H])C1(O[H])C([H])(O[H])C1([H])C([H])([H])C([H])([H])C3(C([H])([H])[H])C1(C([H])([H])[H])C([H])([H])[H]

$$$$
4:0:2
     RDKit          3D

110118  0  0  1  0  0  0  0  0999 V2000
    4.9342   -1.7664    8.0782 C   0  0  0  0  0  0  0  0  0  0  0  0
    5.0788   -1.5286    6.7555 C   0  0  0  0  0  0  0  0  0  0  0  0
    4.9002   -0.1441    6.2042 C   0  0  0  0  0  0  0  0  0  0  0  0
    4.0791   -0.1775    4.8717 C   0  0  1  0  0  0  0  0  0  0  0  0
    4.7323   -1.1358    3.8097 C   0  0  2  0  0  0  0  0  0  0  0  0
    6.0082   -0.6753    3.8379 O   0  0  0  0  0  0  0  0  0  0  0  0
    4.4047   -0.7605    2.2750 C   0  0  1  0  0  0  0  0  0  0  0  0
    5.3296    0.0649    1.5690 O   0  0  0  0  0  0  0  0  0  0  0  0
    4.0228   -1.8184    1.2005 C   0  0  2  0  0  0  0  0  0  0  0  0
    2.5256   -1.9814    1.1020 C   0  0  0  0  0  0  0  0  0  0  0  0
    2.2071   -3.0956    2.0909 C   0  0  0  0  0  0  0  0  0  0  0  0
    3.4925   -3.8747    2.4824 C   0  0  1  0  0  0  0  0  0  0  0  0
    3.0594   -5.2957    1.9638 C   0  0  0  0  0  0  0  0  0  0  0  0
    4.5324   -3.2597    1.3716 C   0  0  0  0  0  0  0  0  0  0  0  0
    4.4054   -3.9101   -0.0583 C   0  0  0  0  0  0  0  0  0  0  0  0
    6.0859   -3.2938    1.5137 C   0  0  0  0  0  0  0  0  0  0  0  0
    3.8111   -3.7671    4.1441 C   0  0  1  0  0  0  0  0  0  0  0  0
    4.9392   -2.6250    4.3902 C   0  0  2  0  0  0  0  0  0  0  0  0
    5.5716   -2.5203    5.8289 C   0  0  0  0  0  0  0  0  0  0  0  0
    6.7195   -3.1338    6.2084 C   0  0  0  0  0  0  0  0  0  0  0  0
    2.5709   -3.2851    5.1699 C   0  0  2  0  0  0  0  0  0  0  0  0
    1.3176   -4.6603    5.5693 S   0  0  0  0  0  0  0  0  0  0  0  0
   -0.1142   -4.1556    5.5516 O   0  0  0  0  0  0  0  0  0  0  0  0
    1.8021   -5.0218    7.3482 C   0  0  2  0  0  0  0  0  0  0  0  0
    2.3561   -6.2461    8.1255 C   0  0  2  0  0  0  0  0  0  0  0  0
    1.4788   -7.3521    8.2098 O   0  0  0  0  0  0  0  0  0  0  0  0
    3.5580   -6.1698    9.0826 C   0  0  1  0  0  0  0  0  0  0  0  0
    3.6352   -7.2772    9.9411 O   0  0  0  0  0  0  0  0  0  0  0  0
    4.7013   -6.0263    8.2518 O   0  0  0  0  0  0  0  0  0  0  0  0
    4.2909   -5.3148    7.1314 C   0  0  1  0  0  0  0  0  0  0  0  0
    5.0746   -5.3468    5.9676 O   0  0  0  0  0  0  0  0  0  0  0  0
    4.4763   -5.2589    4.6322 C   0  0  2  0  0  0  0  0  0  0  0  0
    5.7974   -5.6477    3.9003 C   0  0  0  0  0  0  0  0  0  0  0  0
    3.5581   -6.5656    4.5693 C   0  0  1  0  0  0  0  0  0  0  0  0
    4.0365   -7.6743    3.8133 O   0  0  0  0  0  0  0  0  0  0  0  0
    3.0592   -7.0808    5.9090 C   0  0  1  0  0  0  0  0  0  0  0  0
    3.8774   -8.1204    6.4382 O   0  0  0  0  0  0  0  0  0  0  0  0
    2.9624   -5.9102    6.8877 C   0  0  2  0  0  0  0  0  0  0  0  0
    1.9257   -1.7914    5.5176 C   0  0  2  0  0  0  0  0  0  0  0  0
    1.4200   -1.8210    6.9848 C   0  0  0  0  0  0  0  0  0  0  0  0
    0.7144   -1.3274    4.6496 C   0  0  0  0  0  0  0  0  0  0  0  0
   -0.5004   -1.5469    4.6370 O   0  0  0  0  0  0  0  0  0  0  0  0
    1.6220   -0.3427    3.9249 C   0  0  1  0  0  0  0  0  0  0  0  0
    1.0066    0.9157    3.3082 C   0  0  0  0  0  0  0  0  0  0  0  0
    1.2262    1.2458    2.1444 O   0  0  0  0  0  0  0  0  0  0  0  0
    0.1240    1.8216    4.2002 C   0  0  0  0  0  0  0  0  0  0  0  0
   -0.5666    2.9688    3.4746 C   0  0  0  0  0  0  0  0  0  0  0  0
   -1.5907    2.5201    2.4530 C   0  0  0  0  0  0  0  0  0  0  0  0
   -2.8248    3.0336    2.3023 C   0  0  0  0  0  0  0  0  0  0  0  0
   -3.3811    4.1328    3.1036 C   0  0  0  0  0  0  0  0  0  0  0  0
   -3.8179    2.5306    1.2867 C   0  0  0  0  0  0  0  0  0  0  0  0
    2.5423   -0.3358    5.1595 C   0  0  2  0  0  0  0  0  0  0  0  0
    2.1862    0.8105    6.1865 C   0  0  0  0  0  0  0  0  0  0  0  0
    2.7217    2.0866    5.8830 O   0  0  0  0  0  0  0  0  0  0  0  0
    5.1563   -2.7261    8.5260 H   0  0  0  0  0  0  0  0  0  0  0  0
    4.6119   -0.9886    8.7547 H   0  0  0  0  0  0  0  0  0  0  0  0
    4.5287    0.5034    6.9881 H   0  0  0  0  0  0  0  0  0  0  0  0
    5.9006    0.2628    6.0519 H   0  0  0  0  0  0  0  0  0  0  0  0
    4.2421    0.8090    4.4365 H   0  0  0  0  0  0  0  0  0  0  0  0
    6.5281   -1.1142    3.2204 H   0  0  0  0  0  0  0  0  0  0  0  0
    3.6201   -0.0132    2.3003 H   0  0  0  0  0  0  0  0  0  0  0  0
    6.1701   -0.3512    1.5034 H   0  0  0  0  0  0  0  0  0  0  0  0
    4.3511   -1.4364    0.2267 H   0  0  0  0  0  0  0  0  0  0  0  0
    1.9702   -1.0559    1.2251 H   0  0  0  0  0  0  0  0  0  0  0  0
    2.2743   -2.2943    0.0956 H   0  0  0  0  0  0  0  0  0  0  0  0
    1.5668   -2.8345    2.9039 H   0  0  0  0  0  0  0  0  0  0  0  0
    1.5268   -3.7265    1.5423 H   0  0  0  0  0  0  0  0  0  0  0  0
    3.8278   -6.0510    1.9908 H   0  0  0  0  0  0  0  0  0  0  0  0
    2.7354   -5.3355    0.9281 H   0  0  0  0  0  0  0  0  0  0  0  0
    2.1298   -5.6334    2.4087 H   0  0  0  0  0  0  0  0  0  0  0  0
    4.7987   -4.9262   -0.0739 H   0  0  0  0  0  0  0  0  0  0  0  0
    4.9621   -3.3536   -0.8112 H   0  0  0  0  0  0  0  0  0  0  0  0
    3.3978   -3.9523   -0.4651 H   0  0  0  0  0  0  0  0  0  0  0  0
    6.4729   -4.2570    1.8245 H   0  0  0  0  0  0  0  0  0  0  0  0
    6.5159   -2.5055    2.1146 H   0  0  0  0  0  0  0  0  0  0  0  0
    6.5735   -3.1054    0.5573 H   0  0  0  0  0  0  0  0  0  0  0  0
    5.8100   -3.0117    3.9013 H   0  0  0  0  0  0  0  0  0  0  0  0
    7.1773   -2.9118    7.1642 H   0  0  0  0  0  0  0  0  0  0  0  0
    7.2379   -3.8649    5.6249 H   0  0  0  0  0  0  0  0  0  0  0  0
    3.1508   -3.3658    6.0609 H   0  0  0  0  0  0  0  0  0  0  0  0
    1.9876   -4.1053    7.8910 H   0  0  0  0  0  0  0  0  0  0  0  0
    1.9910   -8.1354    8.0525 H   0  0  0  0  0  0  0  0  0  0  0  0
    3.4710   -5.2811    9.7207 H   0  0  0  0  0  0  0  0  0  0  0  0
    3.7021   -8.0670    9.4189 H   0  0  0  0  0  0  0  0  0  0  0  0
    4.2384   -4.2901    7.4536 H   0  0  0  0  0  0  0  0  0  0  0  0
    5.6730   -5.9022    2.8544 H   0  0  0  0  0  0  0  0  0  0  0  0
    6.2140   -6.5467    4.3598 H   0  0  0  0  0  0  0  0  0  0  0  0
    6.6087   -4.9306    3.9768 H   0  0  0  0  0  0  0  0  0  0  0  0
    2.6181   -6.3392    4.1186 H   0  0  0  0  0  0  0  0  0  0  0  0
    3.3796   -8.3565    3.8239 H   0  0  0  0  0  0  0  0  0  0  0  0
    2.0731   -7.5281    5.7612 H   0  0  0  0  0  0  0  0  0  0  0  0
    3.8544   -8.8620    5.8464 H   0  0  0  0  0  0  0  0  0  0  0  0
    2.2422   -1.9065    7.6914 H   0  0  0  0  0  0  0  0  0  0  0  0
    0.6967   -2.6055    7.1788 H   0  0  0  0  0  0  0  0  0  0  0  0
    0.8475   -0.9483    7.2831 H   0  0  0  0  0  0  0  0  0  0  0  0
   -0.6302    1.2324    4.7403 H   0  0  0  0  0  0  0  0  0  0  0  0
    0.7631    2.3533    4.9143 H   0  0  0  0  0  0  0  0  0  0  0  0
    2.1178   -0.9093    3.1800 H   0  0  0  0  0  0  0  0  0  0  0  0
    0.1346    3.6132    2.9468 H   0  0  0  0  0  0  0  0  0  0  0  0
   -0.9971    3.5884    4.2617 H   0  0  0  0  0  0  0  0  0  0  0  0
   -1.2779    1.7148    1.8110 H   0  0  0  0  0  0  0  0  0  0  0  0
   -3.6750    4.9369    2.4343 H   0  0  0  0  0  0  0  0  0  0  0  0
   -2.7727    4.4516    3.9507 H   0  0  0  0  0  0  0  0  0  0  0  0
   -4.3035    3.6265    3.4429 H   0  0  0  0  0  0  0  0  0  0  0  0
   -4.0175    3.3014    0.5193 H   0  0  0  0  0  0  0  0  0  0  0  0
   -4.7912    2.2877    1.7939 H   0  0  0  0  0  0  0  0  0  0  0  0
   -3.3655    1.6222    0.9127 H   0  0  0  0  0  0  0  0  0  0  0  0
    1.1166    0.9442    6.2817 H   0  0  0  0  0  0  0  0  0  0  0  0
    2.5014    0.5594    7.2071 H   0  0  0  0  0  0  0  0  0  0  0  0
    2.3963    2.3955    5.0467 H   0  0  0  0  0  0  0  0  0  0  0  0
  1  2  2  0
  1 55  1  0
  1 56  1  0
  2 19  1  0
  2  3  1  0
  3  4  1  0
  3 57  1  0
  3 58  1  0
  4 52  1  0
  4  5  1  0
  4 59  1  6
  5 18  1  0
  5  6  1  6
  5  7  1  0
  6 60  1  0
  7  8  1  0
  7  9  1  0
  7 61  1  1
  8 62  1  0
  9 14  1  0
  9 10  1  0
  9 63  1  6
 10 11  1  0
 10 64  1  0
 10 65  1  0
 11 12  1  0
 11 66  1  0
 11 67  1  0
 12 13  1  6
 12 14  1  0
 17 12  1  6
 13 68  1  0
 13 69  1  0
 13 70  1  0
 14 15  1  0
 14 16  1  0
 15 71  1  0
 15 72  1  0
 15 73  1  0
 16 74  1  0
 16 75  1  0
 16 76  1  0
 17 32  1  0
 17 18  1  0
 17 21  1  0
 18 19  1  0
 18 77  1  6
 19 20  2  0
 20 78  1  0
 20 79  1  0
 22 21  1  1
 21 39  1  0
 21 80  1  1
 22 23  2  0
 22 24  1  0
 24 38  1  0
 24 25  1  0
 24 81  1  1
 38 25  1  1
 25 26  1  6
 25 27  1  0
 26 82  1  0
 27 28  1  0
 27 29  1  0
 27 83  1  1
 28 84  1  0
 29 30  1  0
 30 38  1  0
 30 31  1  0
 30 85  1  1
 31 32  1  0
 32 33  1  6
 32 34  1  0
 33 86  1  0
 33 87  1  0
 33 88  1  0
 34 35  1  0
 34 36  1  0
 34 89  1  6
 35 90  1  0
 36 37  1  0
 36 38  1  0
 36 91  1  6
 37 92  1  0
 39 52  1  0
 39 40  1  1
 39 41  1  0
 40 93  1  0
 40 94  1  0
 40 95  1  0
 41 42  2  0
 41 43  1  0
 43 52  1  0
 43 98  1  6
 43 44  1  0
 44 46  1  0
 44 45  2  0
 46 47  1  0
 46 97  1  0
 46 96  1  0
 47 48  1  0
 47 99  1  0
 47100  1  0
 48 49  2  3
 48101  1  0
 49 50  1  0
 49 51  1  0
 50102  1  0
 50103  1  0
 50104  1  0
 51105  1  0
 51106  1  0
 51107  1  0
 52 53  1  1
 53 54  1  0
 53108  1  0
 53109  1  0
 54110  1  0
M  END
>  <i_m_ct_stereo_status>  (3) 
1

>  <s_m_source_file>  (3) 
/var/tmp/pbs.5075288.sched01/tmpdioscf2v/0xa7vsnym.sdf

>  <i_m_source_file_index>  (3) 
5

>  <i_lp_mmshare_version>  (3) 
48012

>  <i_f3d_flags>  (3) 
0

>  <s_epik_input>  (3) 
W0NIM11bQ0BdMShbQ0BAXTIzNClbQ0gyXVtDSDJdW0NASF0oQzEoW0NIM10pW0NIM10pW0NASF0oW09IXSlbQ0BAXTUoW09IXSlbQ0hdKFtDSDJdQyg9W0NIMl0pQyhbQ0BASF0yNSk9W0NIMl0pW0NAXTYoW0NIMl1bT0hdKVtDQEBdKFtDSDNdKShDKD1PKS9DNj1DKC9bT0hdKVtDSDJdW0NIMl1bQ0hdPUMoW0NIM10pW0NIM10pW0NASF0zW1MrXShbTy1dKVtDQEBIXTdbQ0BdODlbQ0BAXTcoW09IXSlbQ0BASF0oW09IXSlPW0NASF04T1tDQEBdNChbQ0gzXSlbQ0BASF0oW09IXSlbQ0BIXTlbT0hd

>  <s_epik_cmdline>  (3) 
J2VwaWtfcHl0aG9uJywgJy1waHQnLCAnMi4wJywgJy1waCcsICc3LjAnLCAnLXRuJywgJzgnLCAnLW1hJywgJzIwMCcsICctaW1hZScsICc8aW5maWxlLm1hZT4nLCAnLW9tYWUnLCAnPG91dGZpbGUubWFlPic=

>  <r_lp_tautomer_probability>  (3) 
1

>  <r_epik_Ionization_Penalty>  (3) 
0.0288302

>  <r_epik_Ionization_Penalty_Charging>  (3) 
0

>  <r_epik_Ionization_Penalty_Neutral>  (3) 
0.0288302

>  <r_epik_State_Penalty>  (3) 
0.0237729

>  <r_epik_Charging_Adjusted_Penalty>  (3) 
0.0237729

>  <i_epik_Tot_Q>  (3) 
0

>  <i_epik_Tot_abs_Q>  (3) 
0

>  <s_epik_Chemistry_Notes>  (3) 
This compound contains an acetal/aminal-like group ( X-CH(R)-Y where X, Y are N, S, or O) that may be acid/base labile, releasing an aldehyde.

>  <s_lp_Force_Field>  (3) 
OPLS3e

>  <r_lp_Energy>  (3) 
283.958

>  <b_lp_Chiralities_Consistent>  (3) 
1

>  <s_lp_Variant>  (3) 
4:0-1

>  <s_i_glide_gridfile>  (3) 
pfpi4k_grid

>  <i_i_glide_lignum>  (3) 
5

>  <i_i_glide_rotatable_bonds>  (3) 
12

>  <r_i_docking_score>  (3) 
-0.582847

>  <r_i_glide_ligand_efficiency>  (3) 
-0.0107935

>  <r_i_glide_ligand_efficiency_sa>  (3) 
-0.0407968

>  <r_i_glide_ligand_efficiency_ln>  (3) 
-0.116827

>  <r_i_glide_gscore>  (3) 
-0.582847

>  <r_i_glide_lipo>  (3) 
-0.318093

>  <r_i_glide_hbond>  (3) 
0

>  <r_i_glide_metal>  (3) 
-0

>  <r_i_glide_rewards>  (3) 
0

>  <r_i_glide_evdw>  (3) 
0.448882

>  <r_i_glide_ecoul>  (3) 
-2.96855

>  <r_i_glide_erotb>  (3) 
0.181553

>  <r_i_glide_esite>  (3) 
-0.0234691

>  <r_i_glide_emodel>  (3) 
-0.555308

>  <r_i_glide_energy>  (3) 
-2.51967

>  <r_i_glide_einternal>  (3) 
3.35177

>  <r_i_glide_intrahb_reward>  (3) 
-0

>  <i_i_glide_confnum>  (3) 
3

>  <i_i_glide_posenum>  (3) 
1

>  <r_i_glide_eff_state_penalty>  (3) 
0

>  <ligand_id>  (3) 
4

>  <original_smiles>  (3) 
C=C1CC2C3(O)C(O)C4CCC(C)(C4(C)C)C4(C3C1=C)C([S+]([O-])C1C3(O)C(O)OC5OC4(C)C(O)C(O)C513)C1(C)C(=O)C(=C(O)CCC=C(C)C)C21CO

>  <smiles>  (3) 
[H]OC([H])([H])C12C([H])(C(=O)C([H])([H])C([H])([H])C([H])=C(C([H])([H])[H])C([H])([H])[H])C(=O)C1(C([H])([H])[H])C1([H])S(=O)C3([H])C4(O[H])C([H])(O[H])OC5([H])OC(C([H])([H])[H])(C([H])(O[H])C([H])(O[H])C534)C13C1([H])C(=C([H])[H])C(=C([H])[H])C([H])([H])C2([H])C1(O[H])C([H])(O[H])C1([H])C([H])([H])C([H])([H])C3(C([H])([H])[H])C1(C([H])([H])[H])C([H])([H])[H]

$$$$
4:1:0
     RDKit          3D

110118  0  0  1  0  0  0  0  0999 V2000
    2.2673    5.3640    6.5637 C   0  0  0  0  0  0  0  0  0  0  0  0
    3.0738    4.2884    6.5094 C   0  0  0  0  0  0  0  0  0  0  0  0
    3.7907    3.8981    5.2531 C   0  0  0  0  0  0  0  0  0  0  0  0
    3.5511    2.3897    4.9586 C   0  0  1  0  0  0  0  0  0  0  0  0
    4.1306    1.5695    6.2106 C   0  0  2  0  0  0  0  0  0  0  0  0
    5.4875    1.9982    6.3101 O   0  0  0  0  0  0  0  0  0  0  0  0
    4.3182    0.0789    5.8210 C   0  0  1  0  0  0  0  0  0  0  0  0
    5.3696   -0.0790    4.8743 O   0  0  0  0  0  0  0  0  0  0  0  0
    4.3232   -1.1734    6.7356 C   0  0  2  0  0  0  0  0  0  0  0  0
    3.0713   -2.0017    6.4003 C   0  0  0  0  0  0  0  0  0  0  0  0
    2.0072   -1.4800    7.3698 C   0  0  0  0  0  0  0  0  0  0  0  0
    2.6698   -0.5344    8.4225 C   0  0  1  0  0  0  0  0  0  0  0  0
    2.1310   -1.2508    9.7186 C   0  0  0  0  0  0  0  0  0  0  0  0
    4.2117   -1.0025    8.2575 C   0  0  0  0  0  0  0  0  0  0  0  0
    4.5434   -2.4278    8.8494 C   0  0  0  0  0  0  0  0  0  0  0  0
    5.3904   -0.2037    8.8844 C   0  0  0  0  0  0  0  0  0  0  0  0
    2.2543    1.1188    8.2035 C   0  0  1  0  0  0  0  0  0  0  0  0
    3.4954    1.9695    7.6046 C   0  0  2  0  0  0  0  0  0  0  0  0
    3.4701    3.5317    7.6748 C   0  0  0  0  0  0  0  0  0  0  0  0
    4.0953    4.2624    8.6232 C   0  0  0  0  0  0  0  0  0  0  0  0
    1.0162    1.4614    7.1215 C   0  0  2  0  0  0  0  0  0  0  0  0
   -0.6395    0.9750    7.8883 S   0  0  0  0  0  0  0  0  0  0  0  0
   -1.4720    0.1457    6.8917 O   0  0  0  0  0  0  0  0  0  0  0  0
   -1.4093    2.6818    8.0998 C   0  0  2  0  0  0  0  0  0  0  0  0
   -1.8384    3.5760    9.2985 C   0  0  2  0  0  0  0  0  0  0  0  0
   -3.0113    3.1183    9.9965 O   0  0  0  0  0  0  0  0  0  0  0  0
   -1.3834    5.0139    9.4993 C   0  0  1  0  0  0  0  0  0  0  0  0
   -2.1814    5.7497   10.3978 O   0  0  0  0  0  0  0  0  0  0  0  0
   -0.0324    4.9342    9.9329 O   0  0  0  0  0  0  0  0  0  0  0  0
    0.5113    3.8022    9.3411 C   0  0  1  0  0  0  0  0  0  0  0  0
    1.6847    3.2251    9.8225 O   0  0  0  0  0  0  0  0  0  0  0  0
    1.9276    1.7808    9.7470 C   0  0  2  0  0  0  0  0  0  0  0  0
    3.1557    1.7856   10.7204 C   0  0  0  0  0  0  0  0  0  0  0  0
    0.7287    1.1714   10.6156 C   0  0  1  0  0  0  0  0  0  0  0  0
    1.0179    0.6869   11.9209 O   0  0  0  0  0  0  0  0  0  0  0  0
   -0.5288    2.0178   10.6977 C   0  0  1  0  0  0  0  0  0  0  0  0
   -0.5652    2.8102   11.8818 O   0  0  0  0  0  0  0  0  0  0  0  0
   -0.6399    2.8595    9.4193 C   0  0  2  0  0  0  0  0  0  0  0  0
    0.9440    1.5469    5.4607 C   0  0  2  0  0  0  0  0  0  0  0  0
   -0.4097    2.2329    5.0687 C   0  0  0  0  0  0  0  0  0  0  0  0
    0.9539    0.2091    4.6209 C   0  0  0  0  0  0  0  0  0  0  0  0
    0.4444   -0.8994    4.7377 O   0  0  0  0  0  0  0  0  0  0  0  0
    1.7367    0.8684    3.4700 C   0  0  2  0  0  0  0  0  0  0  0  0
    2.7726    0.0129    2.7385 C   0  0  0  0  0  0  0  0  0  0  0  0
    3.3008   -1.0252    3.1110 O   0  0  0  0  0  0  0  0  0  0  0  0
    3.0719    0.5060    1.2993 C   0  0  0  0  0  0  0  0  0  0  0  0
    4.0911   -0.3273    0.4773 C   0  0  0  0  0  0  0  0  0  0  0  0
    3.6392   -1.7598    0.1997 C   0  0  0  0  0  0  0  0  0  0  0  0
    4.3022   -2.9051    0.4589 C   0  0  0  0  0  0  0  0  0  0  0  0
    5.6740   -2.9936    1.1088 C   0  0  0  0  0  0  0  0  0  0  0  0
    3.6998   -4.2496    0.1029 C   0  0  0  0  0  0  0  0  0  0  0  0
    2.0774    2.0968    4.4240 C   0  0  2  0  0  0  0  0  0  0  0  0
    1.6312    3.3429    3.5696 C   0  0  0  0  0  0  0  0  0  0  0  0
    2.4982    3.6008    2.4839 O   0  0  0  0  0  0  0  0  0  0  0  0
    1.8370    5.7166    7.4887 H   0  0  0  0  0  0  0  0  0  0  0  0
    2.0564    5.9406    5.6756 H   0  0  0  0  0  0  0  0  0  0  0  0
    3.5758    4.5972    4.4466 H   0  0  0  0  0  0  0  0  0  0  0  0
    4.8496    4.1054    5.4192 H   0  0  0  0  0  0  0  0  0  0  0  0
    4.2134    2.1694    4.1178 H   0  0  0  0  0  0  0  0  0  0  0  0
    5.9172    1.6107    5.5656 H   0  0  0  0  0  0  0  0  0  0  0  0
    3.4260   -0.0396    5.2659 H   0  0  0  0  0  0  0  0  0  0  0  0
    5.1491   -0.8317    4.3390 H   0  0  0  0  0  0  0  0  0  0  0  0
    5.2040   -1.7757    6.5043 H   0  0  0  0  0  0  0  0  0  0  0  0
    2.7524   -1.9819    5.3635 H   0  0  0  0  0  0  0  0  0  0  0  0
    3.2538   -3.0630    6.5740 H   0  0  0  0  0  0  0  0  0  0  0  0
    1.1411   -1.0335    6.9255 H   0  0  0  0  0  0  0  0  0  0  0  0
    1.5735   -2.3882    7.7939 H   0  0  0  0  0  0  0  0  0  0  0  0
    2.4934   -0.8631   10.6585 H   0  0  0  0  0  0  0  0  0  0  0  0
    2.3737   -2.3044    9.8094 H   0  0  0  0  0  0  0  0  0  0  0  0
    1.0559   -1.3829    9.7253 H   0  0  0  0  0  0  0  0  0  0  0  0
    4.6107   -2.4010    9.9383 H   0  0  0  0  0  0  0  0  0  0  0  0
    5.5084   -2.7971    8.4947 H   0  0  0  0  0  0  0  0  0  0  0  0
    3.8353   -3.2154    8.5971 H   0  0  0  0  0  0  0  0  0  0  0  0
    5.1150    0.2716    9.8174 H   0  0  0  0  0  0  0  0  0  0  0  0
    5.8408    0.5203    8.2172 H   0  0  0  0  0  0  0  0  0  0  0  0
    6.2444   -0.8324    9.1302 H   0  0  0  0  0  0  0  0  0  0  0  0
    4.2719    1.8151    8.3178 H   0  0  0  0  0  0  0  0  0  0  0  0
    4.1425    5.3384    8.5406 H   0  0  0  0  0  0  0  0  0  0  0  0
    4.6201    3.8532    9.4667 H   0  0  0  0  0  0  0  0  0  0  0  0
    1.0121    2.5218    7.2682 H   0  0  0  0  0  0  0  0  0  0  0  0
   -1.2018    3.3017    7.2440 H   0  0  0  0  0  0  0  0  0  0  0  0
   -2.8190    3.0597   10.9174 H   0  0  0  0  0  0  0  0  0  0  0  0
   -1.3975    5.5621    8.5498 H   0  0  0  0  0  0  0  0  0  0  0  0
   -2.2179    5.2823   11.2034 H   0  0  0  0  0  0  0  0  0  0  0  0
    0.6899    4.1394    8.3128 H   0  0  0  0  0  0  0  0  0  0  0  0
    3.4348    0.8284   11.1366 H   0  0  0  0  0  0  0  0  0  0  0  0
    2.9342    2.4142   11.5879 H   0  0  0  0  0  0  0  0  0  0  0  0
    4.0739    2.1825   10.3290 H   0  0  0  0  0  0  0  0  0  0  0  0
    0.3165    0.3230   10.1231 H   0  0  0  0  0  0  0  0  0  0  0  0
    0.9260    1.4129   12.5112 H   0  0  0  0  0  0  0  0  0  0  0  0
   -1.3891    1.3452   10.7777 H   0  0  0  0  0  0  0  0  0  0  0  0
   -1.2578    2.4825   12.4512 H   0  0  0  0  0  0  0  0  0  0  0  0
   -0.3550    3.3161    5.2358 H   0  0  0  0  0  0  0  0  0  0  0  0
   -1.3122    1.9095    5.5545 H   0  0  0  0  0  0  0  0  0  0  0  0
   -0.6899    2.0843    4.0271 H   0  0  0  0  0  0  0  0  0  0  0  0
    2.1202    0.5447    0.7731 H   0  0  0  0  0  0  0  0  0  0  0  0
    3.4347    1.5240    1.3826 H   0  0  0  0  0  0  0  0  0  0  0  0
    1.0075    1.1822    2.7337 H   0  0  0  0  0  0  0  0  0  0  0  0
    5.0712   -0.2734    0.9479 H   0  0  0  0  0  0  0  0  0  0  0  0
    4.2289    0.1285   -0.5006 H   0  0  0  0  0  0  0  0  0  0  0  0
    2.6650   -1.8295   -0.2648 H   0  0  0  0  0  0  0  0  0  0  0  0
    6.3775   -3.4588    0.4186 H   0  0  0  0  0  0  0  0  0  0  0  0
    5.6167   -3.6159    2.0015 H   0  0  0  0  0  0  0  0  0  0  0  0
    6.0895   -2.0357    1.4093 H   0  0  0  0  0  0  0  0  0  0  0  0
    4.3441   -4.7789   -0.5986 H   0  0  0  0  0  0  0  0  0  0  0  0
    2.7174   -4.1445   -0.3592 H   0  0  0  0  0  0  0  0  0  0  0  0
    3.5918   -4.8623    0.9969 H   0  0  0  0  0  0  0  0  0  0  0  0
    0.7104    3.1947    3.0107 H   0  0  0  0  0  0  0  0  0  0  0  0
    1.4296    4.2384    4.1416 H   0  0  0  0  0  0  0  0  0  0  0  0
    2.0173    4.1186    1.8657 H   0  0  0  0  0  0  0  0  0  0  0  0
  1  2  2  0
  1 55  1  0
  1 56  1  0
  2 19  1  0
  2  3  1  0
  3  4  1  0
  3 57  1  0
  3 58  1  0
  4 52  1  0
  4  5  1  0
  4 59  1  6
  5 18  1  0
  5  6  1  1
  5  7  1  0
  6 60  1  0
  7  8  1  0
  7  9  1  0
  7 61  1  6
  8 62  1  0
  9 14  1  0
  9 10  1  0
  9 63  1  1
 10 11  1  0
 10 64  1  0
 10 65  1  0
 11 12  1  0
 11 66  1  0
 11 67  1  0
 12 13  1  1
 12 14  1  0
 17 12  1  1
 13 68  1  0
 13 69  1  0
 13 70  1  0
 14 15  1  0
 14 16  1  0
 15 71  1  0
 15 72  1  0
 15 73  1  0
 16 74  1  0
 16 75  1  0
 16 76  1  0
 17 32  1  0
 17 18  1  0
 17 21  1  0
 18 19  1  0
 18 77  1  1
 19 20  2  0
 20 78  1  0
 20 79  1  0
 22 21  1  6
 21 39  1  0
 21 80  1  1
 22 23  2  0
 22 24  1  0
 24 38  1  0
 24 25  1  0
 24 81  1  6
 38 25  1  1
 25 26  1  1
 25 27  1  0
 26 82  1  0
 27 28  1  0
 27 29  1  0
 27 83  1  6
 28 84  1  0
 29 30  1  0
 30 38  1  0
 30 31  1  0
 30 85  1  6
 31 32  1  0
 32 33  1  1
 32 34  1  0
 33 86  1  0
 33 87  1  0
 33 88  1  0
 34 35  1  0
 34 36  1  0
 34 89  1  6
 35 90  1  0
 36 37  1  0
 36 38  1  0
 36 91  1  1
 37 92  1  0
 39 52  1  0
 39 40  1  1
 39 41  1  0
 40 93  1  0
 40 94  1  0
 40 95  1  0
 41 42  2  0
 41 43  1  0
 43 52  1  0
 43 98  1  6
 43 44  1  0
 44 46  1  0
 44 45  2  0
 46 47  1  0
 46 97  1  0
 46 96  1  0
 47 48  1  0
 47 99  1  0
 47100  1  0
 48 49  2  3
 48101  1  0
 49 50  1  0
 49 51  1  0
 50102  1  0
 50103  1  0
 50104  1  0
 51105  1  0
 51106  1  0
 51107  1  0
 52 53  1  6
 53 54  1  0
 53108  1  0
 53109  1  0
 54110  1  0
M  END
>  <i_m_ct_stereo_status>  (4) 
1

>  <s_m_source_file>  (4) 
/var/tmp/pbs.5075288.sched01/tmpdioscf2v/0xa7vsnym.sdf

>  <i_m_source_file_index>  (4) 
6

>  <i_lp_mmshare_version>  (4) 
48012

>  <i_f3d_flags>  (4) 
0

>  <s_epik_input>  (4) 
W0NIM11bQ0BdMShbQ0BAXTIzNClbQ0gyXVtDSDJdW0NASF0oQzEoW0NIM10pW0NIM10pW0NASF0oW09IXSlbQ0BAXTUoW09IXSlbQ0hdKFtDSDJdQyg9W0NIMl0pQyhbQ0BASF0yNSk9W0NIMl0pW0NAXTYoW0NIMl1bT0hdKVtDQEBdKFtDSDNdKShDKD1PKS9DNj1DKC9bT0hdKVtDSDJdW0NIMl1bQ0hdPUMoW0NIM10pW0NIM10pW0NASF0zW1MrXShbTy1dKVtDQEBIXTdbQ0BdODlbQ0BAXTcoW09IXSlbQ0BASF0oW09IXSlPW0NASF04T1tDQEBdNChbQ0gzXSlbQ0BASF0oW09IXSlbQ0BIXTlbT0hd

>  <s_epik_cmdline>  (4) 
J2VwaWtfcHl0aG9uJywgJy1waHQnLCAnMi4wJywgJy1waCcsICc3LjAnLCAnLXRuJywgJzgnLCAnLW1hJywgJzIwMCcsICctaW1hZScsICc8aW5maWxlLm1hZT4nLCAnLW9tYWUnLCAnPG91dGZpbGUubWFlPic=

>  <r_lp_tautomer_probability>  (4) 
1

>  <r_epik_Ionization_Penalty>  (4) 
0.0288302

>  <r_epik_Ionization_Penalty_Charging>  (4) 
0

>  <r_epik_Ionization_Penalty_Neutral>  (4) 
0.0288302

>  <r_epik_State_Penalty>  (4) 
0.0237729

>  <r_epik_Charging_Adjusted_Penalty>  (4) 
0.0237729

>  <i_epik_Tot_Q>  (4) 
0

>  <i_epik_Tot_abs_Q>  (4) 
0

>  <s_epik_Chemistry_Notes>  (4) 
This compound contains an acetal/aminal-like group ( X-CH(R)-Y where X, Y are N, S, or O) that may be acid/base labile, releasing an aldehyde.

>  <s_lp_Force_Field>  (4) 
OPLS3e

>  <r_lp_Energy>  (4) 
288.727

>  <b_lp_Chiralities_Consistent>  (4) 
1

>  <s_lp_Variant>  (4) 
4:0-2

>  <s_i_glide_gridfile>  (4) 
pfpi4k_grid

>  <i_i_glide_lignum>  (4) 
6

>  <i_i_glide_rotatable_bonds>  (4) 
12

>  <r_i_docking_score>  (4) 
-3.70304

>  <r_i_glide_ligand_efficiency>  (4) 
-0.0685748

>  <r_i_glide_ligand_efficiency_sa>  (4) 
-0.259197

>  <r_i_glide_ligand_efficiency_ln>  (4) 
-0.742243

>  <r_i_glide_gscore>  (4) 
-3.70304

>  <r_i_glide_lipo>  (4) 
-0.340033

>  <r_i_glide_hbond>  (4) 
-0.23201

>  <r_i_glide_metal>  (4) 
-0

>  <r_i_glide_rewards>  (4) 
-0.5

>  <r_i_glide_evdw>  (4) 
-25.5625

>  <r_i_glide_ecoul>  (4) 
-9.84242

>  <r_i_glide_erotb>  (4) 
0.181553

>  <r_i_glide_esite>  (4) 
-0.0580602

>  <r_i_glide_emodel>  (4) 
-49.2145

>  <r_i_glide_energy>  (4) 
-35.4049

>  <r_i_glide_einternal>  (4) 
4.30385

>  <r_i_glide_intrahb_reward>  (4) 
-0.5

>  <i_i_glide_confnum>  (4) 
2

>  <i_i_glide_posenum>  (4) 
25

>  <r_i_glide_eff_state_penalty>  (4) 
0

>  <ligand_id>  (4) 
4

>  <original_smiles>  (4) 
C=C1CC2C3(O)C(O)C4CCC(C)(C4(C)C)C4(C3C1=C)C([S+]([O-])C1C3(O)C(O)OC5OC4(C)C(O)C(O)C513)C1(C)C(=O)C(=C(O)CCC=C(C)C)C21CO

>  <smiles>  (4) 
[H]OC([H])([H])C12C([H])(C(=O)C([H])([H])C([H])([H])C([H])=C(C([H])([H])[H])C([H])([H])[H])C(=O)C1(C([H])([H])[H])C1([H])S(=O)C3([H])C4(O[H])C([H])(O[H])OC5([H])OC(C([H])([H])[H])(C([H])(O[H])C([H])(O[H])C534)C13C1([H])C(=C([H])[H])C(=C([H])[H])C([H])([H])C2([H])C1(O[H])C([H])(O[H])C1([H])C([H])([H])C([H])([H])C3(C([H])([H])[H])C1(C([H])([H])[H])C([H])([H])[H]

$$$$
4:1:1
     RDKit          3D

110118  0  0  1  0  0  0  0  0999 V2000
    2.1728    5.3603    6.5961 C   0  0  0  0  0  0  0  0  0  0  0  0
    2.8448    4.1932    6.5323 C   0  0  0  0  0  0  0  0  0  0  0  0
    3.5035    3.7295    5.2739 C   0  0  0  0  0  0  0  0  0  0  0  0
    3.0719    2.2706    4.9695 C   0  0  1  0  0  0  0  0  0  0  0  0
    3.5456    1.3476    6.1882 C   0  0  2  0  0  0  0  0  0  0  0  0
    4.9457    1.6111    6.3098 O   0  0  0  0  0  0  0  0  0  0  0  0
    3.5318   -0.1507    5.7663 C   0  0  1  0  0  0  0  0  0  0  0  0
    4.5248   -0.4564    4.7908 O   0  0  0  0  0  0  0  0  0  0  0  0
    3.3972   -1.3875    6.6884 C   0  0  2  0  0  0  0  0  0  0  0  0
    2.0516   -2.0515    6.3596 C   0  0  0  0  0  0  0  0  0  0  0  0
    1.0655   -1.4096    7.3406 C   0  0  0  0  0  0  0  0  0  0  0  0
    1.8438   -0.5619    8.3976 C   0  0  1  0  0  0  0  0  0  0  0  0
    1.2248   -1.2161    9.6918 C   0  0  0  0  0  0  0  0  0  0  0  0
    3.3148   -1.2125    8.2152 C   0  0  0  0  0  0  0  0  0  0  0  0
    3.4689   -2.6720    8.7982 C   0  0  0  0  0  0  0  0  0  0  0  0
    4.5846   -0.5757    8.8507 C   0  0  0  0  0  0  0  0  0  0  0  0
    1.6325    1.1302    8.1966 C   0  0  1  0  0  0  0  0  0  0  0  0
    2.9710    1.8206    7.5939 C   0  0  2  0  0  0  0  0  0  0  0  0
    3.1423    3.3753    7.6824 C   0  0  0  0  0  0  0  0  0  0  0  0
    3.8585    4.0165    8.6365 C   0  0  0  0  0  0  0  0  0  0  0  0
    0.4403    1.6325    7.1236 C   0  0  2  0  0  0  0  0  0  0  0  0
   -1.2629    1.3535    7.8942 S   0  0  0  0  0  0  0  0  0  0  0  0
   -2.2001    0.6070    6.9184 O   0  0  0  0  0  0  0  0  0  0  0  0
   -1.8060    3.1403    8.1061 C   0  0  2  0  0  0  0  0  0  0  0  0
   -2.1068    4.0661    9.3102 C   0  0  2  0  0  0  0  0  0  0  0  0
   -3.3185    3.7255   10.0098 O   0  0  0  0  0  0  0  0  0  0  0  0
   -1.4855    5.4319    9.5363 C   0  0  1  0  0  0  0  0  0  0  0  0
   -2.1887    6.2574   10.4548 O   0  0  0  0  0  0  0  0  0  0  0  0
   -0.1532    5.1884    9.9592 O   0  0  0  0  0  0  0  0  0  0  0  0
    0.2484    3.9996    9.3633 C   0  0  1  0  0  0  0  0  0  0  0  0
    1.3384    3.2751    9.8301 O   0  0  0  0  0  0  0  0  0  0  0  0
    1.3957    1.8146    9.7491 C   0  0  2  0  0  0  0  0  0  0  0  0
    2.6170    1.6585   10.7165 C   0  0  0  0  0  0  0  0  0  0  0  0
    0.1307    1.3622   10.6230 C   0  0  1  0  0  0  0  0  0  0  0  0
    0.3556    0.8207   11.9211 O   0  0  0  0  0  0  0  0  0  0  0  0
   -1.0060    2.3609   10.6998 C   0  0  1  0  0  0  0  0  0  0  0  0
   -0.9865    3.1497   11.8804 O   0  0  0  0  0  0  0  0  0  0  0  0
   -1.0123    3.2054    9.4208 C   0  0  2  0  0  0  0  0  0  0  0  0
    0.3810    1.7546    5.4661 C   0  0  2  0  0  0  0  0  0  0  0  0
   -0.8832    2.5945    5.0852 C   0  0  0  0  0  0  0  0  0  0  0  0
    0.2174    0.4327    4.6086 C   0  0  0  0  0  0  0  0  0  0  0  0
   -0.4280   -0.6025    4.7195 O   0  0  0  0  0  0  0  0  0  0  0  0
    1.0844    1.0101    3.4613 C   0  0  2  0  0  0  0  0  0  0  0  0
    2.0420    0.0604    2.7535 C   0  0  0  0  0  0  0  0  0  0  0  0
    2.1179   -1.1588    2.8885 O   0  0  0  0  0  0  0  0  0  0  0  0
    2.9653    0.7433    1.7103 C   0  0  0  0  0  0  0  0  0  0  0  0
    4.1486   -0.0724    1.1424 C   0  0  0  0  0  0  0  0  0  0  0  0
    3.7311   -1.2495    0.2736 C   0  0  0  0  0  0  0  0  0  0  0  0
    4.1559   -2.5266    0.3546 C   0  0  0  0  0  0  0  0  0  0  0  0
    5.1674   -3.0500    1.3607 C   0  0  0  0  0  0  0  0  0  0  0  0
    3.6332   -3.5783   -0.6025 C   0  0  0  0  0  0  0  0  0  0  0  0
    1.5765    2.1727    4.4303 C   0  0  2  0  0  0  0  0  0  0  0  0
    1.2949    3.4714    3.5839 C   0  0  0  0  0  0  0  0  0  0  0  0
    2.1863    3.6463    2.4940 O   0  0  0  0  0  0  0  0  0  0  0  0
    1.7888    5.7550    7.5242 H   0  0  0  0  0  0  0  0  0  0  0  0
    2.0310    5.9650    5.7122 H   0  0  0  0  0  0  0  0  0  0  0  0
    3.3740    4.4543    4.4714 H   0  0  0  0  0  0  0  0  0  0  0  0
    4.5806    3.8023    5.4231 H   0  0  0  0  0  0  0  0  0  0  0  0
    3.7218    1.9908    4.1485 H   0  0  0  0  0  0  0  0  0  0  0  0
    5.0622    2.5063    6.5260 H   0  0  0  0  0  0  0  0  0  0  0  0
    2.6355   -0.1659    5.2003 H   0  0  0  0  0  0  0  0  0  0  0  0
    4.4570    0.1563    4.0967 H   0  0  0  0  0  0  0  0  0  0  0  0
    4.2018   -2.0818    6.4433 H   0  0  0  0  0  0  0  0  0  0  0  0
    1.7334   -1.9911    5.3225 H   0  0  0  0  0  0  0  0  0  0  0  0
    2.1079   -3.1278    6.5274 H   0  0  0  0  0  0  0  0  0  0  0  0
    0.2608   -0.8536    6.9028 H   0  0  0  0  0  0  0  0  0  0  0  0
    0.5264   -2.2606    7.7600 H   0  0  0  0  0  0  0  0  0  0  0  0
    1.6361   -0.8844   10.6335 H   0  0  0  0  0  0  0  0  0  0  0  0
    1.3359   -2.2922    9.7742 H   0  0  0  0  0  0  0  0  0  0  0  0
    0.1422   -1.2107    9.7063 H   0  0  0  0  0  0  0  0  0  0  0  0
    3.5432   -2.6649    9.8879 H   0  0  0  0  0  0  0  0  0  0  0  0
    4.3796   -3.1579    8.4402 H   0  0  0  0  0  0  0  0  0  0  0  0
    2.6696   -3.3668    8.5466 H   0  0  0  0  0  0  0  0  0  0  0  0
    4.3733   -0.0785    9.7900 H   0  0  0  0  0  0  0  0  0  0  0  0
    5.1227    0.0918    8.1908 H   0  0  0  0  0  0  0  0  0  0  0  0
    5.3543   -1.3074    9.0905 H   0  0  0  0  0  0  0  0  0  0  0  0
    3.7189    1.5667    8.3103 H   0  0  0  0  0  0  0  0  0  0  0  0
    4.0377    5.0802    8.5637 H   0  0  0  0  0  0  0  0  0  0  0  0
    4.3289    3.5406    9.4768 H   0  0  0  0  0  0  0  0  0  0  0  0
    0.5751    2.6838    7.2784 H   0  0  0  0  0  0  0  0  0  0  0  0
   -1.5169    3.7455    7.2632 H   0  0  0  0  0  0  0  0  0  0  0  0
   -3.1163    3.6013   10.9138 H   0  0  0  0  0  0  0  0  0  0  0  0
   -1.4352    5.9916    8.5979 H   0  0  0  0  0  0  0  0  0  0  0  0
   -2.2559    5.7969   11.2540 H   0  0  0  0  0  0  0  0  0  0  0  0
    0.4612    4.3255    8.3380 H   0  0  0  0  0  0  0  0  0  0  0  0
    2.7778    0.6715   11.1262 H   0  0  0  0  0  0  0  0  0  0  0  0
    2.4759    2.3009   11.5915 H   0  0  0  0  0  0  0  0  0  0  0  0
    3.5765    1.9433   10.3271 H   0  0  0  0  0  0  0  0  0  0  0  0
   -0.3862    0.5739   10.1279 H   0  0  0  0  0  0  0  0  0  0  0  0
   -0.4722    0.6212   12.3182 H   0  0  0  0  0  0  0  0  0  0  0  0
   -1.9449    1.7939   10.7748 H   0  0  0  0  0  0  0  0  0  0  0  0
   -1.5542    2.7368   12.5119 H   0  0  0  0  0  0  0  0  0  0  0  0
   -0.6917    3.6613    5.2582 H   0  0  0  0  0  0  0  0  0  0  0  0
   -1.8159    2.3730    5.5768 H   0  0  0  0  0  0  0  0  0  0  0  0
   -1.1802    2.4944    4.0419 H   0  0  0  0  0  0  0  0  0  0  0  0
    2.3292    1.1016    0.9119 H   0  0  0  0  0  0  0  0  0  0  0  0
    3.4012    1.6287    2.1597 H   0  0  0  0  0  0  0  0  0  0  0  0
    0.4043    1.4050    2.7125 H   0  0  0  0  0  0  0  0  0  0  0  0
    4.8218   -0.3543    1.9489 H   0  0  0  0  0  0  0  0  0  0  0  0
    4.7366    0.5770    0.4980 H   0  0  0  0  0  0  0  0  0  0  0  0
    3.0132   -0.9974   -0.4939 H   0  0  0  0  0  0  0  0  0  0  0  0
    6.0429   -3.4362    0.8379 H   0  0  0  0  0  0  0  0  0  0  0  0
    4.7260   -3.8693    1.9283 H   0  0  0  0  0  0  0  0  0  0  0  0
    5.5139   -2.3105    2.0780 H   0  0  0  0  0  0  0  0  0  0  0  0
    4.4519   -4.0113   -1.1769 H   0  0  0  0  0  0  0  0  0  0  0  0
    2.9085   -3.1635   -1.3043 H   0  0  0  0  0  0  0  0  0  0  0  0
    3.1455   -4.3803   -0.0495 H   0  0  0  0  0  0  0  0  0  0  0  0
    0.3616    3.4368    3.0295 H   0  0  0  0  0  0  0  0  0  0  0  0
    1.1951    4.3753    4.1674 H   0  0  0  0  0  0  0  0  0  0  0  0
    1.6871    4.0868    1.8122 H   0  0  0  0  0  0  0  0  0  0  0  0
  1  2  2  0
  1 55  1  0
  1 56  1  0
  2 19  1  0
  2  3  1  0
  3  4  1  0
  3 57  1  0
  3 58  1  0
  4 52  1  0
  4  5  1  0
  4 59  1  6
  5 18  1  0
  5  6  1  1
  5  7  1  0
  6 60  1  0
  7  8  1  0
  7  9  1  0
  7 61  1  6
  8 62  1  0
  9 14  1  0
  9 10  1  0
  9 63  1  1
 10 11  1  0
 10 64  1  0
 10 65  1  0
 11 12  1  0
 11 66  1  0
 11 67  1  0
 12 13  1  1
 12 14  1  0
 17 12  1  1
 13 68  1  0
 13 69  1  0
 13 70  1  0
 14 15  1  0
 14 16  1  0
 15 71  1  0
 15 72  1  0
 15 73  1  0
 16 74  1  0
 16 75  1  0
 16 76  1  0
 17 32  1  0
 17 18  1  0
 17 21  1  0
 18 19  1  0
 18 77  1  1
 19 20  2  0
 20 78  1  0
 20 79  1  0
 22 21  1  6
 21 39  1  0
 21 80  1  1
 22 23  2  0
 22 24  1  0
 24 38  1  0
 24 25  1  0
 24 81  1  6
 38 25  1  1
 25 26  1  1
 25 27  1  0
 26 82  1  0
 27 28  1  0
 27 29  1  0
 27 83  1  6
 28 84  1  0
 29 30  1  0
 30 38  1  0
 30 31  1  0
 30 85  1  6
 31 32  1  0
 32 33  1  1
 32 34  1  0
 33 86  1  0
 33 87  1  0
 33 88  1  0
 34 35  1  0
 34 36  1  0
 34 89  1  6
 35 90  1  0
 36 37  1  0
 36 38  1  0
 36 91  1  1
 37 92  1  0
 39 52  1  0
 39 40  1  1
 39 41  1  0
 40 93  1  0
 40 94  1  0
 40 95  1  0
 41 42  2  0
 41 43  1  0
 43 52  1  0
 43 98  1  6
 43 44  1  0
 44 46  1  0
 44 45  2  0
 46 47  1  0
 46 97  1  0
 46 96  1  0
 47 48  1  0
 47 99  1  0
 47100  1  0
 48 49  2  3
 48101  1  0
 49 50  1  0
 49 51  1  0
 50102  1  0
 50103  1  0
 50104  1  0
 51105  1  0
 51106  1  0
 51107  1  0
 52 53  1  6
 53 54  1  0
 53108  1  0
 53109  1  0
 54110  1  0
M  END
>  <i_m_ct_stereo_status>  (5) 
1

>  <s_m_source_file>  (5) 
/var/tmp/pbs.5075288.sched01/tmpdioscf2v/0xa7vsnym.sdf

>  <i_m_source_file_index>  (5) 
6

>  <i_lp_mmshare_version>  (5) 
48012

>  <i_f3d_flags>  (5) 
0

>  <s_epik_input>  (5) 
W0NIM11bQ0BdMShbQ0BAXTIzNClbQ0gyXVtDSDJdW0NASF0oQzEoW0NIM10pW0NIM10pW0NASF0oW09IXSlbQ0BAXTUoW09IXSlbQ0hdKFtDSDJdQyg9W0NIMl0pQyhbQ0BASF0yNSk9W0NIMl0pW0NAXTYoW0NIMl1bT0hdKVtDQEBdKFtDSDNdKShDKD1PKS9DNj1DKC9bT0hdKVtDSDJdW0NIMl1bQ0hdPUMoW0NIM10pW0NIM10pW0NASF0zW1MrXShbTy1dKVtDQEBIXTdbQ0BdODlbQ0BAXTcoW09IXSlbQ0BASF0oW09IXSlPW0NASF04T1tDQEBdNChbQ0gzXSlbQ0BASF0oW09IXSlbQ0BIXTlbT0hd

>  <s_epik_cmdline>  (5) 
J2VwaWtfcHl0aG9uJywgJy1waHQnLCAnMi4wJywgJy1waCcsICc3LjAnLCAnLXRuJywgJzgnLCAnLW1hJywgJzIwMCcsICctaW1hZScsICc8aW5maWxlLm1hZT4nLCAnLW9tYWUnLCAnPG91dGZpbGUubWFlPic=

>  <r_lp_tautomer_probability>  (5) 
1

>  <r_epik_Ionization_Penalty>  (5) 
0.0288302

>  <r_epik_Ionization_Penalty_Charging>  (5) 
0

>  <r_epik_Ionization_Penalty_Neutral>  (5) 
0.0288302

>  <r_epik_State_Penalty>  (5) 
0.0237729

>  <r_epik_Charging_Adjusted_Penalty>  (5) 
0.0237729

>  <i_epik_Tot_Q>  (5) 
0

>  <i_epik_Tot_abs_Q>  (5) 
0

>  <s_epik_Chemistry_Notes>  (5) 
This compound contains an acetal/aminal-like group ( X-CH(R)-Y where X, Y are N, S, or O) that may be acid/base labile, releasing an aldehyde.

>  <s_lp_Force_Field>  (5) 
OPLS3e

>  <r_lp_Energy>  (5) 
288.727

>  <b_lp_Chiralities_Consistent>  (5) 
1

>  <s_lp_Variant>  (5) 
4:0-2

>  <s_i_glide_gridfile>  (5) 
pfpi4k_grid

>  <i_i_glide_lignum>  (5) 
6

>  <i_i_glide_rotatable_bonds>  (5) 
12

>  <r_i_docking_score>  (5) 
-3.64804

>  <r_i_glide_ligand_efficiency>  (5) 
-0.0675564

>  <r_i_glide_ligand_efficiency_sa>  (5) 
-0.255347

>  <r_i_glide_ligand_efficiency_ln>  (5) 
-0.73122

>  <r_i_glide_gscore>  (5) 
-3.64804

>  <r_i_glide_lipo>  (5) 
-0.24977

>  <r_i_glide_hbond>  (5) 
-0.304

>  <r_i_glide_metal>  (5) 
-0

>  <r_i_glide_rewards>  (5) 
0

>  <r_i_glide_evdw>  (5) 
-27.2832

>  <r_i_glide_ecoul>  (5) 
-12.2091

>  <r_i_glide_erotb>  (5) 
0.181553

>  <r_i_glide_esite>  (5) 
-0.0803053

>  <r_i_glide_emodel>  (5) 
-49.3473

>  <r_i_glide_energy>  (5) 
-39.4923

>  <r_i_glide_einternal>  (5) 
3.80009

>  <r_i_glide_intrahb_reward>  (5) 
-0

>  <i_i_glide_confnum>  (5) 
2

>  <i_i_glide_posenum>  (5) 
24

>  <r_i_glide_eff_state_penalty>  (5) 
0

>  <ligand_id>  (5) 
4

>  <original_smiles>  (5) 
C=C1CC2C3(O)C(O)C4CCC(C)(C4(C)C)C4(C3C1=C)C([S+]([O-])C1C3(O)C(O)OC5OC4(C)C(O)C(O)C513)C1(C)C(=O)C(=C(O)CCC=C(C)C)C21CO

>  <smiles>  (5) 
[H]OC([H])([H])C12C([H])(C(=O)C([H])([H])C([H])([H])C([H])=C(C([H])([H])[H])C([H])([H])[H])C(=O)C1(C([H])([H])[H])C1([H])S(=O)C3([H])C4(O[H])C([H])(O[H])OC5([H])OC(C([H])([H])[H])(C([H])(O[H])C([H])(O[H])C534)C13C1([H])C(=C([H])[H])C(=C([H])[H])C([H])([H])C2([H])C1(O[H])C([H])(O[H])C1([H])C([H])([H])C([H])([H])C3(C([H])([H])[H])C1(C([H])([H])[H])C([H])([H])[H]

$$$$
4:1:2
     RDKit          3D

110118  0  0  1  0  0  0  0  0999 V2000
    2.2008    4.9351    5.9490 C   0  0  0  0  0  0  0  0  0  0  0  0
    2.7863    3.7274    6.0298 C   0  0  0  0  0  0  0  0  0  0  0  0
    3.3943    3.0637    4.8366 C   0  0  0  0  0  0  0  0  0  0  0  0
    2.8660    1.6088    4.7201 C   0  0  1  0  0  0  0  0  0  0  0  0
    3.2862    0.8341    6.0508 C   0  0  2  0  0  0  0  0  0  0  0  0
    4.6976    1.0271    6.1373 O   0  0  0  0  0  0  0  0  0  0  0  0
    3.1719   -0.7060    5.8436 C   0  0  1  0  0  0  0  0  0  0  0  0
    4.1582   -1.1824    4.9404 O   0  0  0  0  0  0  0  0  0  0  0  0
    2.9758   -1.7995    6.9178 C   0  0  2  0  0  0  0  0  0  0  0  0
    1.5828   -2.4088    6.6926 C   0  0  0  0  0  0  0  0  0  0  0  0
    0.6579   -1.5783    7.5867 C   0  0  0  0  0  0  0  0  0  0  0  0
    1.5087   -0.6562    8.5146 C   0  0  1  0  0  0  0  0  0  0  0  0
    0.8697   -1.0932    9.8889 C   0  0  0  0  0  0  0  0  0  0  0  0
    2.9298   -1.4232    8.4071 C   0  0  0  0  0  0  0  0  0  0  0  0
    2.9939   -2.8000    9.1738 C   0  0  0  0  0  0  0  0  0  0  0  0
    4.2475   -0.8004    8.9474 C   0  0  0  0  0  0  0  0  0  0  0  0
    1.4033    1.0079    8.0955 C   0  0  1  0  0  0  0  0  0  0  0  0
    2.7733    1.5155    7.3946 C   0  0  2  0  0  0  0  0  0  0  0  0
    3.0427    3.0517    7.2809 C   0  0  0  0  0  0  0  0  0  0  0  0
    3.8186    3.7590    8.1307 C   0  0  0  0  0  0  0  0  0  0  0  0
    0.2424    1.4590    6.9715 C   0  0  2  0  0  0  0  0  0  0  0  0
   -1.4622    1.4235    7.7758 S   0  0  0  0  0  0  0  0  0  0  0  0
   -2.4497    0.6112    6.8821 O   0  0  0  0  0  0  0  0  0  0  0  0
   -1.9004    3.2372    7.7507 C   0  0  2  0  0  0  0  0  0  0  0  0
   -2.1029    4.3113    8.8303 C   0  0  2  0  0  0  0  0  0  0  0  0
   -3.3136    4.1395    9.5678 O   0  0  0  0  0  0  0  0  0  0  0  0
   -1.3977    5.6620    8.8846 C   0  0  1  0  0  0  0  0  0  0  0  0
   -2.0494    6.6238    9.6968 O   0  0  0  0  0  0  0  0  0  0  0  0
   -0.0749    5.3767    9.3290 O   0  0  0  0  0  0  0  0  0  0  0  0
    0.2388    4.0894    8.8898 C   0  0  1  0  0  0  0  0  0  0  0  0
    1.2832    3.3526    9.4470 O   0  0  0  0  0  0  0  0  0  0  0  0
    1.2377    1.8936    9.5472 C   0  0  2  0  0  0  0  0  0  0  0  0
    2.4633    1.7821   10.5151 C   0  0  0  0  0  0  0  0  0  0  0  0
   -0.0422    1.6498   10.4775 C   0  0  1  0  0  0  0  0  0  0  0  0
    0.1691    1.2873   11.8398 O   0  0  0  0  0  0  0  0  0  0  0  0
   -1.1093    2.7214   10.4256 C   0  0  1  0  0  0  0  0  0  0  0  0
   -1.0174    3.6594   11.4904 O   0  0  0  0  0  0  0  0  0  0  0  0
   -1.0697    3.4022    9.0451 C   0  0  2  0  0  0  0  0  0  0  0  0
    0.1693    1.3588    5.3100 C   0  0  2  0  0  0  0  0  0  0  0  0
   -1.0495    2.2167    4.8278 C   0  0  0  0  0  0  0  0  0  0  0  0
   -0.1080   -0.0535    4.6385 C   0  0  0  0  0  0  0  0  0  0  0  0
   -0.8233   -1.0187    4.8958 O   0  0  0  0  0  0  0  0  0  0  0  0
    0.7649    0.3167    3.4113 C   0  0  2  0  0  0  0  0  0  0  0  0
    1.6472   -0.7755    2.8028 C   0  0  0  0  0  0  0  0  0  0  0  0
    1.7326   -1.9492    3.1423 O   0  0  0  0  0  0  0  0  0  0  0  0
    2.4609   -0.3270    1.5608 C   0  0  0  0  0  0  0  0  0  0  0  0
    3.2285   -1.4561    0.8156 C   0  0  0  0  0  0  0  0  0  0  0  0
    3.8374   -0.9883   -0.5081 C   0  0  0  0  0  0  0  0  0  0  0  0
    3.6508   -1.4992   -1.7476 C   0  0  0  0  0  0  0  0  0  0  0  0
    2.7590   -2.6788   -2.0928 C   0  0  0  0  0  0  0  0  0  0  0  0
    4.3642   -0.9197   -2.9569 C   0  0  0  0  0  0  0  0  0  0  0  0
    1.3579    1.5459    4.2188 C   0  0  2  0  0  0  0  0  0  0  0  0
    1.1242    2.7367    3.2327 C   0  0  0  0  0  0  0  0  0  0  0  0
    1.9543    2.6610    2.1001 O   0  0  0  0  0  0  0  0  0  0  0  0
    1.8633    5.4761    6.8215 H   0  0  0  0  0  0  0  0  0  0  0  0
    2.0928    5.4328    4.9947 H   0  0  0  0  0  0  0  0  0  0  0  0
    3.3038    3.6845    3.9510 H   0  0  0  0  0  0  0  0  0  0  0  0
    4.4725    3.0803    4.9871 H   0  0  0  0  0  0  0  0  0  0  0  0
    3.4753    1.1810    3.9295 H   0  0  0  0  0  0  0  0  0  0  0  0
    5.0330    0.4796    6.8133 H   0  0  0  0  0  0  0  0  0  0  0  0
    2.2711   -0.7432    5.2843 H   0  0  0  0  0  0  0  0  0  0  0  0
    4.0896   -0.7004    4.1455 H   0  0  0  0  0  0  0  0  0  0  0  0
    3.7252   -2.5770    6.7558 H   0  0  0  0  0  0  0  0  0  0  0  0
    1.2489   -2.4651    5.6582 H   0  0  0  0  0  0  0  0  0  0  0  0
    1.5670   -3.4530    7.0025 H   0  0  0  0  0  0  0  0  0  0  0  0
   -0.1110   -1.0271    7.0843 H   0  0  0  0  0  0  0  0  0  0  0  0
    0.0723   -2.3288    8.1217 H   0  0  0  0  0  0  0  0  0  0  0  0
    1.3156   -0.6695   10.7753 H   0  0  0  0  0  0  0  0  0  0  0  0
    0.9090   -2.1550   10.1093 H   0  0  0  0  0  0  0  0  0  0  0  0
   -0.2101   -1.0108    9.9100 H   0  0  0  0  0  0  0  0  0  0  0  0
    3.0867   -2.6543   10.2532 H   0  0  0  0  0  0  0  0  0  0  0  0
    3.8643   -3.3890    8.8742 H   0  0  0  0  0  0  0  0  0  0  0  0
    2.1457   -3.4663    9.0215 H   0  0  0  0  0  0  0  0  0  0  0  0
    4.0851   -0.1766    9.8190 H   0  0  0  0  0  0  0  0  0  0  0  0
    4.8219   -0.2623    8.2081 H   0  0  0  0  0  0  0  0  0  0  0  0
    4.9651   -1.5527    9.2749 H   0  0  0  0  0  0  0  0  0  0  0  0
    3.5197    1.3103    8.1323 H   0  0  0  0  0  0  0  0  0  0  0  0
    4.0726    4.7882    7.9116 H   0  0  0  0  0  0  0  0  0  0  0  0
    4.2775    3.3661    9.0220 H   0  0  0  0  0  0  0  0  0  0  0  0
    0.4498    2.5067    6.9949 H   0  0  0  0  0  0  0  0  0  0  0  0
   -1.5802    3.7113    6.8278 H   0  0  0  0  0  0  0  0  0  0  0  0
   -3.1007    4.1661   10.4754 H   0  0  0  0  0  0  0  0  0  0  0  0
   -1.3211    6.0955    7.8859 H   0  0  0  0  0  0  0  0  0  0  0  0
   -2.0917    6.2911   10.5623 H   0  0  0  0  0  0  0  0  0  0  0  0
    0.4658    4.2611    7.8388 H   0  0  0  0  0  0  0  0  0  0  0  0
    2.5680    0.8476   11.0533 H   0  0  0  0  0  0  0  0  0  0  0  0
    2.3794    2.5425   11.2957 H   0  0  0  0  0  0  0  0  0  0  0  0
    3.4337    1.9503   10.0822 H   0  0  0  0  0  0  0  0  0  0  0  0
   -0.6178    0.8414   10.0884 H   0  0  0  0  0  0  0  0  0  0  0  0
   -0.6638    1.0859   12.2355 H   0  0  0  0  0  0  0  0  0  0  0  0
   -2.0785    2.2360   10.5779 H   0  0  0  0  0  0  0  0  0  0  0  0
   -1.2724    3.2260   12.2861 H   0  0  0  0  0  0  0  0  0  0  0  0
   -0.7947    3.2777    4.8618 H   0  0  0  0  0  0  0  0  0  0  0  0
   -1.9938    2.1320    5.3395 H   0  0  0  0  0  0  0  0  0  0  0  0
   -1.3705    1.9890    3.8098 H   0  0  0  0  0  0  0  0  0  0  0  0
    1.7515    0.1436    0.8833 H   0  0  0  0  0  0  0  0  0  0  0  0
    3.1659    0.4459    1.8624 H   0  0  0  0  0  0  0  0  0  0  0  0
    0.1024    0.6804    2.6260 H   0  0  0  0  0  0  0  0  0  0  0  0
    2.5678   -2.3014    0.6651 H   0  0  0  0  0  0  0  0  0  0  0  0
    4.0477   -1.8081    1.4408 H   0  0  0  0  0  0  0  0  0  0  0  0
    4.4962   -0.1392   -0.4064 H   0  0  0  0  0  0  0  0  0  0  0  0
    3.3551   -3.4926   -2.5064 H   0  0  0  0  0  0  0  0  0  0  0  0
    2.0316   -2.3826   -2.8492 H   0  0  0  0  0  0  0  0  0  0  0  0
    2.2008   -3.0703   -1.2468 H   0  0  0  0  0  0  0  0  0  0  0  0
    4.9876   -1.6811   -3.4248 H   0  0  0  0  0  0  0  0  0  0  0  0
    4.9976   -0.0753   -2.6943 H   0  0  0  0  0  0  0  0  0  0  0  0
    3.6454   -0.5815   -3.7014 H   0  0  0  0  0  0  0  0  0  0  0  0
    0.1860    2.7008    2.6895 H   0  0  0  0  0  0  0  0  0  0  0  0
    1.0891    3.7232    3.6809 H   0  0  0  0  0  0  0  0  0  0  0  0
    1.6509    3.3430    1.5203 H   0  0  0  0  0  0  0  0  0  0  0  0
  1  2  2  0
  1 55  1  0
  1 56  1  0
  2 19  1  0
  2  3  1  0
  3  4  1  0
  3 57  1  0
  3 58  1  0
  4 52  1  0
  4  5  1  0
  4 59  1  6
  5 18  1  0
  5  6  1  1
  5  7  1  0
  6 60  1  0
  7  8  1  0
  7  9  1  0
  7 61  1  6
  8 62  1  0
  9 14  1  0
  9 10  1  0
  9 63  1  1
 10 11  1  0
 10 64  1  0
 10 65  1  0
 11 12  1  0
 11 66  1  0
 11 67  1  0
 12 13  1  1
 12 14  1  0
 17 12  1  1
 13 68  1  0
 13 69  1  0
 13 70  1  0
 14 15  1  0
 14 16  1  0
 15 71  1  0
 15 72  1  0
 15 73  1  0
 16 74  1  0
 16 75  1  0
 16 76  1  0
 17 32  1  0
 17 18  1  0
 17 21  1  0
 18 19  1  0
 18 77  1  1
 19 20  2  0
 20 78  1  0
 20 79  1  0
 22 21  1  6
 21 39  1  0
 21 80  1  6
 22 23  2  0
 22 24  1  0
 24 38  1  0
 24 25  1  0
 24 81  1  6
 38 25  1  1
 25 26  1  1
 25 27  1  0
 26 82  1  0
 27 28  1  0
 27 29  1  0
 27 83  1  6
 28 84  1  0
 29 30  1  0
 30 38  1  0
 30 31  1  0
 30 85  1  6
 31 32  1  0
 32 33  1  1
 32 34  1  0
 33 86  1  0
 33 87  1  0
 33 88  1  0
 34 35  1  0
 34 36  1  0
 34 89  1  6
 35 90  1  0
 36 37  1  0
 36 38  1  0
 36 91  1  1
 37 92  1  0
 39 52  1  0
 39 40  1  6
 39 41  1  0
 40 93  1  0
 40 94  1  0
 40 95  1  0
 41 42  2  0
 41 43  1  0
 43 52  1  0
 43 98  1  6
 43 44  1  0
 44 46  1  0
 44 45  2  0
 46 47  1  0
 46 97  1  0
 46 96  1  0
 47 48  1  0
 47 99  1  0
 47100  1  0
 48 49  2  3
 48101  1  0
 49 50  1  0
 49 51  1  0
 50102  1  0
 50103  1  0
 50104  1  0
 51105  1  0
 51106  1  0
 51107  1  0
 52 53  1  6
 53 54  1  0
 53108  1  0
 53109  1  0
 54110  1  0
M  END
>  <i_m_ct_stereo_status>  (6) 
1

>  <s_m_source_file>  (6) 
/var/tmp/pbs.5075288.sched01/tmpdioscf2v/0xa7vsnym.sdf

>  <i_m_source_file_index>  (6) 
6

>  <i_lp_mmshare_version>  (6) 
48012

>  <i_f3d_flags>  (6) 
0

>  <s_epik_input>  (6) 
W0NIM11bQ0BdMShbQ0BAXTIzNClbQ0gyXVtDSDJdW0NASF0oQzEoW0NIM10pW0NIM10pW0NASF0oW09IXSlbQ0BAXTUoW09IXSlbQ0hdKFtDSDJdQyg9W0NIMl0pQyhbQ0BASF0yNSk9W0NIMl0pW0NAXTYoW0NIMl1bT0hdKVtDQEBdKFtDSDNdKShDKD1PKS9DNj1DKC9bT0hdKVtDSDJdW0NIMl1bQ0hdPUMoW0NIM10pW0NIM10pW0NASF0zW1MrXShbTy1dKVtDQEBIXTdbQ0BdODlbQ0BAXTcoW09IXSlbQ0BASF0oW09IXSlPW0NASF04T1tDQEBdNChbQ0gzXSlbQ0BASF0oW09IXSlbQ0BIXTlbT0hd

>  <s_epik_cmdline>  (6) 
J2VwaWtfcHl0aG9uJywgJy1waHQnLCAnMi4wJywgJy1waCcsICc3LjAnLCAnLXRuJywgJzgnLCAnLW1hJywgJzIwMCcsICctaW1hZScsICc8aW5maWxlLm1hZT4nLCAnLW9tYWUnLCAnPG91dGZpbGUubWFlPic=

>  <r_lp_tautomer_probability>  (6) 
1

>  <r_epik_Ionization_Penalty>  (6) 
0.0288302

>  <r_epik_Ionization_Penalty_Charging>  (6) 
0

>  <r_epik_Ionization_Penalty_Neutral>  (6) 
0.0288302

>  <r_epik_State_Penalty>  (6) 
0.0237729

>  <r_epik_Charging_Adjusted_Penalty>  (6) 
0.0237729

>  <i_epik_Tot_Q>  (6) 
0

>  <i_epik_Tot_abs_Q>  (6) 
0

>  <s_epik_Chemistry_Notes>  (6) 
This compound contains an acetal/aminal-like group ( X-CH(R)-Y where X, Y are N, S, or O) that may be acid/base labile, releasing an aldehyde.

>  <s_lp_Force_Field>  (6) 
OPLS3e

>  <r_lp_Energy>  (6) 
288.727

>  <b_lp_Chiralities_Consistent>  (6) 
1

>  <s_lp_Variant>  (6) 
4:0-2

>  <s_i_glide_gridfile>  (6) 
pfpi4k_grid

>  <i_i_glide_lignum>  (6) 
6

>  <i_i_glide_rotatable_bonds>  (6) 
12

>  <r_i_docking_score>  (6) 
-3.26756

>  <r_i_glide_ligand_efficiency>  (6) 
-0.0605103

>  <r_i_glide_ligand_efficiency_sa>  (6) 
-0.228715

>  <r_i_glide_ligand_efficiency_ln>  (6) 
-0.654954

>  <r_i_glide_gscore>  (6) 
-3.26756

>  <r_i_glide_lipo>  (6) 
-0.0682742

>  <r_i_glide_hbond>  (6) 
-0.315598

>  <r_i_glide_metal>  (6) 
-0

>  <r_i_glide_rewards>  (6) 
0

>  <r_i_glide_evdw>  (6) 
-31.2094

>  <r_i_glide_ecoul>  (6) 
-9.38838

>  <r_i_glide_erotb>  (6) 
0.181553

>  <r_i_glide_esite>  (6) 
-0.0965109

>  <r_i_glide_emodel>  (6) 
-49.4709

>  <r_i_glide_energy>  (6) 
-40.5978

>  <r_i_glide_einternal>  (6) 
2.78551

>  <r_i_glide_intrahb_reward>  (6) 
-0

>  <i_i_glide_confnum>  (6) 
2

>  <i_i_glide_posenum>  (6) 
23

>  <r_i_glide_eff_state_penalty>  (6) 
0

>  <ligand_id>  (6) 
4

>  <original_smiles>  (6) 
C=C1CC2C3(O)C(O)C4CCC(C)(C4(C)C)C4(C3C1=C)C([S+]([O-])C1C3(O)C(O)OC5OC4(C)C(O)C(O)C513)C1(C)C(=O)C(=C(O)CCC=C(C)C)C21CO

>  <smiles>  (6) 
[H]OC([H])([H])C12C([H])(C(=O)C([H])([H])C([H])([H])C([H])=C(C([H])([H])[H])C([H])([H])[H])C(=O)C1(C([H])([H])[H])C1([H])S(=O)C3([H])C4(O[H])C([H])(O[H])OC5([H])OC(C([H])([H])[H])(C([H])(O[H])C([H])(O[H])C534)C13C1([H])C(=C([H])[H])C(=C([H])[H])C([H])([H])C2([H])C1(O[H])C([H])(O[H])C1([H])C([H])([H])C([H])([H])C3(C([H])([H])[H])C1(C([H])([H])[H])C([H])([H])[H]

$$$$
7:0:0
     RDKit          3D

 44 46  0  0  1  0  0  0  0  0999 V2000
    3.1568   -4.4482    1.1855 C   0  0  0  0  0  0  0  0  0  0  0  0
    3.6615   -3.2041    1.2007 C   0  0  0  0  0  0  0  0  0  0  0  0
    4.3538   -2.5245    0.0302 C   0  0  1  0  0  0  0  0  0  0  0  0
    3.3619   -2.2264   -1.0441 N   0  0  1  0  0  0  0  0  0  0  0  0
    3.8642   -1.4998   -2.2157 C   0  0  0  0  0  0  0  0  0  0  0  0
    2.8821   -2.3232   -3.0334 C   0  0  1  0  0  0  0  0  0  0  0  0
    3.2784   -2.6990   -4.3148 O   0  0  0  0  0  0  0  0  0  0  0  0
    3.0166   -3.3521   -1.9227 C   0  0  0  0  0  0  0  0  0  0  0  0
    4.9358   -1.2361    0.6394 C   0  0  0  0  0  0  0  0  0  0  0  0
    4.0190   -0.8826    1.8312 C   0  0  1  0  0  0  0  0  0  0  0  0
    4.7737   -0.2514    2.7171 F   0  0  0  0  0  0  0  0  0  0  0  0
    2.8549    0.0316    1.3494 C   0  0  0  0  0  0  0  0  0  0  0  0
    2.3788    0.9136    2.4046 N   0  0  0  0  0  0  0  0  0  0  0  0
    1.2062    0.8306    3.0473 C   0  0  0  0  0  0  0  0  0  0  0  0
    0.3860   -0.0631    2.8416 O   0  0  0  0  0  0  0  0  0  0  0  0
    0.9415    1.8946    4.1165 C   0  0  2  0  0  0  0  0  0  0  0  0
   -0.5334    1.9601    4.6133 C   0  0  0  0  0  0  0  0  0  0  0  0
   -1.5815    3.1055    3.6809 S   0  0  0  0  0  0  0  0  0  0  0  0
   -0.2380    4.6869    3.6856 S   0  0  0  0  0  0  0  0  0  0  0  0
   -0.3437    5.4849    4.9780 O   0  0  0  0  0  0  0  0  0  0  0  0
    1.5124    3.5766    3.5318 S   0  0  0  0  0  0  0  0  0  0  0  0
    2.7152    4.0064    4.3781 O   0  0  0  0  0  0  0  0  0  0  0  0
    3.5636   -2.2670    2.3693 C   0  0  1  0  0  0  0  0  0  0  0  0
    2.2647   -2.3174    2.9309 O   0  0  0  0  0  0  0  0  0  0  0  0
    2.6370   -4.8330    2.0520 H   0  0  0  0  0  0  0  0  0  0  0  0
    3.2287   -5.0871    0.3182 H   0  0  0  0  0  0  0  0  0  0  0  0
    5.1639   -3.1506   -0.3293 H   0  0  0  0  0  0  0  0  0  0  0  0
    3.6429   -0.4259   -2.1995 H   0  0  0  0  0  0  0  0  0  0  0  0
    4.9063   -1.7251   -2.4769 H   0  0  0  0  0  0  0  0  0  0  0  0
    1.8795   -1.8850   -3.0459 H   0  0  0  0  0  0  0  0  0  0  0  0
    2.4899   -2.6396   -4.8647 H   0  0  0  0  0  0  0  0  0  0  0  0
    3.8472   -4.0476   -2.0874 H   0  0  0  0  0  0  0  0  0  0  0  0
    2.0791   -3.8450   -1.6387 H   0  0  0  0  0  0  0  0  0  0  0  0
    5.9375   -1.4294    1.0098 H   0  0  0  0  0  0  0  0  0  0  0  0
    5.0470   -0.4102   -0.0677 H   0  0  0  0  0  0  0  0  0  0  0  0
    3.1843    0.6778    0.5508 H   0  0  0  0  0  0  0  0  0  0  0  0
    2.0360   -0.5535    0.9312 H   0  0  0  0  0  0  0  0  0  0  0  0
    2.9991    1.6750    2.6761 H   0  0  0  0  0  0  0  0  0  0  0  0
    1.5573    1.6377    4.9711 H   0  0  0  0  0  0  0  0  0  0  0  0
   -1.0213    0.9887    4.6226 H   0  0  0  0  0  0  0  0  0  0  0  0
   -0.5526    2.3118    5.6471 H   0  0  0  0  0  0  0  0  0  0  0  0
    4.2616   -2.6010    3.1362 H   0  0  0  0  0  0  0  0  0  0  0  0
    1.6938   -1.7283    2.4487 H   0  0  0  0  0  0  0  0  0  0  0  0
    2.4993   -1.7773   -0.7218 H   0  0  0  0  0  0  0  0  0  0  0  0
  1  2  2  0
  1 25  1  0
  1 26  1  0
  2 23  1  0
  2  3  1  0
  3  4  1  0
  3  9  1  0
  3 27  1  6
  4  8  1  0
  4  5  1  0
  4 44  1  1
  5  6  1  0
  5 28  1  0
  5 29  1  0
  6  7  1  0
  6  8  1  0
  6 30  1  6
  7 31  1  0
  8 32  1  0
  8 33  1  0
  9 10  1  0
  9 34  1  0
  9 35  1  0
 10 11  1  1
 10 12  1  0
 10 23  1  0
 12 13  1  0
 12 36  1  0
 12 37  1  0
 13 14  1  0
 13 38  1  0
 14 15  2  0
 14 16  1  0
 16 21  1  0
 16 17  1  0
 16 39  1  1
 17 18  1  0
 17 40  1  0
 17 41  1  0
 19 18  1  1
 19 20  2  0
 21 19  1  1
 21 22  2  0
 23 24  1  0
 23 42  1  1
 24 43  1  0
M  CHG  1   4   1
M  END
>  <i_m_ct_stereo_status>  (7) 
1

>  <s_m_source_file>  (7) 
/var/tmp/pbs.5075288.sched01/tmpdioscf2v/0xa7vsnym.sdf

>  <i_m_source_file_index>  (7) 
10

>  <i_lp_mmshare_version>  (7) 
48012

>  <i_f3d_flags>  (7) 
0

>  <s_epik_input>  (7) 
W09IXVtDSF0oW0NIMl0xKVtDSDJdTjFbQ0BIXShDKD1bQ0gyXSlbQ0BASF0yW09IXSlbQ0gyXVtDQEBdMihGKVtDSDJdW05IXUMoPU8pW0NAQEhdM1tDSDJdU1tTK10oW08tXSlbUytdM1tPLV0=

>  <s_epik_cmdline>  (7) 
J2VwaWtfcHl0aG9uJywgJy1waHQnLCAnMi4wJywgJy1waCcsICc3LjAnLCAnLXRuJywgJzgnLCAnLW1hJywgJzIwMCcsICctaW1hZScsICc8aW5maWxlLm1hZT4nLCAnLW9tYWUnLCAnPG91dGZpbGUubWFlPic=

>  <r_epik_Ionization_Penalty>  (7) 
0.0721005

>  <r_epik_Ionization_Penalty_Charging>  (7) 
0.020894

>  <r_epik_Ionization_Penalty_Neutral>  (7) 
0.0512065

>  <r_epik_State_Penalty>  (7) 
0.0923703

>  <r_epik_Charging_Adjusted_Penalty>  (7) 
0.113264

>  <i_epik_Tot_Q>  (7) 
1

>  <i_epik_Tot_abs_Q>  (7) 
5

>  <s_lp_Force_Field>  (7) 
OPLS3e

>  <r_lp_Energy>  (7) 
19.0001

>  <b_lp_Chiralities_Consistent>  (7) 
1

>  <s_lp_Variant>  (7) 
7:0-1

>  <s_i_glide_gridfile>  (7) 
pfpi4k_grid

>  <i_i_glide_lignum>  (7) 
10

>  <i_i_glide_rotatable_bonds>  (7) 
7

>  <r_i_docking_score>  (7) 
-5.13843

>  <r_i_glide_ligand_efficiency>  (7) 
-0.214101

>  <r_i_glide_ligand_efficiency_sa>  (7) 
-0.617575

>  <r_i_glide_ligand_efficiency_ln>  (7) 
-1.22986

>  <r_i_glide_gscore>  (7) 
-5.13843

>  <r_i_glide_lipo>  (7) 
-0.166448

>  <r_i_glide_hbond>  (7) 
-0.760335

>  <r_i_glide_metal>  (7) 
-0

>  <r_i_glide_rewards>  (7) 
-1.32235

>  <r_i_glide_evdw>  (7) 
-25.4696

>  <r_i_glide_ecoul>  (7) 
-12.3632

>  <r_i_glide_erotb>  (7) 
0.491094

>  <r_i_glide_esite>  (7) 
-0.252431

>  <r_i_glide_emodel>  (7) 
-56.2028

>  <r_i_glide_energy>  (7) 
-37.8328

>  <r_i_glide_einternal>  (7) 
6.93947

>  <r_i_glide_intrahb_reward>  (7) 
-0.5

>  <i_i_glide_confnum>  (7) 
2

>  <i_i_glide_posenum>  (7) 
10

>  <r_i_glide_eff_state_penalty>  (7) 
0

>  <ligand_id>  (7) 
7

>  <original_smiles>  (7) 
C=C1C(N2CC(O)C2)CC(F)(CNC(=O)C2CS[S+]([O-])[S+]2[O-])C1O

>  <smiles>  (7) 
[H]OC1([H])C(=C([H])[H])C([H])([N+]2([H])C([H])([H])C([H])(O[H])C2([H])[H])C([H])([H])C1(F)C([H])([H])N([H])C(=O)C1([H])S(=O)S(=O)SC1([H])[H]

$$$$
7:0:1
     RDKit          3D

 44 46  0  0  1  0  0  0  0  0999 V2000
    2.5809   -3.6445    2.5020 C   0  0  0  0  0  0  0  0  0  0  0  0
    2.8459   -2.3424    2.2961 C   0  0  0  0  0  0  0  0  0  0  0  0
    3.6913   -1.7782    1.1606 C   0  0  1  0  0  0  0  0  0  0  0  0
    3.0295   -1.9583   -0.1421 N   0  0  1  0  0  0  0  0  0  0  0  0
    3.7707   -1.5890   -1.3596 C   0  0  0  0  0  0  0  0  0  0  0  0
    3.0055   -2.7149   -2.0577 C   0  0  1  0  0  0  0  0  0  0  0  0
    3.7285   -3.4580   -3.0136 O   0  0  0  0  0  0  0  0  0  0  0  0
    2.9174   -3.3307   -0.6604 C   0  0  0  0  0  0  0  0  0  0  0  0
    3.8168   -0.2798    1.5323 C   0  0  0  0  0  0  0  0  0  0  0  0
    2.5693    0.0695    2.3725 C   0  0  1  0  0  0  0  0  0  0  0  0
    2.9634    1.0312    3.2116 F   0  0  0  0  0  0  0  0  0  0  0  0
    1.4007    0.5655    1.4576 C   0  0  0  0  0  0  0  0  0  0  0  0
    0.7069    1.7672    1.9153 N   0  0  0  0  0  0  0  0  0  0  0  0
    0.0763    1.9235    3.0846 C   0  0  0  0  0  0  0  0  0  0  0  0
   -0.1361    0.9891    3.8571 O   0  0  0  0  0  0  0  0  0  0  0  0
   -0.3653    3.3443    3.4398 C   0  0  2  0  0  0  0  0  0  0  0  0
    0.7825    4.4100    3.3176 C   0  0  0  0  0  0  0  0  0  0  0  0
    1.7267    4.6621    4.8417 S   0  0  0  0  0  0  0  0  0  0  0  0
    0.1152    4.7973    6.1110 S   0  0  0  0  0  0  0  0  0  0  0  0
   -0.5283    6.1838    6.0861 O   0  0  0  0  0  0  0  0  0  0  0  0
   -1.0898    3.3846    5.1619 S   0  0  0  0  0  0  0  0  0  0  0  0
   -2.5844    3.7011    5.0860 O   0  0  0  0  0  0  0  0  0  0  0  0
    2.2488   -1.2435    3.1306 C   0  0  1  0  0  0  0  0  0  0  0  0
    0.8825   -1.5279    3.3559 O   0  0  0  0  0  0  0  0  0  0  0  0
    1.9094   -3.9460    3.2989 H   0  0  0  0  0  0  0  0  0  0  0  0
    2.9877   -4.4169    1.8708 H   0  0  0  0  0  0  0  0  0  0  0  0
    4.6707   -2.2605    1.1852 H   0  0  0  0  0  0  0  0  0  0  0  0
    3.4950   -0.6016   -1.7443 H   0  0  0  0  0  0  0  0  0  0  0  0
    4.8499   -1.7579   -1.2713 H   0  0  0  0  0  0  0  0  0  0  0  0
    2.0291   -2.4112   -2.4402 H   0  0  0  0  0  0  0  0  0  0  0  0
    3.4165   -4.3649   -2.9666 H   0  0  0  0  0  0  0  0  0  0  0  0
    3.7678   -3.9540   -0.4027 H   0  0  0  0  0  0  0  0  0  0  0  0
    1.9556   -3.7858   -0.4434 H   0  0  0  0  0  0  0  0  0  0  0  0
    4.7141   -0.1441    2.1416 H   0  0  0  0  0  0  0  0  0  0  0  0
    3.9696    0.3665    0.6643 H   0  0  0  0  0  0  0  0  0  0  0  0
    1.7980    0.8052    0.4822 H   0  0  0  0  0  0  0  0  0  0  0  0
    0.6395   -0.2186    1.3069 H   0  0  0  0  0  0  0  0  0  0  0  0
    0.7495    2.5922    1.3131 H   0  0  0  0  0  0  0  0  0  0  0  0
   -1.1664    3.6197    2.7481 H   0  0  0  0  0  0  0  0  0  0  0  0
    1.4899    4.1854    2.5166 H   0  0  0  0  0  0  0  0  0  0  0  0
    0.3388    5.3782    3.0708 H   0  0  0  0  0  0  0  0  0  0  0  0
    2.7400   -1.2291    4.1008 H   0  0  0  0  0  0  0  0  0  0  0  0
    0.3740   -1.1612    2.6496 H   0  0  0  0  0  0  0  0  0  0  0  0
    2.1049   -1.5106   -0.2215 H   0  0  0  0  0  0  0  0  0  0  0  0
  1  2  2  0
  1 25  1  0
  1 26  1  0
  2 23  1  0
  2  3  1  0
  3  4  1  0
  3  9  1  0
  3 27  1  6
  4  8  1  0
  4  5  1  0
  4 44  1  1
  5  6  1  0
  5 28  1  0
  5 29  1  0
  6  7  1  0
  6  8  1  0
  6 30  1  6
  7 31  1  0
  8 32  1  0
  8 33  1  0
  9 10  1  0
  9 34  1  0
  9 35  1  0
 10 11  1  1
 10 12  1  0
 10 23  1  0
 12 13  1  0
 12 36  1  0
 12 37  1  0
 13 14  1  0
 13 38  1  0
 14 15  2  0
 14 16  1  0
 16 21  1  0
 16 17  1  0
 16 39  1  6
 17 18  1  0
 17 40  1  0
 17 41  1  0
 19 18  1  6
 19 20  2  0
 21 19  1  1
 21 22  2  0
 23 24  1  0
 23 42  1  1
 24 43  1  0
M  CHG  1   4   1
M  END
>  <i_m_ct_stereo_status>  (8) 
1

>  <s_m_source_file>  (8) 
/var/tmp/pbs.5075288.sched01/tmpdioscf2v/0xa7vsnym.sdf

>  <i_m_source_file_index>  (8) 
10

>  <i_lp_mmshare_version>  (8) 
48012

>  <i_f3d_flags>  (8) 
0

>  <s_epik_input>  (8) 
W09IXVtDSF0oW0NIMl0xKVtDSDJdTjFbQ0BIXShDKD1bQ0gyXSlbQ0BASF0yW09IXSlbQ0gyXVtDQEBdMihGKVtDSDJdW05IXUMoPU8pW0NAQEhdM1tDSDJdU1tTK10oW08tXSlbUytdM1tPLV0=

>  <s_epik_cmdline>  (8) 
J2VwaWtfcHl0aG9uJywgJy1waHQnLCAnMi4wJywgJy1waCcsICc3LjAnLCAnLXRuJywgJzgnLCAnLW1hJywgJzIwMCcsICctaW1hZScsICc8aW5maWxlLm1hZT4nLCAnLW9tYWUnLCAnPG91dGZpbGUubWFlPic=

>  <r_epik_Ionization_Penalty>  (8) 
0.0721005

>  <r_epik_Ionization_Penalty_Charging>  (8) 
0.020894

>  <r_epik_Ionization_Penalty_Neutral>  (8) 
0.0512065

>  <r_epik_State_Penalty>  (8) 
0.0923703

>  <r_epik_Charging_Adjusted_Penalty>  (8) 
0.113264

>  <i_epik_Tot_Q>  (8) 
1

>  <i_epik_Tot_abs_Q>  (8) 
5

>  <s_lp_Force_Field>  (8) 
OPLS3e

>  <r_lp_Energy>  (8) 
19.0001

>  <b_lp_Chiralities_Consistent>  (8) 
1

>  <s_lp_Variant>  (8) 
7:0-1

>  <s_i_glide_gridfile>  (8) 
pfpi4k_grid

>  <i_i_glide_lignum>  (8) 
10

>  <i_i_glide_rotatable_bonds>  (8) 
7

>  <r_i_docking_score>  (8) 
-5.10201

>  <r_i_glide_ligand_efficiency>  (8) 
-0.212584

>  <r_i_glide_ligand_efficiency_sa>  (8) 
-0.613197

>  <r_i_glide_ligand_efficiency_ln>  (8) 
-1.22114

>  <r_i_glide_gscore>  (8) 
-5.10201

>  <r_i_glide_lipo>  (8) 
-0.0537835

>  <r_i_glide_hbond>  (8) 
-0.65847

>  <r_i_glide_metal>  (8) 
-0

>  <r_i_glide_rewards>  (8) 
-0.685195

>  <r_i_glide_evdw>  (8) 
-22.7901

>  <r_i_glide_ecoul>  (8) 
-18.7363

>  <r_i_glide_erotb>  (8) 
0.491094

>  <r_i_glide_esite>  (8) 
-0.245695

>  <r_i_glide_emodel>  (8) 
-52.1903

>  <r_i_glide_energy>  (8) 
-41.5265

>  <r_i_glide_einternal>  (8) 
11.6251

>  <r_i_glide_intrahb_reward>  (8) 
-0

>  <i_i_glide_confnum>  (8) 
2

>  <i_i_glide_posenum>  (8) 
1

>  <r_i_glide_eff_state_penalty>  (8) 
0

>  <ligand_id>  (8) 
7

>  <original_smiles>  (8) 
C=C1C(N2CC(O)C2)CC(F)(CNC(=O)C2CS[S+]([O-])[S+]2[O-])C1O

>  <smiles>  (8) 
[H]OC1([H])C(=C([H])[H])C([H])([N+]2([H])C([H])([H])C([H])(O[H])C2([H])[H])C([H])([H])C1(F)C([H])([H])N([H])C(=O)C1([H])S(=O)S(=O)SC1([H])[H]

$$$$
7:0:2
     RDKit          3D

 44 46  0  0  1  0  0  0  0  0999 V2000
    2.7333    2.4716    3.9085 C   0  0  0  0  0  0  0  0  0  0  0  0
    2.4539    1.1599    3.7773 C   0  0  0  0  0  0  0  0  0  0  0  0
    1.1310    0.4840    4.1399 C   0  0  1  0  0  0  0  0  0  0  0  0
    0.0625    0.7972    3.1625 N   0  0  1  0  0  0  0  0  0  0  0  0
   -1.3330    0.6509    3.6362 C   0  0  0  0  0  0  0  0  0  0  0  0
   -1.6671    1.8392    2.7258 C   0  0  1  0  0  0  0  0  0  0  0  0
   -2.6109    2.7617    3.2190 O   0  0  0  0  0  0  0  0  0  0  0  0
   -0.2116    2.2251    2.9406 C   0  0  0  0  0  0  0  0  0  0  0  0
    1.4621   -1.0262    4.0943 C   0  0  0  0  0  0  0  0  0  0  0  0
    2.6287   -1.1782    3.1120 C   0  0  1  0  0  0  0  0  0  0  0  0
    3.3885   -2.1649    3.6099 F   0  0  0  0  0  0  0  0  0  0  0  0
    2.0828   -1.4647    1.6709 C   0  0  0  0  0  0  0  0  0  0  0  0
    3.0681   -2.0357    0.7632 N   0  0  0  0  0  0  0  0  0  0  0  0
    3.4881   -3.3028    0.8483 C   0  0  0  0  0  0  0  0  0  0  0  0
    2.9501   -4.1316    1.5777 O   0  0  0  0  0  0  0  0  0  0  0  0
    4.6973   -3.6882   -0.0086 C   0  0  2  0  0  0  0  0  0  0  0  0
    4.9926   -5.2218   -0.0126 C   0  0  0  0  0  0  0  0  0  0  0  0
    6.2007   -5.7641    1.2161 S   0  0  0  0  0  0  0  0  0  0  0  0
    7.5728   -4.2612    0.9221 S   0  0  0  0  0  0  0  0  0  0  0  0
    8.5638   -4.5651   -0.2063 O   0  0  0  0  0  0  0  0  0  0  0  0
    6.2152   -2.7175    0.4793 S   0  0  0  0  0  0  0  0  0  0  0  0
    6.5988   -1.7791   -0.6765 O   0  0  0  0  0  0  0  0  0  0  0  0
    3.4273    0.1377    3.2388 C   0  0  1  0  0  0  0  0  0  0  0  0
    3.9731    0.5466    2.0098 O   0  0  0  0  0  0  0  0  0  0  0  0
    3.6800    2.8820    3.5804 H   0  0  0  0  0  0  0  0  0  0  0  0
    2.0143    3.1619    4.3270 H   0  0  0  0  0  0  0  0  0  0  0  0
    0.8687    0.7557    5.1647 H   0  0  0  0  0  0  0  0  0  0  0  0
   -1.7988   -0.2790    3.3154 H   0  0  0  0  0  0  0  0  0  0  0  0
   -1.4651    0.8817    4.6984 H   0  0  0  0  0  0  0  0  0  0  0  0
   -1.8946    1.5603    1.6909 H   0  0  0  0  0  0  0  0  0  0  0  0
   -3.4647    2.3650    3.0675 H   0  0  0  0  0  0  0  0  0  0  0  0
   -0.1043    2.8577    3.8270 H   0  0  0  0  0  0  0  0  0  0  0  0
    0.3157    2.5490    2.0432 H   0  0  0  0  0  0  0  0  0  0  0  0
    1.8024   -1.3663    5.0749 H   0  0  0  0  0  0  0  0  0  0  0  0
    0.6095   -1.6661    3.8424 H   0  0  0  0  0  0  0  0  0  0  0  0
    1.1728   -2.0699    1.6481 H   0  0  0  0  0  0  0  0  0  0  0  0
    1.7824   -0.5343    1.1985 H   0  0  0  0  0  0  0  0  0  0  0  0
    3.4851   -1.4351    0.0593 H   0  0  0  0  0  0  0  0  0  0  0  0
    4.4755   -3.4055   -1.0348 H   0  0  0  0  0  0  0  0  0  0  0  0
    4.0891   -5.8188    0.1130 H   0  0  0  0  0  0  0  0  0  0  0  0
    5.4053   -5.4904   -0.9847 H   0  0  0  0  0  0  0  0  0  0  0  0
    4.2119    0.0122    3.9913 H   0  0  0  0  0  0  0  0  0  0  0  0
    4.2200    1.4893    2.0886 H   0  0  0  0  0  0  0  0  0  0  0  0
    0.1866    0.3640    2.2614 H   0  0  0  0  0  0  0  0  0  0  0  0
  1  2  2  0
  1 25  1  0
  1 26  1  0
  2 23  1  0
  2  3  1  0
  3  4  1  0
  3  9  1  0
  3 27  1  1
  4  8  1  0
  4  5  1  0
  4 44  1  6
  5  6  1  0
  5 28  1  0
  5 29  1  0
  6  7  1  0
  6  8  1  0
  6 30  1  6
  7 31  1  0
  8 32  1  0
  8 33  1  0
  9 10  1  0
  9 34  1  0
  9 35  1  0
 10 11  1  1
 10 12  1  0
 10 23  1  0
 12 13  1  0
 12 36  1  0
 12 37  1  0
 13 14  1  0
 13 38  1  0
 14 15  2  0
 14 16  1  0
 16 21  1  0
 16 17  1  0
 16 39  1  6
 17 18  1  0
 17 40  1  0
 17 41  1  0
 19 18  1  6
 19 20  2  0
 21 19  1  6
 21 22  2  0
 23 24  1  0
 23 42  1  1
 24 43  1  0
M  CHG  1   4   1
M  END
>  <i_m_ct_stereo_status>  (9) 
1

>  <s_m_source_file>  (9) 
/var/tmp/pbs.5075288.sched01/tmpdioscf2v/0xa7vsnym.sdf

>  <i_m_source_file_index>  (9) 
10

>  <i_lp_mmshare_version>  (9) 
48012

>  <i_f3d_flags>  (9) 
0

>  <s_epik_input>  (9) 
W09IXVtDSF0oW0NIMl0xKVtDSDJdTjFbQ0BIXShDKD1bQ0gyXSlbQ0BASF0yW09IXSlbQ0gyXVtDQEBdMihGKVtDSDJdW05IXUMoPU8pW0NAQEhdM1tDSDJdU1tTK10oW08tXSlbUytdM1tPLV0=

>  <s_epik_cmdline>  (9) 
J2VwaWtfcHl0aG9uJywgJy1waHQnLCAnMi4wJywgJy1waCcsICc3LjAnLCAnLXRuJywgJzgnLCAnLW1hJywgJzIwMCcsICctaW1hZScsICc8aW5maWxlLm1hZT4nLCAnLW9tYWUnLCAnPG91dGZpbGUubWFlPic=

>  <r_epik_Ionization_Penalty>  (9) 
0.0721005

>  <r_epik_Ionization_Penalty_Charging>  (9) 
0.020894

>  <r_epik_Ionization_Penalty_Neutral>  (9) 
0.0512065

>  <r_epik_State_Penalty>  (9) 
0.0923703

>  <r_epik_Charging_Adjusted_Penalty>  (9) 
0.113264

>  <i_epik_Tot_Q>  (9) 
1

>  <i_epik_Tot_abs_Q>  (9) 
5

>  <s_lp_Force_Field>  (9) 
OPLS3e

>  <r_lp_Energy>  (9) 
19.0001

>  <b_lp_Chiralities_Consistent>  (9) 
1

>  <s_lp_Variant>  (9) 
7:0-1

>  <s_i_glide_gridfile>  (9) 
pfpi4k_grid

>  <i_i_glide_lignum>  (9) 
10

>  <i_i_glide_rotatable_bonds>  (9) 
7

>  <r_i_docking_score>  (9) 
-4.46236

>  <r_i_glide_ligand_efficiency>  (9) 
-0.185932

>  <r_i_glide_ligand_efficiency_sa>  (9) 
-0.536319

>  <r_i_glide_ligand_efficiency_ln>  (9) 
-1.06805

>  <r_i_glide_gscore>  (9) 
-4.46236

>  <r_i_glide_lipo>  (9) 
-0.138207

>  <r_i_glide_hbond>  (9) 
-0.565443

>  <r_i_glide_metal>  (9) 
-0

>  <r_i_glide_rewards>  (9) 
-0.973769

>  <r_i_glide_evdw>  (9) 
-21.6738

>  <r_i_glide_ecoul>  (9) 
-14.0503

>  <r_i_glide_erotb>  (9) 
0.491094

>  <r_i_glide_esite>  (9) 
-0.0847901

>  <r_i_glide_emodel>  (9) 
-46.044

>  <r_i_glide_energy>  (9) 
-35.7241

>  <r_i_glide_einternal>  (9) 
7.35355

>  <r_i_glide_intrahb_reward>  (9) 
-0

>  <i_i_glide_confnum>  (9) 
2

>  <i_i_glide_posenum>  (9) 
3

>  <r_i_glide_eff_state_penalty>  (9) 
0

>  <ligand_id>  (9) 
7

>  <original_smiles>  (9) 
C=C1C(N2CC(O)C2)CC(F)(CNC(=O)C2CS[S+]([O-])[S+]2[O-])C1O

>  <smiles>  (9) 
[H]OC1([H])C(=C([H])[H])C([H])([N+]2([H])C([H])([H])C([H])(O[H])C2([H])[H])C([H])([H])C1(F)C([H])([H])N([H])C(=O)C1([H])S(=O)S(=O)SC1([H])[H]

$$$$
7:1:0
     RDKit          3D

 43 45  0  0  1  0  0  0  0  0999 V2000
    6.2420   -1.9574   -0.2130 C   0  0  0  0  0  0  0  0  0  0  0  0
    5.4760   -2.8631    0.4229 C   0  0  0  0  0  0  0  0  0  0  0  0
    4.8465   -2.7522    1.8071 C   0  0  1  0  0  0  0  0  0  0  0  0
    4.0637   -1.5368    2.0680 N   0  0  0  0  0  0  0  0  0  0  0  0
    3.2039   -1.0022    1.0176 C   0  0  0  0  0  0  0  0  0  0  0  0
    3.4155    0.3527    1.7087 C   0  0  0  0  0  0  0  0  0  0  0  0
    2.4656    0.7969    2.6459 O   0  0  0  0  0  0  0  0  0  0  0  0
    4.7279   -0.2410    2.2346 C   0  0  0  0  0  0  0  0  0  0  0  0
    3.9561   -4.0098    1.9404 C   0  0  0  0  0  0  0  0  0  0  0  0
    4.4605   -5.0266    0.9006 C   0  0  1  0  0  0  0  0  0  0  0  0
    5.4263   -5.7519    1.4756 F   0  0  0  0  0  0  0  0  0  0  0  0
    3.3799   -6.0034    0.3789 C   0  0  0  0  0  0  0  0  0  0  0  0
    2.7845   -6.8138    1.4300 N   0  0  0  0  0  0  0  0  0  0  0  0
    1.4850   -6.8313    1.7546 C   0  0  0  0  0  0  0  0  0  0  0  0
    0.6124   -6.2523    1.1110 O   0  0  0  0  0  0  0  0  0  0  0  0
    1.0875   -7.5999    3.0198 C   0  0  2  0  0  0  0  0  0  0  0  0
    2.2830   -8.1200    3.8759 C   0  0  0  0  0  0  0  0  0  0  0  0
    2.9164   -9.7117    3.2968 S   0  0  0  0  0  0  0  0  0  0  0  0
    1.0974  -10.6622    3.1571 S   0  0  0  0  0  0  0  0  0  0  0  0
    0.6545  -11.2773    4.4856 O   0  0  0  0  0  0  0  0  0  0  0  0
   -0.0501   -9.0106    2.5964 S   0  0  0  0  0  0  0  0  0  0  0  0
   -1.3803   -8.7820    3.3081 O   0  0  0  0  0  0  0  0  0  0  0  0
    5.1080   -4.1742   -0.2118 C   0  0  1  0  0  0  0  0  0  0  0  0
    4.2385   -3.9276   -1.2982 O   0  0  0  0  0  0  0  0  0  0  0  0
    6.5694   -2.1591   -1.2281 H   0  0  0  0  0  0  0  0  0  0  0  0
    6.5469   -1.0218    0.2163 H   0  0  0  0  0  0  0  0  0  0  0  0
    5.6311   -2.8325    2.5564 H   0  0  0  0  0  0  0  0  0  0  0  0
    3.6483   -1.0562    0.0250 H   0  0  0  0  0  0  0  0  0  0  0  0
    2.1894   -1.3971    1.0113 H   0  0  0  0  0  0  0  0  0  0  0  0
    3.5911    1.1273    0.9749 H   0  0  0  0  0  0  0  0  0  0  0  0
    1.6621    0.9483    2.1703 H   0  0  0  0  0  0  0  0  0  0  0  0
    4.9832    0.0020    3.2681 H   0  0  0  0  0  0  0  0  0  0  0  0
    5.5329   -0.0083    1.5449 H   0  0  0  0  0  0  0  0  0  0  0  0
    3.9409   -4.4210    2.9609 H   0  0  0  0  0  0  0  0  0  0  0  0
    2.9141   -3.7726    1.7012 H   0  0  0  0  0  0  0  0  0  0  0  0
    2.5992   -5.4414   -0.1278 H   0  0  0  0  0  0  0  0  0  0  0  0
    3.8234   -6.6721   -0.3519 H   0  0  0  0  0  0  0  0  0  0  0  0
    3.4278   -7.3748    1.9784 H   0  0  0  0  0  0  0  0  0  0  0  0
    0.5215   -6.9042    3.6369 H   0  0  0  0  0  0  0  0  0  0  0  0
    3.0993   -7.3955    3.9339 H   0  0  0  0  0  0  0  0  0  0  0  0
    1.9542   -8.2728    4.9062 H   0  0  0  0  0  0  0  0  0  0  0  0
    6.0039   -4.6694   -0.5901 H   0  0  0  0  0  0  0  0  0  0  0  0
    3.9092   -4.7585   -1.6259 H   0  0  0  0  0  0  0  0  0  0  0  0
  1  2  2  0
  1 25  1  0
  1 26  1  0
  2 23  1  0
  2  3  1  0
  3  4  1  0
  3  9  1  0
  3 27  1  1
  4  8  1  0
  4  5  1  0
  5  6  1  0
  5 28  1  0
  5 29  1  0
  6  7  1  0
  6  8  1  0
  6 30  1  0
  7 31  1  0
  8 32  1  0
  8 33  1  0
  9 10  1  0
  9 34  1  0
  9 35  1  0
 10 11  1  1
 10 12  1  0
 10 23  1  0
 12 13  1  0
 12 36  1  0
 12 37  1  0
 13 14  1  0
 13 38  1  0
 14 15  2  0
 14 16  1  0
 16 21  1  0
 16 17  1  0
 16 39  1  1
 17 18  1  0
 17 40  1  0
 17 41  1  0
 19 18  1  1
 19 20  2  0
 21 19  1  1
 21 22  2  0
 23 24  1  0
 23 42  1  6
 24 43  1  0
M  END
>  <i_m_ct_stereo_status>  (10) 
1

>  <s_m_source_file>  (10) 
/var/tmp/pbs.5075288.sched01/tmpdioscf2v/0xa7vsnym.sdf

>  <i_m_source_file_index>  (10) 
11

>  <i_lp_mmshare_version>  (10) 
48012

>  <i_f3d_flags>  (10) 
0

>  <s_epik_input>  (10) 
W09IXVtDSF0oW0NIMl0xKVtDSDJdTjFbQ0BIXShDKD1bQ0gyXSlbQ0BASF0yW09IXSlbQ0gyXVtDQEBdMihGKVtDSDJdW05IXUMoPU8pW0NAQEhdM1tDSDJdU1tTK10oW08tXSlbUytdM1tPLV0=

>  <s_epik_cmdline>  (10) 
J2VwaWtfcHl0aG9uJywgJy1waHQnLCAnMi4wJywgJy1waCcsICc3LjAnLCAnLXRuJywgJzgnLCAnLW1hJywgJzIwMCcsICctaW1hZScsICc8aW5maWxlLm1hZT4nLCAnLW9tYWUnLCAnPG91dGZpbGUubWFlPic=

>  <r_epik_Ionization_Penalty>  (10) 
1.99223

>  <r_epik_Ionization_Penalty_Charging>  (10) 
0

>  <r_epik_Ionization_Penalty_Neutral>  (10) 
1.99223

>  <r_epik_State_Penalty>  (10) 
1.19922

>  <r_epik_Charging_Adjusted_Penalty>  (10) 
1.19922

>  <i_epik_Tot_Q>  (10) 
0

>  <i_epik_Tot_abs_Q>  (10) 
4

>  <s_lp_Force_Field>  (10) 
OPLS3e

>  <r_lp_Energy>  (10) 
7.99449

>  <b_lp_Chiralities_Consistent>  (10) 
1

>  <s_lp_Variant>  (10) 
7:0-2

>  <s_i_glide_gridfile>  (10) 
pfpi4k_grid

>  <i_i_glide_lignum>  (10) 
11

>  <i_i_glide_rotatable_bonds>  (10) 
7

>  <r_i_docking_score>  (10) 
-3.97049

>  <r_i_glide_ligand_efficiency>  (10) 
-0.165437

>  <r_i_glide_ligand_efficiency_sa>  (10) 
-0.477204

>  <r_i_glide_ligand_efficiency_ln>  (10) 
-0.950322

>  <r_i_glide_gscore>  (10) 
-3.97049

>  <r_i_glide_lipo>  (10) 
-0.355632

>  <r_i_glide_hbond>  (10) 
-0.48

>  <r_i_glide_metal>  (10) 
-0

>  <r_i_glide_rewards>  (10) 
-1.01153

>  <r_i_glide_evdw>  (10) 
-29.96

>  <r_i_glide_ecoul>  (10) 
-6.97789

>  <r_i_glide_erotb>  (10) 
0.493332

>  <r_i_glide_esite>  (10) 
-0.0719761

>  <r_i_glide_emodel>  (10) 
-43.0102

>  <r_i_glide_energy>  (10) 
-36.9379

>  <r_i_glide_einternal>  (10) 
8.67408

>  <r_i_glide_intrahb_reward>  (10) 
-0

>  <i_i_glide_confnum>  (10) 
2

>  <i_i_glide_posenum>  (10) 
5

>  <r_i_glide_eff_state_penalty>  (10) 
0

>  <ligand_id>  (10) 
7

>  <original_smiles>  (10) 
C=C1C(N2CC(O)C2)CC(F)(CNC(=O)C2CS[S+]([O-])[S+]2[O-])C1O

>  <smiles>  (10) 
[H]OC1([H])C(=C([H])[H])C([H])(N2C([H])([H])C([H])(O[H])C2([H])[H])C([H])([H])C1(F)C([H])([H])N([H])C(=O)C1([H])S(=O)S(=O)SC1([H])[H]

$$$$
7:1:1
     RDKit          3D

 43 45  0  0  1  0  0  0  0  0999 V2000
    2.6833  -10.1352    2.8753 C   0  0  0  0  0  0  0  0  0  0  0  0
    2.7975   -8.8910    2.3453 C   0  0  0  0  0  0  0  0  0  0  0  0
    1.7351   -8.0430    1.6398 C   0  0  1  0  0  0  0  0  0  0  0  0
    0.4542   -7.8818    2.3503 N   0  0  0  0  0  0  0  0  0  0  0  0
    0.4790   -7.6689    3.8008 C   0  0  0  0  0  0  0  0  0  0  0  0
   -0.9115   -8.3001    3.7796 C   0  0  0  0  0  0  0  0  0  0  0  0
   -2.0456   -7.4573    3.7338 O   0  0  0  0  0  0  0  0  0  0  0  0
   -0.4777   -9.0054    2.4797 C   0  0  0  0  0  0  0  0  0  0  0  0
    2.4013   -6.6737    1.3698 C   0  0  0  0  0  0  0  0  0  0  0  0
    3.9190   -6.8930    1.4760 C   0  0  1  0  0  0  0  0  0  0  0  0
    4.3754   -7.2351    0.2647 F   0  0  0  0  0  0  0  0  0  0  0  0
    4.7128   -5.6507    1.9359 C   0  0  0  0  0  0  0  0  0  0  0  0
    4.6257   -4.5685    0.9744 N   0  0  0  0  0  0  0  0  0  0  0  0
    4.7562   -3.2638    1.2814 C   0  0  0  0  0  0  0  0  0  0  0  0
    4.8300   -2.8393    2.4305 O   0  0  0  0  0  0  0  0  0  0  0  0
    4.8291   -2.2944    0.1143 C   0  0  2  0  0  0  0  0  0  0  0  0
    3.4305   -1.9031   -0.4266 C   0  0  0  0  0  0  0  0  0  0  0  0
    2.7758   -3.0611   -1.6537 S   0  0  0  0  0  0  0  0  0  0  0  0
    4.5214   -3.2304   -2.7844 S   0  0  0  0  0  0  0  0  0  0  0  0
    4.5836   -2.1350   -3.8771 O   0  0  0  0  0  0  0  0  0  0  0  0
    5.9102   -2.9587   -1.2536 S   0  0  0  0  0  0  0  0  0  0  0  0
    6.9969   -1.9455   -1.5168 O   0  0  0  0  0  0  0  0  0  0  0  0
    4.0916   -8.1122    2.4052 C   0  0  1  0  0  0  0  0  0  0  0  0
    4.3307   -7.7294    3.7368 O   0  0  0  0  0  0  0  0  0  0  0  0
    3.5513  -10.5530    3.3969 H   0  0  0  0  0  0  0  0  0  0  0  0
    1.7849  -10.7107    2.8186 H   0  0  0  0  0  0  0  0  0  0  0  0
    1.5191   -8.5029    0.6787 H   0  0  0  0  0  0  0  0  0  0  0  0
    1.2180   -8.2902    4.3062 H   0  0  0  0  0  0  0  0  0  0  0  0
    0.5532   -6.6287    4.1172 H   0  0  0  0  0  0  0  0  0  0  0  0
   -1.0400   -9.0063    4.5792 H   0  0  0  0  0  0  0  0  0  0  0  0
   -2.7450   -8.0049    3.4088 H   0  0  0  0  0  0  0  0  0  0  0  0
   -1.2325   -9.0483    1.6761 H   0  0  0  0  0  0  0  0  0  0  0  0
   -0.0535   -9.9702    2.7186 H   0  0  0  0  0  0  0  0  0  0  0  0
    2.0984   -6.2246    0.4142 H   0  0  0  0  0  0  0  0  0  0  0  0
    2.1164   -5.9549    2.1400 H   0  0  0  0  0  0  0  0  0  0  0  0
    4.3206   -5.3006    2.8898 H   0  0  0  0  0  0  0  0  0  0  0  0
    5.7681   -5.9045    2.0860 H   0  0  0  0  0  0  0  0  0  0  0  0
    4.5576   -4.8300    0.0003 H   0  0  0  0  0  0  0  0  0  0  0  0
    5.3026   -1.3866    0.4757 H   0  0  0  0  0  0  0  0  0  0  0  0
    2.6996   -1.7840    0.3710 H   0  0  0  0  0  0  0  0  0  0  0  0
    3.4932   -0.9472   -0.9413 H   0  0  0  0  0  0  0  0  0  0  0  0
    4.9116   -8.7344    2.0590 H   0  0  0  0  0  0  0  0  0  0  0  0
    3.6293   -7.1579    4.0078 H   0  0  0  0  0  0  0  0  0  0  0  0
  1  2  2  0
  1 25  1  0
  1 26  1  0
  2 23  1  0
  2  3  1  0
  3  4  1  0
  3  9  1  0
  3 27  1  6
  4  8  1  0
  4  5  1  0
  5  6  1  0
  5 28  1  0
  5 29  1  0
  6  7  1  0
  6  8  1  0
  6 30  1  0
  7 31  1  0
  8 32  1  0
  8 33  1  0
  9 10  1  0
  9 34  1  0
  9 35  1  0
 10 11  1  6
 10 12  1  0
 10 23  1  0
 12 13  1  0
 12 36  1  0
 12 37  1  0
 13 14  1  0
 13 38  1  0
 14 15  2  0
 14 16  1  0
 16 21  1  0
 16 17  1  0
 16 39  1  1
 17 18  1  0
 17 40  1  0
 17 41  1  0
 19 18  1  1
 19 20  2  0
 21 19  1  6
 21 22  2  0
 23 24  1  0
 23 42  1  6
 24 43  1  0
M  END
>  <i_m_ct_stereo_status>  (11) 
1

>  <s_m_source_file>  (11) 
/var/tmp/pbs.5075288.sched01/tmpdioscf2v/0xa7vsnym.sdf

>  <i_m_source_file_index>  (11) 
11

>  <i_lp_mmshare_version>  (11) 
48012

>  <i_f3d_flags>  (11) 
0

>  <s_epik_input>  (11) 
W09IXVtDSF0oW0NIMl0xKVtDSDJdTjFbQ0BIXShDKD1bQ0gyXSlbQ0BASF0yW09IXSlbQ0gyXVtDQEBdMihGKVtDSDJdW05IXUMoPU8pW0NAQEhdM1tDSDJdU1tTK10oW08tXSlbUytdM1tPLV0=

>  <s_epik_cmdline>  (11) 
J2VwaWtfcHl0aG9uJywgJy1waHQnLCAnMi4wJywgJy1waCcsICc3LjAnLCAnLXRuJywgJzgnLCAnLW1hJywgJzIwMCcsICctaW1hZScsICc8aW5maWxlLm1hZT4nLCAnLW9tYWUnLCAnPG91dGZpbGUubWFlPic=

>  <r_epik_Ionization_Penalty>  (11) 
1.99223

>  <r_epik_Ionization_Penalty_Charging>  (11) 
0

>  <r_epik_Ionization_Penalty_Neutral>  (11) 
1.99223

>  <r_epik_State_Penalty>  (11) 
1.19922

>  <r_epik_Charging_Adjusted_Penalty>  (11) 
1.19922

>  <i_epik_Tot_Q>  (11) 
0

>  <i_epik_Tot_abs_Q>  (11) 
4

>  <s_lp_Force_Field>  (11) 
OPLS3e

>  <r_lp_Energy>  (11) 
7.99449

>  <b_lp_Chiralities_Consistent>  (11) 
1

>  <s_lp_Variant>  (11) 
7:0-2

>  <s_i_glide_gridfile>  (11) 
pfpi4k_grid

>  <i_i_glide_lignum>  (11) 
11

>  <i_i_glide_rotatable_bonds>  (11) 
7

>  <r_i_docking_score>  (11) 
-3.88356

>  <r_i_glide_ligand_efficiency>  (11) 
-0.161815

>  <r_i_glide_ligand_efficiency_sa>  (11) 
-0.466756

>  <r_i_glide_ligand_efficiency_ln>  (11) 
-0.929515

>  <r_i_glide_gscore>  (11) 
-3.88356

>  <r_i_glide_lipo>  (11) 
-0.109778

>  <r_i_glide_hbond>  (11) 
-0.259356

>  <r_i_glide_metal>  (11) 
-0

>  <r_i_glide_rewards>  (11) 
-1.03296

>  <r_i_glide_evdw>  (11) 
-29.1983

>  <r_i_glide_ecoul>  (11) 
-10.0993

>  <r_i_glide_erotb>  (11) 
0.493332

>  <r_i_glide_esite>  (11) 
0

>  <r_i_glide_emodel>  (11) 
-46.0328

>  <r_i_glide_energy>  (11) 
-39.2975

>  <r_i_glide_einternal>  (11) 
6.84733

>  <r_i_glide_intrahb_reward>  (11) 
-0

>  <i_i_glide_confnum>  (11) 
2

>  <i_i_glide_posenum>  (11) 
1

>  <r_i_glide_eff_state_penalty>  (11) 
0

>  <ligand_id>  (11) 
7

>  <original_smiles>  (11) 
C=C1C(N2CC(O)C2)CC(F)(CNC(=O)C2CS[S+]([O-])[S+]2[O-])C1O

>  <smiles>  (11) 
[H]OC1([H])C(=C([H])[H])C([H])(N2C([H])([H])C([H])(O[H])C2([H])[H])C([H])([H])C1(F)C([H])([H])N([H])C(=O)C1([H])S(=O)S(=O)SC1([H])[H]

$$$$
7:1:2
     RDKit          3D

 43 45  0  0  1  0  0  0  0  0999 V2000
    2.5940   -9.9970    2.8351 C   0  0  0  0  0  0  0  0  0  0  0  0
    2.6923   -8.7531    2.3176 C   0  0  0  0  0  0  0  0  0  0  0  0
    1.6108   -7.9337    1.6199 C   0  0  1  0  0  0  0  0  0  0  0  0
    0.3311   -7.8143    2.3304 N   0  0  0  0  0  0  0  0  0  0  0  0
    0.3635   -7.6174    3.7701 C   0  0  0  0  0  0  0  0  0  0  0  0
   -1.0201   -8.2897    3.7449 C   0  0  0  0  0  0  0  0  0  0  0  0
   -2.1576   -7.4613    3.6839 O   0  0  0  0  0  0  0  0  0  0  0  0
   -0.5561   -8.9641    2.4600 C   0  0  0  0  0  0  0  0  0  0  0  0
    2.2656   -6.5428    1.3711 C   0  0  0  0  0  0  0  0  0  0  0  0
    3.7877   -6.7362    1.4745 C   0  0  1  0  0  0  0  0  0  0  0  0
    4.2523   -7.0562    0.2664 F   0  0  0  0  0  0  0  0  0  0  0  0
    4.5454   -5.4869    1.9675 C   0  0  0  0  0  0  0  0  0  0  0  0
    4.4766   -4.3895    1.0198 N   0  0  0  0  0  0  0  0  0  0  0  0
    4.7931   -3.1218    1.3143 C   0  0  0  0  0  0  0  0  0  0  0  0
    5.0670   -2.7345    2.4493 O   0  0  0  0  0  0  0  0  0  0  0  0
    4.8262   -2.1415    0.1451 C   0  0  2  0  0  0  0  0  0  0  0  0
    3.4156   -1.8134   -0.4095 C   0  0  0  0  0  0  0  0  0  0  0  0
    2.8269   -3.0520   -1.6224 S   0  0  0  0  0  0  0  0  0  0  0  0
    4.5319   -3.0915   -2.7708 S   0  0  0  0  0  0  0  0  0  0  0  0
    4.5879   -1.9883   -3.8346 O   0  0  0  0  0  0  0  0  0  0  0  0
    5.8775   -2.8462   -1.2255 S   0  0  0  0  0  0  0  0  0  0  0  0
    7.0202   -1.8643   -1.5092 O   0  0  0  0  0  0  0  0  0  0  0  0
    3.9711   -7.9641    2.3941 C   0  0  1  0  0  0  0  0  0  0  0  0
    4.2059   -7.5697    3.7361 O   0  0  0  0  0  0  0  0  0  0  0  0
    3.4173  -10.4406    3.3527 H   0  0  0  0  0  0  0  0  0  0  0  0
    1.7072  -10.5864    2.7667 H   0  0  0  0  0  0  0  0  0  0  0  0
    1.4146   -8.3708    0.6413 H   0  0  0  0  0  0  0  0  0  0  0  0
    1.1171   -8.2135    4.2823 H   0  0  0  0  0  0  0  0  0  0  0  0
    0.3753   -6.5751    4.0966 H   0  0  0  0  0  0  0  0  0  0  0  0
   -1.1422   -8.9963    4.5647 H   0  0  0  0  0  0  0  0  0  0  0  0
   -2.8476   -8.0156    3.3604 H   0  0  0  0  0  0  0  0  0  0  0  0
   -1.2802   -9.0638    1.6628 H   0  0  0  0  0  0  0  0  0  0  0  0
   -0.1014   -9.9122    2.6894 H   0  0  0  0  0  0  0  0  0  0  0  0
    1.9570   -6.0820    0.4250 H   0  0  0  0  0  0  0  0  0  0  0  0
    1.9556   -5.8551    2.1626 H   0  0  0  0  0  0  0  0  0  0  0  0
    4.1137   -5.1543    2.9133 H   0  0  0  0  0  0  0  0  0  0  0  0
    5.5898   -5.7378    2.1569 H   0  0  0  0  0  0  0  0  0  0  0  0
    4.2470   -4.6224    0.0638 H   0  0  0  0  0  0  0  0  0  0  0  0
    5.2853   -1.2187    0.5036 H   0  0  0  0  0  0  0  0  0  0  0  0
    2.6862   -1.6881    0.3938 H   0  0  0  0  0  0  0  0  0  0  0  0
    3.4539   -0.8512   -0.9272 H   0  0  0  0  0  0  0  0  0  0  0  0
    4.8130   -8.5718    2.0544 H   0  0  0  0  0  0  0  0  0  0  0  0
    4.2782   -8.3528    4.2584 H   0  0  0  0  0  0  0  0  0  0  0  0
  1  2  2  0
  1 25  1  0
  1 26  1  0
  2 23  1  0
  2  3  1  0
  3  4  1  0
  3  9  1  0
  3 27  1  6
  4  8  1  0
  4  5  1  0
  5  6  1  0
  5 28  1  0
  5 29  1  0
  6  7  1  0
  6  8  1  0
  6 30  1  0
  7 31  1  0
  8 32  1  0
  8 33  1  0
  9 10  1  0
  9 34  1  0
  9 35  1  0
 10 11  1  6
 10 12  1  0
 10 23  1  0
 12 13  1  0
 12 36  1  0
 12 37  1  0
 13 14  1  0
 13 38  1  0
 14 15  2  0
 14 16  1  0
 16 21  1  0
 16 17  1  0
 16 39  1  1
 17 18  1  0
 17 40  1  0
 17 41  1  0
 19 18  1  1
 19 20  2  0
 21 19  1  6
 21 22  2  0
 23 24  1  0
 23 42  1  6
 24 43  1  0
M  END
>  <i_m_ct_stereo_status>  (12) 
1

>  <s_m_source_file>  (12) 
/var/tmp/pbs.5075288.sched01/tmpdioscf2v/0xa7vsnym.sdf

>  <i_m_source_file_index>  (12) 
11

>  <i_lp_mmshare_version>  (12) 
48012

>  <i_f3d_flags>  (12) 
0

>  <s_epik_input>  (12) 
W09IXVtDSF0oW0NIMl0xKVtDSDJdTjFbQ0BIXShDKD1bQ0gyXSlbQ0BASF0yW09IXSlbQ0gyXVtDQEBdMihGKVtDSDJdW05IXUMoPU8pW0NAQEhdM1tDSDJdU1tTK10oW08tXSlbUytdM1tPLV0=

>  <s_epik_cmdline>  (12) 
J2VwaWtfcHl0aG9uJywgJy1waHQnLCAnMi4wJywgJy1waCcsICc3LjAnLCAnLXRuJywgJzgnLCAnLW1hJywgJzIwMCcsICctaW1hZScsICc8aW5maWxlLm1hZT4nLCAnLW9tYWUnLCAnPG91dGZpbGUubWFlPic=

>  <r_epik_Ionization_Penalty>  (12) 
1.99223

>  <r_epik_Ionization_Penalty_Charging>  (12) 
0

>  <r_epik_Ionization_Penalty_Neutral>  (12) 
1.99223

>  <r_epik_State_Penalty>  (12) 
1.19922

>  <r_epik_Charging_Adjusted_Penalty>  (12) 
1.19922

>  <i_epik_Tot_Q>  (12) 
0

>  <i_epik_Tot_abs_Q>  (12) 
4

>  <s_lp_Force_Field>  (12) 
OPLS3e

>  <r_lp_Energy>  (12) 
7.99449

>  <b_lp_Chiralities_Consistent>  (12) 
1

>  <s_lp_Variant>  (12) 
7:0-2

>  <s_i_glide_gridfile>  (12) 
pfpi4k_grid

>  <i_i_glide_lignum>  (12) 
11

>  <i_i_glide_rotatable_bonds>  (12) 
7

>  <r_i_docking_score>  (12) 
-3.87054

>  <r_i_glide_ligand_efficiency>  (12) 
-0.161273

>  <r_i_glide_ligand_efficiency_sa>  (12) 
-0.465191

>  <r_i_glide_ligand_efficiency_ln>  (12) 
-0.926398

>  <r_i_glide_gscore>  (12) 
-3.87054

>  <r_i_glide_lipo>  (12) 
-0.104106

>  <r_i_glide_hbond>  (12) 
-0.179694

>  <r_i_glide_metal>  (12) 
-0

>  <r_i_glide_rewards>  (12) 
-1.03053

>  <r_i_glide_evdw>  (12) 
-29.2317

>  <r_i_glide_ecoul>  (12) 
-10.5864

>  <r_i_glide_erotb>  (12) 
0.493332

>  <r_i_glide_esite>  (12) 
0

>  <r_i_glide_emodel>  (12) 
-46.3051

>  <r_i_glide_energy>  (12) 
-39.8181

>  <r_i_glide_einternal>  (12) 
7.15025

>  <r_i_glide_intrahb_reward>  (12) 
-0

>  <i_i_glide_confnum>  (12) 
2

>  <i_i_glide_posenum>  (12) 
29

>  <r_i_glide_eff_state_penalty>  (12) 
0

>  <ligand_id>  (12) 
7

>  <original_smiles>  (12) 
C=C1C(N2CC(O)C2)CC(F)(CNC(=O)C2CS[S+]([O-])[S+]2[O-])C1O

>  <smiles>  (12) 
[H]OC1([H])C(=C([H])[H])C([H])(N2C([H])([H])C([H])(O[H])C2([H])[H])C([H])([H])C1(F)C([H])([H])N([H])C(=O)C1([H])S(=O)S(=O)SC1([H])[H]

$$$$
7:2:0
     RDKit          3D

 43 45  0  0  1  0  0  0  0  0999 V2000
    4.3608    1.7931    6.8733 C   0  0  0  0  0  0  0  0  0  0  0  0
    4.1388    0.9021    5.8867 C   0  0  0  0  0  0  0  0  0  0  0  0
    2.9459    0.8769    4.9714 C   0  0  1  0  0  0  0  0  0  0  0  0
    2.9887    2.0164    4.0055 N   0  0  1  0  0  0  0  0  0  0  0  0
    1.7992    2.2324    3.1546 C   0  0  0  0  0  0  0  0  0  0  0  0
    2.1164    3.7205    3.2322 C   0  0  1  0  0  0  0  0  0  0  0  0
    1.0096    4.5973    3.2576 O   0  0  0  0  0  0  0  0  0  0  0  0
    2.7928    3.3674    4.5530 C   0  0  0  0  0  0  0  0  0  0  0  0
    3.0585   -0.4660    4.2303 C   0  0  0  0  0  0  0  0  0  0  0  0
    4.5601   -0.8155    4.2219 C   0  0  1  0  0  0  0  0  0  0  0  0
    4.6975   -2.1438    4.3303 F   0  0  0  0  0  0  0  0  0  0  0  0
    5.2628   -0.2876    2.9269 C   0  0  0  0  0  0  0  0  0  0  0  0
    4.6382   -0.6498    1.6509 N   0  0  0  0  0  0  0  0  0  0  0  0
    4.4831   -1.8918    1.1708 C   0  0  0  0  0  0  0  0  0  0  0  0
    4.8489   -2.9044    1.7623 O   0  0  0  0  0  0  0  0  0  0  0  0
    3.8564   -2.0082   -0.2107 C   0  0  2  0  0  0  0  0  0  0  0  0
    2.8292   -3.1563   -0.2729 C   0  0  0  0  0  0  0  0  0  0  0  0
    2.2751   -3.4589   -1.9685 S   0  0  0  0  0  0  0  0  0  0  0  0
    4.1210   -3.3684   -2.9067 S   0  0  0  0  0  0  0  0  0  0  0  0
    4.1254   -2.6698   -4.2692 O   0  0  0  0  0  0  0  0  0  0  0  0
    5.1986   -2.3886   -1.4286 S   0  0  0  0  0  0  0  0  0  0  0  0
    5.7909   -1.0566   -1.8491 O   0  0  0  0  0  0  0  0  0  0  0  0
    5.1090   -0.2139    5.5505 C   0  0  1  0  0  0  0  0  0  0  0  0
    6.2963    0.2861    5.4053 O   0  0  0  0  0  0  0  0  0  0  0  0
    5.2680    1.7826    7.4663 H   0  0  0  0  0  0  0  0  0  0  0  0
    3.6480    2.5843    7.0622 H   0  0  0  0  0  0  0  0  0  0  0  0
    2.0307    0.9000    5.5618 H   0  0  0  0  0  0  0  0  0  0  0  0
    1.8926    1.8046    2.1587 H   0  0  0  0  0  0  0  0  0  0  0  0
    0.8588    1.9738    3.6439 H   0  0  0  0  0  0  0  0  0  0  0  0
    2.8348    4.0469    2.4707 H   0  0  0  0  0  0  0  0  0  0  0  0
    0.6429    4.5940    2.3899 H   0  0  0  0  0  0  0  0  0  0  0  0
    2.1082    3.3977    5.4018 H   0  0  0  0  0  0  0  0  0  0  0  0
    3.7358    3.8780    4.7333 H   0  0  0  0  0  0  0  0  0  0  0  0
    2.4930   -1.2373    4.7663 H   0  0  0  0  0  0  0  0  0  0  0  0
    2.6058   -0.4455    3.2371 H   0  0  0  0  0  0  0  0  0  0  0  0
    5.1915    0.7890    2.9593 H   0  0  0  0  0  0  0  0  0  0  0  0
    6.3266   -0.5130    2.8560 H   0  0  0  0  0  0  0  0  0  0  0  0
    4.3857    0.1116    1.0350 H   0  0  0  0  0  0  0  0  0  0  0  0
    3.3676   -1.0726   -0.4939 H   0  0  0  0  0  0  0  0  0  0  0  0
    3.2590   -4.0907    0.0913 H   0  0  0  0  0  0  0  0  0  0  0  0
    1.9638   -2.9388    0.3580 H   0  0  0  0  0  0  0  0  0  0  0  0
    4.8994   -0.9824    6.3230 H   0  0  0  0  0  0  0  0  0  0  0  0
    3.8297    2.0146    3.4313 H   0  0  0  0  0  0  0  0  0  0  0  0
  1  2  2  0
  1 25  1  0
  1 26  1  0
  2 23  1  0
  2  3  1  0
  3  4  1  0
  3  9  1  0
  3 27  1  1
  4  8  1  0
  4  5  1  0
  4 43  1  6
  5  6  1  0
  5 28  1  0
  5 29  1  0
  6  7  1  0
  6  8  1  0
  6 30  1  6
  7 31  1  0
  8 32  1  0
  8 33  1  0
  9 10  1  0
  9 34  1  0
  9 35  1  0
 10 11  1  1
 10 12  1  0
 10 23  1  0
 12 13  1  0
 12 36  1  0
 12 37  1  0
 13 14  1  0
 13 38  1  0
 14 15  2  0
 14 16  1  0
 16 21  1  0
 16 17  1  0
 16 39  1  6
 17 18  1  0
 17 40  1  0
 17 41  1  0
 19 18  1  1
 19 20  2  0
 21 19  1  6
 21 22  2  0
 23 24  1  0
 23 42  1  1
M  CHG  2   4   1  24  -1
M  END
>  <i_m_ct_stereo_status>  (13) 
1

>  <s_m_source_file>  (13) 
/var/tmp/pbs.5075288.sched01/tmpdioscf2v/0xa7vsnym.sdf

>  <i_m_source_file_index>  (13) 
12

>  <i_lp_mmshare_version>  (13) 
48012

>  <i_f3d_flags>  (13) 
0

>  <s_epik_input>  (13) 
W09IXVtDSF0oW0NIMl0xKVtDSDJdTjFbQ0BIXShDKD1bQ0gyXSlbQ0BASF0yW09IXSlbQ0gyXVtDQEBdMihGKVtDSDJdW05IXUMoPU8pW0NAQEhdM1tDSDJdU1tTK10oW08tXSlbUytdM1tPLV0=

>  <s_epik_cmdline>  (13) 
J2VwaWtfcHl0aG9uJywgJy1waHQnLCAnMi4wJywgJy1waCcsICc3LjAnLCAnLXRuJywgJzgnLCAnLW1hJywgJzIwMCcsICctaW1hZScsICc8aW5maWxlLm1hZT4nLCAnLW9tYWUnLCAnPG91dGZpbGUubWFlPic=

>  <r_epik_Ionization_Penalty>  (13) 
1.48159

>  <r_epik_Ionization_Penalty_Charging>  (13) 
1.48159

>  <r_epik_Ionization_Penalty_Neutral>  (13) 
4.01135e-08

>  <r_epik_State_Penalty>  (13) 
2.60953

>  <r_epik_Charging_Adjusted_Penalty>  (13) 
4.09112

>  <i_epik_Tot_Q>  (13) 
0

>  <i_epik_Tot_abs_Q>  (13) 
6

>  <s_lp_Force_Field>  (13) 
OPLS3e

>  <r_lp_Energy>  (13) 
17.2946

>  <b_lp_Chiralities_Consistent>  (13) 
1

>  <s_lp_Variant>  (13) 
7:0-3

>  <s_i_glide_gridfile>  (13) 
pfpi4k_grid

>  <i_i_glide_lignum>  (13) 
12

>  <i_i_glide_rotatable_bonds>  (13) 
6

>  <r_i_docking_score>  (13) 
-4.34616

>  <r_i_glide_ligand_efficiency>  (13) 
-0.18109

>  <r_i_glide_ligand_efficiency_sa>  (13) 
-0.522354

>  <r_i_glide_ligand_efficiency_ln>  (13) 
-1.04024

>  <r_i_glide_gscore>  (13) 
-4.34616

>  <r_i_glide_lipo>  (13) 
-0.360039

>  <r_i_glide_hbond>  (13) 
-0.490532

>  <r_i_glide_metal>  (13) 
-0

>  <r_i_glide_rewards>  (13) 
-0.743054

>  <r_i_glide_evdw>  (13) 
-22.46

>  <r_i_glide_ecoul>  (13) 
-13.872

>  <r_i_glide_erotb>  (13) 
0.493332

>  <r_i_glide_esite>  (13) 
-0.0420683

>  <r_i_glide_emodel>  (13) 
-51.1323

>  <r_i_glide_energy>  (13) 
-36.332

>  <r_i_glide_einternal>  (13) 
1.19238

>  <r_i_glide_intrahb_reward>  (13) 
-0

>  <i_i_glide_confnum>  (13) 
1

>  <i_i_glide_posenum>  (13) 
31

>  <r_i_glide_eff_state_penalty>  (13) 
0

>  <ligand_id>  (13) 
7

>  <original_smiles>  (13) 
C=C1C(N2CC(O)C2)CC(F)(CNC(=O)C2CS[S+]([O-])[S+]2[O-])C1O

>  <smiles>  (13) 
[H]OC1([H])C([H])([H])[N+]([H])(C2([H])C(=C([H])[H])C([H])([O-])C(F)(C([H])([H])N([H])C(=O)C3([H])S(=O)S(=O)SC3([H])[H])C2([H])[H])C1([H])[H]

$$$$
7:2:1
     RDKit          3D

 43 45  0  0  1  0  0  0  0  0999 V2000
    3.7943    1.7846    7.1789 C   0  0  0  0  0  0  0  0  0  0  0  0
    3.7163    0.8943    6.1770 C   0  0  0  0  0  0  0  0  0  0  0  0
    2.5984    0.8399    5.1511 C   0  0  1  0  0  0  0  0  0  0  0  0
    2.6682    1.9992    4.2133 N   0  0  1  0  0  0  0  0  0  0  0  0
    1.5824    2.1498    3.2402 C   0  0  0  0  0  0  0  0  0  0  0  0
    1.7780    3.6602    3.3703 C   0  0  1  0  0  0  0  0  0  0  0  0
    0.6382    4.4883    3.3025 O   0  0  0  0  0  0  0  0  0  0  0  0
    2.3220    3.3119    4.7497 C   0  0  0  0  0  0  0  0  0  0  0  0
    2.8375   -0.4788    4.4025 C   0  0  0  0  0  0  0  0  0  0  0  0
    4.3570   -0.7493    4.5111 C   0  0  1  0  0  0  0  0  0  0  0  0
    4.5169   -2.0720    4.5399 F   0  0  0  0  0  0  0  0  0  0  0  0
    5.1374   -0.1408    3.2948 C   0  0  0  0  0  0  0  0  0  0  0  0
    4.6586   -0.5610    1.9842 N   0  0  0  0  0  0  0  0  0  0  0  0
    4.9480   -1.7381    1.4203 C   0  0  0  0  0  0  0  0  0  0  0  0
    5.5918   -2.6224    1.9799 O   0  0  0  0  0  0  0  0  0  0  0  0
    4.4933   -1.9240   -0.0147 C   0  0  2  0  0  0  0  0  0  0  0  0
    3.1693   -2.7140   -0.1053 C   0  0  0  0  0  0  0  0  0  0  0  0
    2.7682   -3.0508   -1.8379 S   0  0  0  0  0  0  0  0  0  0  0  0
    4.5913   -3.6713   -2.4402 S   0  0  0  0  0  0  0  0  0  0  0  0
    4.9516   -3.3424   -3.8784 O   0  0  0  0  0  0  0  0  0  0  0  0
    5.7873   -2.8800   -0.9533 S   0  0  0  0  0  0  0  0  0  0  0  0
    6.7959   -1.8707   -1.4972 O   0  0  0  0  0  0  0  0  0  0  0  0
    4.7368   -0.1891    5.9103 C   0  0  1  0  0  0  0  0  0  0  0  0
    5.9210    0.3758    5.8890 O   0  0  0  0  0  0  0  0  0  0  0  0
    4.6450    1.8102    7.8544 H   0  0  0  0  0  0  0  0  0  0  0  0
    3.0319    2.5393    7.3133 H   0  0  0  0  0  0  0  0  0  0  0  0
    1.6351    0.8111    5.6624 H   0  0  0  0  0  0  0  0  0  0  0  0
    1.8171    1.7581    2.2548 H   0  0  0  0  0  0  0  0  0  0  0  0
    0.6066    1.8256    3.5968 H   0  0  0  0  0  0  0  0  0  0  0  0
    2.5536    4.0453    2.7011 H   0  0  0  0  0  0  0  0  0  0  0  0
    0.4104    4.5476    2.3715 H   0  0  0  0  0  0  0  0  0  0  0  0
    1.5415    3.2948    5.5064 H   0  0  0  0  0  0  0  0  0  0  0  0
    3.1885    3.8947    5.0471 H   0  0  0  0  0  0  0  0  0  0  0  0
    2.2575   -1.2851    4.8781 H   0  0  0  0  0  0  0  0  0  0  0  0
    2.4614   -0.4680    3.3759 H   0  0  0  0  0  0  0  0  0  0  0  0
    5.0047    0.9381    3.3106 H   0  0  0  0  0  0  0  0  0  0  0  0
    6.2160   -0.3196    3.3145 H   0  0  0  0  0  0  0  0  0  0  0  0
    4.1486    0.1170    1.4343 H   0  0  0  0  0  0  0  0  0  0  0  0
    4.3479   -0.9510   -0.4998 H   0  0  0  0  0  0  0  0  0  0  0  0
    3.2569   -3.6597    0.4280 H   0  0  0  0  0  0  0  0  0  0  0  0
    2.3410   -2.1787    0.3659 H   0  0  0  0  0  0  0  0  0  0  0  0
    4.4795   -0.9777    6.6329 H   0  0  0  0  0  0  0  0  0  0  0  0
    3.5656    2.0677    3.7472 H   0  0  0  0  0  0  0  0  0  0  0  0
  1  2  2  0
  1 25  1  0
  1 26  1  0
  2 23  1  0
  2  3  1  0
  3  4  1  0
  3  9  1  0
  3 27  1  1
  4  8  1  0
  4  5  1  0
  4 43  1  6
  5  6  1  0
  5 28  1  0
  5 29  1  0
  6  7  1  0
  6  8  1  0
  6 30  1  6
  7 31  1  0
  8 32  1  0
  8 33  1  0
  9 10  1  0
  9 34  1  0
  9 35  1  0
 10 11  1  1
 10 12  1  0
 10 23  1  0
 12 13  1  0
 12 36  1  0
 12 37  1  0
 13 14  1  0
 13 38  1  0
 14 15  2  0
 14 16  1  0
 16 21  1  0
 16 17  1  0
 16 39  1  6
 17 18  1  0
 17 40  1  0
 17 41  1  0
 19 18  1  1
 19 20  2  0
 21 19  1  6
 21 22  2  0
 23 24  1  0
 23 42  1  1
M  CHG  2   4   1  24  -1
M  END
>  <i_m_ct_stereo_status>  (14) 
1

>  <s_m_source_file>  (14) 
/var/tmp/pbs.5075288.sched01/tmpdioscf2v/0xa7vsnym.sdf

>  <i_m_source_file_index>  (14) 
12

>  <i_lp_mmshare_version>  (14) 
48012

>  <i_f3d_flags>  (14) 
0

>  <s_epik_input>  (14) 
W09IXVtDSF0oW0NIMl0xKVtDSDJdTjFbQ0BIXShDKD1bQ0gyXSlbQ0BASF0yW09IXSlbQ0gyXVtDQEBdMihGKVtDSDJdW05IXUMoPU8pW0NAQEhdM1tDSDJdU1tTK10oW08tXSlbUytdM1tPLV0=

>  <s_epik_cmdline>  (14) 
J2VwaWtfcHl0aG9uJywgJy1waHQnLCAnMi4wJywgJy1waCcsICc3LjAnLCAnLXRuJywgJzgnLCAnLW1hJywgJzIwMCcsICctaW1hZScsICc8aW5maWxlLm1hZT4nLCAnLW9tYWUnLCAnPG91dGZpbGUubWFlPic=

>  <r_epik_Ionization_Penalty>  (14) 
1.48159

>  <r_epik_Ionization_Penalty_Charging>  (14) 
1.48159

>  <r_epik_Ionization_Penalty_Neutral>  (14) 
4.01135e-08

>  <r_epik_State_Penalty>  (14) 
2.60953

>  <r_epik_Charging_Adjusted_Penalty>  (14) 
4.09112

>  <i_epik_Tot_Q>  (14) 
0

>  <i_epik_Tot_abs_Q>  (14) 
6

>  <s_lp_Force_Field>  (14) 
OPLS3e

>  <r_lp_Energy>  (14) 
17.2946

>  <b_lp_Chiralities_Consistent>  (14) 
1

>  <s_lp_Variant>  (14) 
7:0-3

>  <s_i_glide_gridfile>  (14) 
pfpi4k_grid

>  <i_i_glide_lignum>  (14) 
12

>  <i_i_glide_rotatable_bonds>  (14) 
6

>  <r_i_docking_score>  (14) 
-4.19596

>  <r_i_glide_ligand_efficiency>  (14) 
-0.174832

>  <r_i_glide_ligand_efficiency_sa>  (14) 
-0.504302

>  <r_i_glide_ligand_efficiency_ln>  (14) 
-1.00429

>  <r_i_glide_gscore>  (14) 
-4.19596

>  <r_i_glide_lipo>  (14) 
-0.15089

>  <r_i_glide_hbond>  (14) 
-0.32

>  <r_i_glide_metal>  (14) 
-0

>  <r_i_glide_rewards>  (14) 
-0.8103

>  <r_i_glide_evdw>  (14) 
-21.9276

>  <r_i_glide_ecoul>  (14) 
-15.2853

>  <r_i_glide_erotb>  (14) 
0.493332

>  <r_i_glide_esite>  (14) 
-0.0189181

>  <r_i_glide_emodel>  (14) 
-51.3379

>  <r_i_glide_energy>  (14) 
-37.213

>  <r_i_glide_einternal>  (14) 
1.91612

>  <r_i_glide_intrahb_reward>  (14) 
-0

>  <i_i_glide_confnum>  (14) 
1

>  <i_i_glide_posenum>  (14) 
29

>  <r_i_glide_eff_state_penalty>  (14) 
0

>  <ligand_id>  (14) 
7

>  <original_smiles>  (14) 
C=C1C(N2CC(O)C2)CC(F)(CNC(=O)C2CS[S+]([O-])[S+]2[O-])C1O

>  <smiles>  (14) 
[H]OC1([H])C([H])([H])[N+]([H])(C2([H])C(=C([H])[H])C([H])([O-])C(F)(C([H])([H])N([H])C(=O)C3([H])S(=O)S(=O)SC3([H])[H])C2([H])[H])C1([H])[H]

$$$$
7:2:2
     RDKit          3D

 43 45  0  0  1  0  0  0  0  0999 V2000
    2.8539    0.2352    7.5029 C   0  0  0  0  0  0  0  0  0  0  0  0
    3.1464   -0.3905    6.3444 C   0  0  0  0  0  0  0  0  0  0  0  0
    2.1670   -1.2252    5.5266 C   0  0  1  0  0  0  0  0  0  0  0  0
    1.1326   -0.3586    4.8867 N   0  0  1  0  0  0  0  0  0  0  0  0
    0.0687   -1.0383    4.1330 C   0  0  0  0  0  0  0  0  0  0  0  0
   -0.8545    0.0890    4.6038 C   0  0  1  0  0  0  0  0  0  0  0  0
   -2.1898   -0.2583    4.8957 O   0  0  0  0  0  0  0  0  0  0  0  0
    0.1128    0.2067    5.7817 C   0  0  0  0  0  0  0  0  0  0  0  0
    3.0526   -1.8976    4.4639 C   0  0  0  0  0  0  0  0  0  0  0  0
    4.2536   -0.9516    4.2592 C   0  0  1  0  0  0  0  0  0  0  0  0
    5.3442   -1.6666    3.9877 F   0  0  0  0  0  0  0  0  0  0  0  0
    3.9689    0.0684    3.1034 C   0  0  0  0  0  0  0  0  0  0  0  0
    3.5376   -0.4902    1.8235 N   0  0  0  0  0  0  0  0  0  0  0  0
    4.1683   -1.4349    1.1137 C   0  0  0  0  0  0  0  0  0  0  0  0
    5.1644   -2.0370    1.5112 O   0  0  0  0  0  0  0  0  0  0  0  0
    3.5866   -1.7416   -0.2696 C   0  0  2  0  0  0  0  0  0  0  0  0
    2.7293   -3.0192   -0.2670 C   0  0  0  0  0  0  0  0  0  0  0  0
    2.2249   -3.4499   -1.9368 S   0  0  0  0  0  0  0  0  0  0  0  0
    4.0979   -3.2475   -2.8963 S   0  0  0  0  0  0  0  0  0  0  0  0
    4.0410   -2.6073   -4.2920 O   0  0  0  0  0  0  0  0  0  0  0  0
    4.9940   -2.0246   -1.4578 S   0  0  0  0  0  0  0  0  0  0  0  0
    5.4120   -0.6463   -1.9545 O   0  0  0  0  0  0  0  0  0  0  0  0
    4.4921   -0.3080    5.6532 C   0  0  1  0  0  0  0  0  0  0  0  0
    4.8669    0.9408    5.5559 O   0  0  0  0  0  0  0  0  0  0  0  0
    3.5875    0.8529    8.0125 H   0  0  0  0  0  0  0  0  0  0  0  0
    1.8714    0.1530    7.9364 H   0  0  0  0  0  0  0  0  0  0  0  0
    1.7230   -1.9874    6.1716 H   0  0  0  0  0  0  0  0  0  0  0  0
    0.2469   -1.0573    3.0509 H   0  0  0  0  0  0  0  0  0  0  0  0
   -0.2217   -2.0186    4.5461 H   0  0  0  0  0  0  0  0  0  0  0  0
   -0.8120    0.9732    3.9491 H   0  0  0  0  0  0  0  0  0  0  0  0
   -2.7196    0.1003    4.1865 H   0  0  0  0  0  0  0  0  0  0  0  0
   -0.1628   -0.4557    6.6201 H   0  0  0  0  0  0  0  0  0  0  0  0
    0.3379    1.2391    6.0856 H   0  0  0  0  0  0  0  0  0  0  0  0
    3.3982   -2.8712    4.8157 H   0  0  0  0  0  0  0  0  0  0  0  0
    2.5131   -2.1092    3.5441 H   0  0  0  0  0  0  0  0  0  0  0  0
    3.1585    0.7397    3.3769 H   0  0  0  0  0  0  0  0  0  0  0  0
    4.8137    0.7246    2.9210 H   0  0  0  0  0  0  0  0  0  0  0  0
    2.7462   -0.0452    1.3795 H   0  0  0  0  0  0  0  0  0  0  0  0
    3.0364   -0.8703   -0.6538 H   0  0  0  0  0  0  0  0  0  0  0  0
    3.2949   -3.8468    0.1456 H   0  0  0  0  0  0  0  0  0  0  0  0
    1.8441   -2.8882    0.3338 H   0  0  0  0  0  0  0  0  0  0  0  0
    5.0895   -1.0301    6.2046 H   0  0  0  0  0  0  0  0  0  0  0  0
    1.5579    0.3827    4.3373 H   0  0  0  0  0  0  0  0  0  0  0  0
  1  2  2  0
  1 25  1  0
  1 26  1  0
  2 23  1  0
  2  3  1  0
  3  4  1  0
  3  9  1  0
  3 27  1  1
  4  8  1  0
  4  5  1  0
  4 43  1  6
  5  6  1  0
  5 28  1  0
  5 29  1  0
  6  7  1  0
  6  8  1  0
  6 30  1  6
  7 31  1  0
  8 32  1  0
  8 33  1  0
  9 10  1  0
  9 34  1  0
  9 35  1  0
 10 11  1  6
 10 12  1  0
 10 23  1  0
 12 13  1  0
 12 36  1  0
 12 37  1  0
 13 14  1  0
 13 38  1  0
 14 15  2  0
 14 16  1  0
 16 21  1  0
 16 17  1  0
 16 39  1  6
 17 18  1  0
 17 40  1  0
 17 41  1  0
 19 18  1  1
 19 20  2  0
 21 19  1  6
 21 22  2  0
 23 24  1  0
 23 42  1  1
M  CHG  2   4   1  24  -1
M  END
>  <i_m_ct_stereo_status>  (15) 
1

>  <s_m_source_file>  (15) 
/var/tmp/pbs.5075288.sched01/tmpdioscf2v/0xa7vsnym.sdf

>  <i_m_source_file_index>  (15) 
12

>  <i_lp_mmshare_version>  (15) 
48012

>  <i_f3d_flags>  (15) 
0

>  <s_epik_input>  (15) 
W09IXVtDSF0oW0NIMl0xKVtDSDJdTjFbQ0BIXShDKD1bQ0gyXSlbQ0BASF0yW09IXSlbQ0gyXVtDQEBdMihGKVtDSDJdW05IXUMoPU8pW0NAQEhdM1tDSDJdU1tTK10oW08tXSlbUytdM1tPLV0=

>  <s_epik_cmdline>  (15) 
J2VwaWtfcHl0aG9uJywgJy1waHQnLCAnMi4wJywgJy1waCcsICc3LjAnLCAnLXRuJywgJzgnLCAnLW1hJywgJzIwMCcsICctaW1hZScsICc8aW5maWxlLm1hZT4nLCAnLW9tYWUnLCAnPG91dGZpbGUubWFlPic=

>  <r_epik_Ionization_Penalty>  (15) 
1.48159

>  <r_epik_Ionization_Penalty_Charging>  (15) 
1.48159

>  <r_epik_Ionization_Penalty_Neutral>  (15) 
4.01135e-08

>  <r_epik_State_Penalty>  (15) 
2.60953

>  <r_epik_Charging_Adjusted_Penalty>  (15) 
4.09112

>  <i_epik_Tot_Q>  (15) 
0

>  <i_epik_Tot_abs_Q>  (15) 
6

>  <s_lp_Force_Field>  (15) 
OPLS3e

>  <r_lp_Energy>  (15) 
17.2946

>  <b_lp_Chiralities_Consistent>  (15) 
1

>  <s_lp_Variant>  (15) 
7:0-3

>  <s_i_glide_gridfile>  (15) 
pfpi4k_grid

>  <i_i_glide_lignum>  (15) 
12

>  <i_i_glide_rotatable_bonds>  (15) 
6

>  <r_i_docking_score>  (15) 
-4.05871

>  <r_i_glide_ligand_efficiency>  (15) 
-0.169113

>  <r_i_glide_ligand_efficiency_sa>  (15) 
-0.487807

>  <r_i_glide_ligand_efficiency_ln>  (15) 
-0.971437

>  <r_i_glide_gscore>  (15) 
-4.05871

>  <r_i_glide_lipo>  (15) 
-0.195712

>  <r_i_glide_hbond>  (15) 
-0.607259

>  <r_i_glide_metal>  (15) 
-0

>  <r_i_glide_rewards>  (15) 
-0.75924

>  <r_i_glide_evdw>  (15) 
-24.3368

>  <r_i_glide_ecoul>  (15) 
-11.4956

>  <r_i_glide_erotb>  (15) 
0.493332

>  <r_i_glide_esite>  (15) 
-0.0486548

>  <r_i_glide_emodel>  (15) 
-48.9348

>  <r_i_glide_energy>  (15) 
-35.8324

>  <r_i_glide_einternal>  (15) 
2.32424

>  <r_i_glide_intrahb_reward>  (15) 
-0

>  <i_i_glide_confnum>  (15) 
1

>  <i_i_glide_posenum>  (15) 
5

>  <r_i_glide_eff_state_penalty>  (15) 
0

>  <ligand_id>  (15) 
7

>  <original_smiles>  (15) 
C=C1C(N2CC(O)C2)CC(F)(CNC(=O)C2CS[S+]([O-])[S+]2[O-])C1O

>  <smiles>  (15) 
[H]OC1([H])C([H])([H])[N+]([H])(C2([H])C(=C([H])[H])C([H])([O-])C(F)(C([H])([H])N([H])C(=O)C3([H])S(=O)S(=O)SC3([H])[H])C2([H])[H])C1([H])[H]

$$$$
14:1:0
     RDKit          3D

127135  0  0  1  0  0  0  0  0999 V2000
   -0.9703   -5.6383    7.2861 C   0  0  0  0  0  0  0  0  0  0  0  0
    0.3338   -4.9665    7.6562 C   0  0  0  0  0  0  0  0  0  0  0  0
    0.5734   -4.6864    8.8282 O   0  0  0  0  0  0  0  0  0  0  0  0
    1.1245   -4.7723    6.5659 O   0  0  0  0  0  0  0  0  0  0  0  0
    2.4425   -4.1716    6.5266 C   0  0  1  0  0  0  0  0  0  0  0  0
    2.6628   -2.9613    7.4753 C   0  0  0  0  0  0  0  0  0  0  0  0
    4.1705   -2.7589    7.4055 C   0  0  2  0  0  0  0  0  0  0  0  0
    4.5979   -2.1118    5.9743 C   0  0  0  0  0  0  0  0  0  0  0  0
    3.9435   -0.7110    5.8514 C   0  0  0  0  0  0  0  0  0  0  0  0
    6.0993   -1.8065    5.9308 C   0  0  0  0  0  0  0  0  0  0  0  0
    4.1009   -3.1042    4.8025 C   0  0  2  0  0  0  0  0  0  0  0  0
    4.6787   -3.3427    3.3289 C   0  0  1  0  0  0  0  0  0  0  0  0
    5.3589   -2.1481    2.6168 C   0  0  0  0  0  0  0  0  0  0  0  0
    5.2742   -0.9924    3.0236 O   0  0  0  0  0  0  0  0  0  0  0  0
    6.1439   -2.5526    1.3860 C   0  0  2  0  0  0  0  0  0  0  0  0
    6.9388   -1.4095    0.7242 C   0  0  0  0  0  0  0  0  0  0  0  0
    5.3103   -3.4580    0.4979 C   0  0  0  0  0  0  0  0  0  0  0  0
    5.8689   -4.5800    1.3835 C   0  0  1  0  0  0  0  0  0  0  0  0
    6.3595   -5.8001    0.6025 C   0  0  0  0  0  0  0  0  0  0  0  0
    7.0022   -3.7084    1.6530 O   0  0  0  0  0  0  0  0  0  0  0  0
    5.1699   -4.8100    2.7899 C   0  0  1  0  0  0  0  0  0  0  0  0
    5.9746   -5.8020    3.7611 C   0  0  1  0  0  0  0  0  0  0  0  0
    6.6444   -5.0672    4.7576 O   0  0  0  0  0  0  0  0  0  0  0  0
    5.7461   -7.4046    4.1535 C   0  0  1  0  0  0  0  0  0  0  0  0
    6.8571   -7.9881    3.4707 O   0  0  0  0  0  0  0  0  0  0  0  0
    5.9369   -7.6300    6.0045 S   0  0  0  0  0  0  0  0  0  0  0  0
    6.7638   -6.6439    6.8267 O   0  0  0  0  0  0  0  0  0  0  0  0
    4.1292   -7.7493    6.4057 C   0  0  1  0  0  0  0  0  0  0  0  0
    3.3738   -6.6489    7.2303 C   0  0  0  0  0  0  0  0  0  0  0  0
    3.6605   -5.1487    6.9435 C   0  0  2  0  0  0  0  0  0  0  0  0
    4.6355   -4.2303    7.7979 C   0  0  1  0  0  0  0  0  0  0  0  0
    5.9621   -4.2640    7.3578 O   0  0  0  0  0  0  0  0  0  0  0  0
    4.7297   -4.5282    9.3605 C   0  0  0  0  0  0  0  0  0  0  0  0
    3.3882   -4.7194   10.1346 C   0  0  0  0  0  0  0  0  0  0  0  0
    5.6245   -5.7514    9.6931 C   0  0  0  0  0  0  0  0  0  0  0  0
    5.3568   -3.4250   10.0002 O   0  0  0  0  0  0  0  0  0  0  0  0
    3.4649   -8.4878    5.1871 C   0  0  2  0  0  0  0  0  0  0  0  0
    2.4538   -7.6854    4.5273 O   0  0  0  0  0  0  0  0  0  0  0  0
    2.2409   -8.0545    3.1702 C   0  0  1  0  0  0  0  0  0  0  0  0
    1.1577   -8.9504    3.0637 O   0  0  0  0  0  0  0  0  0  0  0  0
    1.7548   -6.8315    2.2954 C   0  0  0  0  0  0  0  0  0  0  0  0
    0.2585   -6.4879    2.4393 C   0  0  0  0  0  0  0  0  0  0  0  0
   -0.2627   -6.3465    3.5381 O   0  0  0  0  0  0  0  0  0  0  0  0
   -0.3444   -6.2784    1.3235 O   0  0  0  0  0  0  0  0  0  0  0  0
    3.6057   -8.7502    2.7596 C   0  0  2  0  0  0  0  0  0  0  0  0
    4.2201   -8.1742    1.4708 C   0  0  0  0  0  0  0  0  0  0  0  0
    3.3367  -10.2687    2.4048 C   0  0  0  0  0  0  0  0  0  0  0  0
    3.0492  -11.3562    3.4848 C   0  0  0  0  0  0  0  0  0  0  0  0
    2.2423  -10.9043    4.7007 C   0  0  0  0  0  0  0  0  0  0  0  0
    1.1032  -11.3404    4.8482 O   0  0  0  0  0  0  0  0  0  0  0  0
    2.8296   -9.8900    5.7129 C   0  0  1  0  0  0  0  0  0  0  0  0
    3.6542  -10.7546    6.7243 C   0  0  0  0  0  0  0  0  0  0  0  0
    3.4566  -10.3750    8.0710 O   0  0  0  0  0  0  0  0  0  0  0  0
    4.5202   -8.5165    4.0214 C   0  0  1  0  0  0  0  0  0  0  0  0
    5.2311   -9.7455    4.2364 O   0  0  0  0  0  0  0  0  0  0  0  0
    2.6444   -3.7071    5.0168 C   0  0  1  0  0  0  0  0  0  0  0  0
    2.6706   -4.9347    4.3513 O   0  0  0  0  0  0  0  0  0  0  0  0
    1.4693   -2.8241    4.4055 C   0  0  1  0  0  0  0  0  0  0  0  0
    0.4774   -3.6947    3.9285 O   0  0  0  0  0  0  0  0  0  0  0  0
    0.7209   -1.8203    5.3073 C   0  0  0  0  0  0  0  0  0  0  0  0
    0.4759   -0.6137    4.3948 C   0  0  1  0  0  0  0  0  0  0  0  0
    1.1966    0.7012    4.8364 C   0  0  0  0  0  0  0  0  0  0  0  0
    1.0221   -1.0751    3.0245 C   0  0  0  0  0  0  0  0  0  0  0  0
    1.9869   -2.0602    3.3419 O   0  0  0  0  0  0  0  0  0  0  0  0
   -1.4869   -5.0873    6.5016 H   0  0  0  0  0  0  0  0  0  0  0  0
   -1.6203   -5.7133    8.1555 H   0  0  0  0  0  0  0  0  0  0  0  0
   -0.7140   -6.6316    6.9239 H   0  0  0  0  0  0  0  0  0  0  0  0
    2.1137   -2.0602    7.4304 H   0  0  0  0  0  0  0  0  0  0  0  0
    2.3461   -3.2266    8.4374 H   0  0  0  0  0  0  0  0  0  0  0  0
    4.4310   -2.0256    8.1688 H   0  0  0  0  0  0  0  0  0  0  0  0
    4.2704   -0.1510    4.9503 H   0  0  0  0  0  0  0  0  0  0  0  0
    4.0840   -0.0875    6.7528 H   0  0  0  0  0  0  0  0  0  0  0  0
    2.9351   -0.8592    5.7149 H   0  0  0  0  0  0  0  0  0  0  0  0
    6.2418   -0.9447    5.2994 H   0  0  0  0  0  0  0  0  0  0  0  0
    6.6173   -2.6668    5.5693 H   0  0  0  0  0  0  0  0  0  0  0  0
    6.4347   -1.5424    6.9167 H   0  0  0  0  0  0  0  0  0  0  0  0
    4.7639   -3.8496    5.1391 H   0  0  0  0  0  0  0  0  0  0  0  0
    3.7805   -3.2542    2.7329 H   0  0  0  0  0  0  0  0  0  0  0  0
    6.2655   -0.6348    0.3597 H   0  0  0  0  0  0  0  0  0  0  0  0
    7.5135   -1.7681   -0.1333 H   0  0  0  0  0  0  0  0  0  0  0  0
    7.6477   -0.9353    1.3971 H   0  0  0  0  0  0  0  0  0  0  0  0
    4.2331   -3.3111    0.5712 H   0  0  0  0  0  0  0  0  0  0  0  0
    5.6762   -3.4802   -0.5336 H   0  0  0  0  0  0  0  0  0  0  0  0
    5.5538   -6.2201    0.0121 H   0  0  0  0  0  0  0  0  0  0  0  0
    6.8069   -6.5919    1.1939 H   0  0  0  0  0  0  0  0  0  0  0  0
    7.1202   -5.5055   -0.1136 H   0  0  0  0  0  0  0  0  0  0  0  0
    4.2640   -5.3319    2.5666 H   0  0  0  0  0  0  0  0  0  0  0  0
    6.8999   -5.8363    3.1887 H   0  0  0  0  0  0  0  0  0  0  0  0
    6.0789   -4.8312    5.4867 H   0  0  0  0  0  0  0  0  0  0  0  0
    7.5657   -8.0565    4.0963 H   0  0  0  0  0  0  0  0  0  0  0  0
    4.3221   -8.4345    7.2060 H   0  0  0  0  0  0  0  0  0  0  0  0
    2.3195   -6.8548    7.0623 H   0  0  0  0  0  0  0  0  0  0  0  0
    3.4655   -6.8686    8.2834 H   0  0  0  0  0  0  0  0  0  0  0  0
    4.2337   -5.4058    6.0746 H   0  0  0  0  0  0  0  0  0  0  0  0
    6.4466   -3.6001    7.8258 H   0  0  0  0  0  0  0  0  0  0  0  0
    2.8709   -5.6392    9.8321 H   0  0  0  0  0  0  0  0  0  0  0  0
    2.6970   -3.8962   10.0928 H   0  0  0  0  0  0  0  0  0  0  0  0
    3.5674   -4.7855   11.2166 H   0  0  0  0  0  0  0  0  0  0  0  0
    5.3336   -6.6410    9.1455 H   0  0  0  0  0  0  0  0  0  0  0  0
    5.5571   -6.0034   10.7498 H   0  0  0  0  0  0  0  0  0  0  0  0
    6.6751   -5.5884    9.4604 H   0  0  0  0  0  0  0  0  0  0  0  0
    6.2750   -3.4185    9.7760 H   0  0  0  0  0  0  0  0  0  0  0  0
    1.3931   -9.7746    3.4671 H   0  0  0  0  0  0  0  0  0  0  0  0
    2.3193   -5.9482    2.4694 H   0  0  0  0  0  0  0  0  0  0  0  0
    1.9449   -7.0066    1.2344 H   0  0  0  0  0  0  0  0  0  0  0  0
    5.2237   -8.5695    1.2960 H   0  0  0  0  0  0  0  0  0  0  0  0
    4.2889   -7.1022    1.5145 H   0  0  0  0  0  0  0  0  0  0  0  0
    3.6373   -8.4217    0.5837 H   0  0  0  0  0  0  0  0  0  0  0  0
    2.5857  -10.3464    1.6197 H   0  0  0  0  0  0  0  0  0  0  0  0
    4.2346  -10.6138    1.9006 H   0  0  0  0  0  0  0  0  0  0  0  0
    2.5155  -12.1879    3.0152 H   0  0  0  0  0  0  0  0  0  0  0  0
    3.9727  -11.7984    3.8499 H   0  0  0  0  0  0  0  0  0  0  0  0
    1.9362   -9.5823    6.2571 H   0  0  0  0  0  0  0  0  0  0  0  0
    3.4028  -11.8157    6.6856 H   0  0  0  0  0  0  0  0  0  0  0  0
    4.7154  -10.7171    6.5200 H   0  0  0  0  0  0  0  0  0  0  0  0
    3.6420   -9.4525    8.1606 H   0  0  0  0  0  0  0  0  0  0  0  0
    5.6568   -9.7052    5.0800 H   0  0  0  0  0  0  0  0  0  0  0  0
    3.3769   -5.4605    4.6963 H   0  0  0  0  0  0  0  0  0  0  0  0
    0.9036   -4.4058    3.4514 H   0  0  0  0  0  0  0  0  0  0  0  0
   -0.1430   -2.3029    5.7969 H   0  0  0  0  0  0  0  0  0  0  0  0
    1.2708   -1.4245    6.0459 H   0  0  0  0  0  0  0  0  0  0  0  0
   -0.6192   -0.4334    4.3949 H   0  0  0  0  0  0  0  0  0  0  0  0
    2.2785    0.6628    4.7331 H   0  0  0  0  0  0  0  0  0  0  0  0
    0.9513    0.9507    5.8839 H   0  0  0  0  0  0  0  0  0  0  0  0
    0.8935    1.5248    4.1820 H   0  0  0  0  0  0  0  0  0  0  0  0
    0.2486   -1.5627    2.4711 H   0  0  0  0  0  0  0  0  0  0  0  0
    1.3920   -0.2562    2.4060 H   0  0  0  0  0  0  0  0  0  0  0  0
  1  2  1  0
  1 65  1  0
  1 66  1  0
  1 67  1  0
  2  3  2  0
  2  4  1  0
  5  4  1  6
  5 30  1  0
  5 56  1  0
  5  6  1  0
  6  7  1  0
  6 68  1  0
  6 69  1  0
  7 31  1  0
  7  8  1  0
  7 70  1  1
  8  9  1  0
  8 10  1  0
  8 11  1  0
  9 71  1  0
  9 72  1  0
  9 73  1  0
 10 74  1  0
 10 75  1  0
 10 76  1  0
 11 12  1  0
 11 56  1  0
 11 77  1  1
 12 21  1  0
 12 13  1  0
 12 78  1  6
 13 14  2  0
 13 15  1  0
 15 20  1  0
 15 16  1  6
 15 17  1  0
 16 79  1  0
 16 80  1  0
 16 81  1  0
 17 18  1  0
 17 82  1  0
 17 83  1  0
 18 19  1  6
 18 20  1  0
 18 21  1  0
 19 84  1  0
 19 85  1  0
 19 86  1  0
 21 22  1  0
 21 87  1  6
 22 23  1  0
 22 24  1  0
 22 88  1  6
 23 89  1  0
 24 54  1  0
 24 25  1  6
 26 24  1  6
 25 90  1  0
 26 27  2  0
 26 28  1  0
 28 29  1  0
 28 37  1  0
 28 91  1  1
 29 30  1  0
 29 92  1  0
 29 93  1  0
 30 31  1  0
 30 94  1  6
 31 32  1  6
 31 33  1  0
 32 95  1  0
 33 34  1  0
 33 35  1  0
 33 36  1  0
 34 96  1  0
 34 97  1  0
 34 98  1  0
 35 99  1  0
 35100  1  0
 35101  1  0
 36102  1  0
 37 51  1  0
 37 54  1  0
 37 38  1  6
 38 39  1  0
 39 40  1  1
 39 41  1  0
 39 45  1  0
 40103  1  0
 41 42  1  0
 41104  1  0
 41105  1  0
 42 43  1  0
 42 44  2  0
 45 46  1  6
 45 47  1  0
 45 54  1  0
 46106  1  0
 46107  1  0
 46108  1  0
 47 48  1  0
 47109  1  0
 47110  1  0
 48 49  1  0
 48111  1  0
 48112  1  0
 49 50  2  0
 49 51  1  0
 51 52  1  0
 51113  1  1
 52 53  1  0
 52114  1  0
 52115  1  0
 53116  1  0
 54 55  1  1
 55117  1  0
 56 57  1  6
 56 58  1  0
 57118  1  0
 58 64  1  0
 58 59  1  6
 58 60  1  0
 59119  1  0
 60 61  1  0
 60120  1  0
 60121  1  0
 61 62  1  0
 61 63  1  0
 61122  1  6
 62123  1  0
 62124  1  0
 62125  1  0
 63 64  1  0
 63126  1  0
 63127  1  0
M  CHG  1  43  -1
M  END
>  <i_m_ct_stereo_status>  (16) 
1

>  <s_m_source_file>  (16) 
/var/tmp/pbs.5075288.sched01/tmpdioscf2v/0xa7vsnym.sdf

>  <i_m_source_file_index>  (16) 
41

>  <i_lp_mmshare_version>  (16) 
48012

>  <i_f3d_flags>  (16) 
0

>  <s_epik_input>  (16) 
TzFbQ0gyXVtDQEhdKFtDSDNdKVtDSDJdW0NAXTEoW09IXSlbQ0BdMihbT0hdKVtDQEBdKE9DKD1PKVtDSDNdKShbQ0BIXShbQ0gyXTMpW0NAXTQoW09IXSlDKFtDSDNdKShbQ0gzXSlbT0hdKVtDSDJdW0NAQEhdNEMoW0NIM10pKFtDSDNdKVtDQEBIXTJbQ0BASF0oQyg9TylbQ0BdNShbQ0gzXSlbQ0gyXVtDQF02KE81KVtDSDNdKVtDQEBIXTZbQ0BASF0oW09IXSlbQ0BAXShbT0hdKShbUytdKFtPLV0pW0NAQEhdM1tDQF03ODkpW0NAXTkoW09IXSlbQ0BdKFtDSDNdKShbQ0BdKE83KShbT0hdKVtDSDJdQyg9TylbT0hdKVtDSDJdW0NIMl1DKD1PKVtDQEhdOFtDSDJdW09IXQ==

>  <s_epik_cmdline>  (16) 
J2VwaWtfcHl0aG9uJywgJy1waHQnLCAnMi4wJywgJy1waCcsICc3LjAnLCAnLXRuJywgJzgnLCAnLW1hJywgJzIwMCcsICctaW1hZScsICc8aW5maWxlLm1hZT4nLCAnLW9tYWUnLCAnPG91dGZpbGUubWFlPic=

>  <r_lp_tautomer_probability>  (16) 
0.99995

>  <r_epik_Ionization_Penalty>  (16) 
0.000826516

>  <r_epik_Ionization_Penalty_Charging>  (16) 
0.000824131

>  <r_epik_Ionization_Penalty_Neutral>  (16) 
2.38455e-06

>  <r_epik_State_Penalty>  (16) 
0.00053027

>  <r_epik_Charging_Adjusted_Penalty>  (16) 
0.0013544

>  <i_epik_Tot_Q>  (16) 
-1

>  <i_epik_Tot_abs_Q>  (16) 
3

>  <s_epik_Chemistry_Notes>  (16) 
This compound has an ester and may undergo hydrolysis at high or low pH.

>  <s_lp_Force_Field>  (16) 
OPLS3e

>  <r_lp_Energy>  (16) 
221.517

>  <b_lp_Chiralities_Consistent>  (16) 
1

>  <s_lp_Variant>  (16) 
14:0-2

>  <s_i_glide_gridfile>  (16) 
pfpi4k_grid

>  <i_i_glide_lignum>  (16) 
41

>  <i_i_glide_rotatable_bonds>  (16) 
16

>  <r_i_docking_score>  (16) 
-1.47107

>  <r_i_glide_ligand_efficiency>  (16) 
-0.0229855

>  <r_i_glide_ligand_efficiency_sa>  (16) 
-0.0919421

>  <r_i_glide_ligand_efficiency_ln>  (16) 
-0.285153

>  <r_i_glide_gscore>  (16) 
-1.47107

>  <r_i_glide_lipo>  (16) 
-0.455344

>  <r_i_glide_hbond>  (16) 
-0.500351

>  <r_i_glide_metal>  (16) 
-0

>  <r_i_glide_rewards>  (16) 
-0.592584

>  <r_i_glide_evdw>  (16) 
-18.5469

>  <r_i_glide_ecoul>  (16) 
-2.18002

>  <r_i_glide_erotb>  (16) 
0.128402

>  <r_i_glide_esite>  (16) 
-0.151364

>  <r_i_glide_emodel>  (16) 
-11.466

>  <r_i_glide_energy>  (16) 
-20.7269

>  <r_i_glide_einternal>  (16) 
18.865

>  <r_i_glide_intrahb_reward>  (16) 
-0.5

>  <i_i_glide_confnum>  (16) 
2

>  <i_i_glide_posenum>  (16) 
2

>  <r_i_glide_eff_state_penalty>  (16) 
0

>  <ligand_id>  (16) 
14

>  <original_smiles>  (16) 
CC(=O)OC12CC3C(C)(C)C(C4C(=O)C5(C)CC(C)(O5)C4C(O)C4(O)[S+]([O-])C(CC1C3(O)C(C)(C)O)C13OC(O)(CC(=O)O)C(C)(CCC(=O)C1CO)C34O)C2(O)C1(O)CC(C)CO1

>  <smiles>  (16) 
[H]OC([H])([H])C1([H])C(=O)C([H])([H])C([H])([H])C2(C([H])([H])[H])C(O[H])(C([H])([H])C(=O)[O-])OC13C1([H])S(=O)C(O[H])(C([H])(O[H])C4([H])C([H])(C(=O)C5(C([H])([H])[H])OC4(C([H])([H])[H])C5([H])[H])C4([H])C(O[H])(C5(O[H])OC([H])([H])C([H])(C([H])([H])[H])C5([H])[H])C5(OC(=O)C([H])([H])[H])C([H])([H])C([H])(C(O[H])(C(O[H])(C([H])([H])[H])C([H])([H])[H])C5([H])C1([H])[H])C4(C([H])([H])[H])C([H])([H])[H])C32O[H]

$$$$
17:0:0
     RDKit          3D

 72 79  0  0  1  0  0  0  0  0999 V2000
    0.1209    2.6537   11.1439 C   0  0  0  0  0  0  0  0  0  0  0  0
    0.2504    2.5410    9.6196 C   0  0  0  0  0  0  0  0  0  0  0  0
   -1.1090    2.2461    8.9342 C   0  0  0  0  0  0  0  0  0  0  0  0
   -1.0829    2.0718    7.3828 C   0  0  2  0  0  0  0  0  0  0  0  0
   -0.8052    3.3561    6.6163 C   0  0  0  0  0  0  0  0  0  0  0  0
   -0.8082    2.9588    5.1108 C   0  0  1  0  0  0  0  0  0  0  0  0
   -2.1859    2.6539    5.4911 O   0  0  0  0  0  0  0  0  0  0  0  0
   -2.3463    2.0092    6.8446 O   0  0  0  0  0  0  0  0  0  0  0  0
   -1.2812    1.6410    4.3009 C   0  0  1  0  0  0  0  0  0  0  0  0
   -0.3684    1.5323    3.0827 C   0  0  0  0  0  0  0  0  0  0  0  0
    1.0135    1.8224    3.6137 C   0  0  1  0  0  0  0  0  0  0  0  0
    1.6745    3.1554    3.1836 C   0  0  0  0  0  0  0  0  0  0  0  0
    1.7796    3.6023    4.6545 C   0  0  1  0  0  0  0  0  0  0  0  0
    3.0811    3.3979    5.1802 O   0  0  0  0  0  0  0  0  0  0  0  0
    1.4273    5.0962    4.8984 C   0  0  0  0  0  0  0  0  0  0  0  0
    0.3456    5.5433    5.2962 O   0  0  0  0  0  0  0  0  0  0  0  0
    2.4674    5.9067    4.6246 O   0  0  0  0  0  0  0  0  0  0  0  0
    2.3087    7.2991    4.8290 C   0  0  0  0  0  0  0  0  0  0  0  0
    0.7225    2.4672    5.0155 C   0  0  1  0  0  0  0  0  0  0  0  0
    1.0919    1.5294    6.2476 C   0  0  2  0  0  0  0  0  0  0  0  0
    2.2653    0.5580    6.0368 C   0  0  0  0  0  0  0  0  0  0  0  0
    2.3848   -0.0764    4.6909 C   0  0  0  0  0  0  0  0  0  0  0  0
    3.1085   -1.2451    4.6103 C   0  0  0  0  0  0  0  0  0  0  0  0
    3.4246   -1.7987    3.3520 C   0  0  0  0  0  0  0  0  0  0  0  0
    2.9004   -1.2267    2.1694 C   0  0  0  0  0  0  0  0  0  0  0  0
    3.0258   -1.8956    0.9022 N   0  0  0  0  0  0  0  0  0  0  0  0
    3.5414   -3.2584    0.7903 C   0  0  0  0  0  0  0  0  0  0  0  0
    2.6953   -4.3721    1.4403 C   0  0  0  0  0  0  0  0  0  0  0  0
    2.4979   -5.5912    0.7087 C   0  0  0  0  0  0  0  0  0  0  0  0
    1.7229   -6.6046    1.3153 C   0  0  0  0  0  0  0  0  0  0  0  0
    1.2241   -6.4049    2.6161 C   0  0  0  0  0  0  0  0  0  0  0  0
    1.4067   -5.2417    3.2775 N   0  0  0  0  0  0  0  0  0  0  0  0
    2.0961   -4.2537    2.7180 C   0  0  0  0  0  0  0  0  0  0  0  0
    2.1808   -0.0639    2.2758 C   0  0  0  0  0  0  0  0  0  0  0  0
    1.6965    0.4869    1.1422 O   0  0  0  0  0  0  0  0  0  0  0  0
    1.8675    0.5514    3.5335 C   0  0  0  0  0  0  0  0  0  0  0  0
   -0.2044    0.8843    6.8175 C   0  0  1  0  0  0  0  0  0  0  0  0
    0.0326   -0.0722    7.8345 O   0  0  0  0  0  0  0  0  0  0  0  0
   -1.0119    0.0832    5.3307 S   0  0  0  0  0  0  0  0  0  0  0  0
   -2.3691   -0.4919    5.7628 O   0  0  0  0  0  0  0  0  0  0  0  0
    1.0870    2.8540   11.6048 H   0  0  0  0  0  0  0  0  0  0  0  0
   -0.2666    1.7342   11.5838 H   0  0  0  0  0  0  0  0  0  0  0  0
   -0.5518    3.4617   11.4288 H   0  0  0  0  0  0  0  0  0  0  0  0
    0.6828    3.4638    9.2308 H   0  0  0  0  0  0  0  0  0  0  0  0
    0.9673    1.7517    9.3992 H   0  0  0  0  0  0  0  0  0  0  0  0
   -1.5281    1.3388    9.3636 H   0  0  0  0  0  0  0  0  0  0  0  0
   -1.7988    3.0529    9.1855 H   0  0  0  0  0  0  0  0  0  0  0  0
   -1.4913    4.1709    6.8530 H   0  0  0  0  0  0  0  0  0  0  0  0
    0.1390    3.7763    6.9591 H   0  0  0  0  0  0  0  0  0  0  0  0
   -2.2862    1.5394    3.8375 H   0  0  0  0  0  0  0  0  0  0  0  0
   -0.4659    0.5829    2.5548 H   0  0  0  0  0  0  0  0  0  0  0  0
   -0.6739    2.2941    2.3745 H   0  0  0  0  0  0  0  0  0  0  0  0
    2.6341    3.0352    2.6607 H   0  0  0  0  0  0  0  0  0  0  0  0
    1.0026    3.7815    2.5990 H   0  0  0  0  0  0  0  0  0  0  0  0
    3.3650    2.5337    4.9041 H   0  0  0  0  0  0  0  0  0  0  0  0
    3.2252    7.8134    4.5663 H   0  0  0  0  0  0  0  0  0  0  0  0
    2.0793    7.5512    5.8674 H   0  0  0  0  0  0  0  0  0  0  0  0
    1.5103    7.7050    4.2066 H   0  0  0  0  0  0  0  0  0  0  0  0
    1.4762    2.1630    7.0495 H   0  0  0  0  0  0  0  0  0  0  0  0
    3.1945    1.1070    6.1459 H   0  0  0  0  0  0  0  0  0  0  0  0
    2.3295   -0.1789    6.8293 H   0  0  0  0  0  0  0  0  0  0  0  0
    3.3825   -1.8060    5.4857 H   0  0  0  0  0  0  0  0  0  0  0  0
    3.9735   -2.7497    3.3395 H   0  0  0  0  0  0  0  0  0  0  0  0
    2.4618   -1.5504    0.1398 H   0  0  0  0  0  0  0  0  0  0  0  0
    3.6920   -3.4450   -0.2940 H   0  0  0  0  0  0  0  0  0  0  0  0
    4.5600   -3.2678    1.1883 H   0  0  0  0  0  0  0  0  0  0  0  0
    2.8995   -5.7509   -0.3228 H   0  0  0  0  0  0  0  0  0  0  0  0
    1.4975   -7.5506    0.8457 H   0  0  0  0  0  0  0  0  0  0  0  0
    0.6114   -7.1195    3.1880 H   0  0  0  0  0  0  0  0  0  0  0  0
    2.0593   -3.3764    3.3132 H   0  0  0  0  0  0  0  0  0  0  0  0
    1.4690   -0.0731    0.3834 H   0  0  0  0  0  0  0  0  0  0  0  0
    0.8925    0.0833    8.1930 H   0  0  0  0  0  0  0  0  0  0  0  0
  1  2  1  0
  1 41  1  0
  1 42  1  0
  1 43  1  0
  2  3  1  0
  2 44  1  0
  2 45  1  0
  4  3  1  1
  3 46  1  0
  3 47  1  0
  4  8  1  0
  4 37  1  0
  4  5  1  0
  5  6  1  0
  5 48  1  0
  5 49  1  0
  6 19  1  0
  6  7  1  1
  6  9  1  0
  7  8  1  0
  9 39  1  0
  9 10  1  0
  9 50  1  6
 11 10  1  6
 10 51  1  0
 10 52  1  0
 11 19  1  0
 11 36  1  0
 11 12  1  0
 12 13  1  0
 12 53  1  0
 12 54  1  0
 13 14  1  1
 13 15  1  0
 19 13  1  1
 14 55  1  0
 15 16  2  0
 15 17  1  0
 17 18  1  0
 18 56  1  0
 18 57  1  0
 18 58  1  0
 19 20  1  0
 20 21  1  0
 20 37  1  0
 20 59  1  1
 21 22  1  0
 21 60  1  0
 21 61  1  0
 22 36  2  0
 22 23  1  0
 23 24  2  0
 23 62  1  0
 24 25  1  0
 24 63  1  0
 25 26  1  0
 25 34  2  0
 26 27  1  0
 26 64  1  0
 27 28  1  0
 27 65  1  0
 27 66  1  0
 28 33  1  0
 28 29  2  0
 29 30  1  0
 29 67  1  0
 30 31  2  0
 30 68  1  0
 31 32  1  0
 31 69  1  0
 32 33  2  0
 33 70  1  0
 34 35  1  0
 34 36  1  0
 35 71  1  0
 37 38  1  1
 39 37  1  1
 38 72  1  0
 39 40  2  0
M  END
>  <i_m_ct_stereo_status>  (17) 
1

>  <s_m_source_file>  (17) 
/var/tmp/pbs.5075288.sched01/tmpdioscf2v/0xa7vsnym.sdf

>  <i_m_source_file_index>  (17) 
44

>  <i_lp_mmshare_version>  (17) 
48012

>  <i_f3d_flags>  (17) 
2

>  <s_epik_input>  (17) 
W0NIM11bQ0gyXVtDSDJdW0NAXShbQ0gyXTEpKE9PMilbQ0BAXShbT0hdKShbUytdKFtPLV0pW0NAQEhdM1tDSDJdNClbQ0BIXTVbQ0gyXWMoYzZbQ0BAXTQoW0NAQF01N0MxMjMpW0NIMl1bQ0BAXTcoW09IXSlDKD1PKU9bQ0gzXSlbY0hdW2NIXWMoYzZbT0hdKVtOSF1bQ0gyXWM4W2NIXVtjSF1bY0hdbltjSF04

>  <s_epik_cmdline>  (17) 
J2VwaWtfcHl0aG9uJywgJy1waHQnLCAnMi4wJywgJy1waCcsICc3LjAnLCAnLXRuJywgJzgnLCAnLW1hJywgJzIwMCcsICctaW1hZScsICc8aW5maWxlLm1hZT4nLCAnLW9tYWUnLCAnPG91dGZpbGUubWFlPic=

>  <r_epik_Ionization_Penalty>  (17) 
0.0322717

>  <r_epik_Ionization_Penalty_Charging>  (17) 
0

>  <r_epik_Ionization_Penalty_Neutral>  (17) 
0.0322717

>  <r_epik_State_Penalty>  (17) 
0.0254086

>  <r_epik_Charging_Adjusted_Penalty>  (17) 
0.0254086

>  <i_epik_Tot_Q>  (17) 
0

>  <i_epik_Tot_abs_Q>  (17) 
2

>  <s_epik_Chemistry_Notes>  (17) 
This compound has an ester and may undergo hydrolysis at high or low pH.

>  <s_lp_Force_Field>  (17) 
OPLS3e

>  <r_lp_Energy>  (17) 
195.568

>  <b_lp_Chiralities_Consistent>  (17) 
0

>  <s_lp_Variant>  (17) 
17:0-1

>  <s_i_glide_gridfile>  (17) 
pfpi4k_grid

>  <i_i_glide_lignum>  (17) 
44

>  <i_i_glide_rotatable_bonds>  (17) 
10

>  <r_i_docking_score>  (17) 
-3.66562

>  <r_i_glide_ligand_efficiency>  (17) 
-0.0916405

>  <r_i_glide_ligand_efficiency_sa>  (17) 
-0.313406

>  <r_i_glide_ligand_efficiency_ln>  (17) 
-0.781769

>  <r_i_glide_gscore>  (17) 
-3.66562

>  <r_i_glide_lipo>  (17) 
-1.14131e-05

>  <r_i_glide_hbond>  (17) 
-0.404673

>  <r_i_glide_metal>  (17) 
-0

>  <r_i_glide_rewards>  (17) 
0

>  <r_i_glide_evdw>  (17) 
-26.6638

>  <r_i_glide_ecoul>  (17) 
-13.7782

>  <r_i_glide_erotb>  (17) 
0.233729

>  <r_i_glide_esite>  (17) 
-0.0947459

>  <r_i_glide_emodel>  (17) 
-47.4163

>  <r_i_glide_energy>  (17) 
-40.442

>  <r_i_glide_einternal>  (17) 
5.006

>  <r_i_glide_intrahb_reward>  (17) 
-0

>  <i_i_glide_confnum>  (17) 
2

>  <i_i_glide_posenum>  (17) 
1

>  <r_i_glide_eff_state_penalty>  (17) 
0

>  <ligand_id>  (17) 
17

>  <original_smiles>  (17) 
CCCC12CC3(OO1)C1CC45CC(O)(C(=O)OC)C43C(Cc3ccc(NCc4cccnc4)c(O)c35)C2(O)[S+]1[O-]

>  <smiles>  (17) 
[H]Oc1c(N([H])C([H])([H])c2c([H])nc([H])c([H])c2[H])c([H])c([H])c2c1C13C([H])([H])C(O[H])(C(=O)OC([H])([H])[H])C14C([H])(C2([H])[H])C1(O[H])S(=O)C([H])(C3([H])[H])C42OOC1(C([H])([H])C([H])([H])C([H])([H])[H])C2([H])[H]

$$$$
17:0:1
     RDKit          3D

 72 79  0  0  1  0  0  0  0  0999 V2000
    5.7666   -0.2730    3.5326 C   0  0  0  0  0  0  0  0  0  0  0  0
    5.2969   -0.9753    4.8502 C   0  0  0  0  0  0  0  0  0  0  0  0
    3.7692   -1.1850    5.0319 C   0  0  0  0  0  0  0  0  0  0  0  0
    3.1398   -2.4049    4.2873 C   0  0  2  0  0  0  0  0  0  0  0  0
    3.1454   -2.2839    2.7669 C   0  0  0  0  0  0  0  0  0  0  0  0
    2.4843   -3.5672    2.2253 C   0  0  1  0  0  0  0  0  0  0  0  0
    1.3833   -2.8733    2.9118 O   0  0  0  0  0  0  0  0  0  0  0  0
    1.7764   -2.3584    4.2995 O   0  0  0  0  0  0  0  0  0  0  0  0
    1.5600   -4.6856    2.8432 C   0  0  1  0  0  0  0  0  0  0  0  0
    1.9053   -5.9515    2.0591 C   0  0  0  0  0  0  0  0  0  0  0  0
    3.4144   -5.9578    1.8937 C   0  0  1  0  0  0  0  0  0  0  0  0
    3.9857   -5.7273    0.4814 C   0  0  0  0  0  0  0  0  0  0  0  0
    4.7419   -4.5052    0.9876 C   0  0  1  0  0  0  0  0  0  0  0  0
    6.0960   -4.7849    1.2522 O   0  0  0  0  0  0  0  0  0  0  0  0
    4.7312   -3.2684    0.0612 C   0  0  0  0  0  0  0  0  0  0  0  0
    5.6749   -2.4950   -0.1413 O   0  0  0  0  0  0  0  0  0  0  0  0
    3.5379   -3.0712   -0.5376 O   0  0  0  0  0  0  0  0  0  0  0  0
    3.4073   -2.0036   -1.4693 C   0  0  0  0  0  0  0  0  0  0  0  0
    3.8103   -4.5067    2.2776 C   0  0  1  0  0  0  0  0  0  0  0  0
    4.5364   -4.3559    3.6658 C   0  0  2  0  0  0  0  0  0  0  0  0
    5.3615   -5.5705    4.1277 C   0  0  0  0  0  0  0  0  0  0  0  0
    4.8122   -6.9371    3.7992 C   0  0  0  0  0  0  0  0  0  0  0  0
    5.1967   -8.0145    4.6208 C   0  0  0  0  0  0  0  0  0  0  0  0
    4.7757   -9.3196    4.3197 C   0  0  0  0  0  0  0  0  0  0  0  0
    4.0239   -9.5687    3.1684 C   0  0  0  0  0  0  0  0  0  0  0  0
    3.6505  -10.8907    2.8729 N   0  0  0  0  0  0  0  0  0  0  0  0
    2.4175  -11.4155    3.4433 C   0  0  0  0  0  0  0  0  0  0  0  0
    1.2628  -10.4406    3.6392 C   0  0  0  0  0  0  0  0  0  0  0  0
    0.2687  -10.2402    2.6572 C   0  0  0  0  0  0  0  0  0  0  0  0
   -0.7344   -9.2779    2.8887 C   0  0  0  0  0  0  0  0  0  0  0  0
   -0.7126   -8.5784    4.1109 C   0  0  0  0  0  0  0  0  0  0  0  0
    0.2140   -8.7748    5.0697 N   0  0  0  0  0  0  0  0  0  0  0  0
    1.1645   -9.7089    4.8406 C   0  0  0  0  0  0  0  0  0  0  0  0
    3.6204   -8.4907    2.3611 C   0  0  0  0  0  0  0  0  0  0  0  0
    2.8393   -8.7587    1.2852 O   0  0  0  0  0  0  0  0  0  0  0  0
    3.9706   -7.1521    2.6870 C   0  0  0  0  0  0  0  0  0  0  0  0
    3.5493   -3.8421    4.7381 C   0  0  1  0  0  0  0  0  0  0  0  0
    4.1304   -3.7761    6.0385 O   0  0  0  0  0  0  0  0  0  0  0  0
    2.0876   -5.0201    4.6050 S   0  0  0  0  0  0  0  0  0  0  0  0
    0.9439   -4.5134    5.4944 O   0  0  0  0  0  0  0  0  0  0  0  0
    6.8292   -0.0334    3.5674 H   0  0  0  0  0  0  0  0  0  0  0  0
    5.2089    0.6595    3.4006 H   0  0  0  0  0  0  0  0  0  0  0  0
    5.6347   -0.8649    2.5917 H   0  0  0  0  0  0  0  0  0  0  0  0
    5.8146   -1.9104    5.0211 H   0  0  0  0  0  0  0  0  0  0  0  0
    5.6133   -0.3505    5.6620 H   0  0  0  0  0  0  0  0  0  0  0  0
    3.5731   -1.3117    6.1060 H   0  0  0  0  0  0  0  0  0  0  0  0
    3.2313   -0.2583    4.8055 H   0  0  0  0  0  0  0  0  0  0  0  0
    2.6740   -1.3482    2.4278 H   0  0  0  0  0  0  0  0  0  0  0  0
    4.1626   -2.2124    2.3407 H   0  0  0  0  0  0  0  0  0  0  0  0
    0.4578   -4.6248    2.7691 H   0  0  0  0  0  0  0  0  0  0  0  0
    1.4978   -6.8487    2.5388 H   0  0  0  0  0  0  0  0  0  0  0  0
    1.4312   -5.8806    1.0790 H   0  0  0  0  0  0  0  0  0  0  0  0
    4.6234   -6.5316    0.1271 H   0  0  0  0  0  0  0  0  0  0  0  0
    3.2230   -5.4751   -0.2478 H   0  0  0  0  0  0  0  0  0  0  0  0
    6.1025   -5.5823    1.7600 H   0  0  0  0  0  0  0  0  0  0  0  0
    2.4161   -2.0054   -1.9097 H   0  0  0  0  0  0  0  0  0  0  0  0
    4.1145   -2.1150   -2.2880 H   0  0  0  0  0  0  0  0  0  0  0  0
    3.5800   -1.0327   -1.0049 H   0  0  0  0  0  0  0  0  0  0  0  0
    5.2974   -3.5803    3.5903 H   0  0  0  0  0  0  0  0  0  0  0  0
    6.3203   -5.5314    3.6172 H   0  0  0  0  0  0  0  0  0  0  0  0
    5.6342   -5.5153    5.1837 H   0  0  0  0  0  0  0  0  0  0  0  0
    5.8339   -7.8397    5.4726 H   0  0  0  0  0  0  0  0  0  0  0  0
    5.0459  -10.1428    4.9574 H   0  0  0  0  0  0  0  0  0  0  0  0
    3.8691  -11.2756    1.9413 H   0  0  0  0  0  0  0  0  0  0  0  0
    2.0661  -12.1815    2.7601 H   0  0  0  0  0  0  0  0  0  0  0  0
    2.6191  -11.9397    4.3821 H   0  0  0  0  0  0  0  0  0  0  0  0
    0.2582  -10.7842    1.7275 H   0  0  0  0  0  0  0  0  0  0  0  0
   -1.5044   -9.0885    2.1559 H   0  0  0  0  0  0  0  0  0  0  0  0
   -1.4759   -7.8524    4.3557 H   0  0  0  0  0  0  0  0  0  0  0  0
    1.9019   -9.8376    5.6188 H   0  0  0  0  0  0  0  0  0  0  0  0
    2.7369   -9.6942    1.2119 H   0  0  0  0  0  0  0  0  0  0  0  0
    5.0663   -3.9012    5.9911 H   0  0  0  0  0  0  0  0  0  0  0  0
  1  2  1  0
  1 41  1  0
  1 42  1  0
  1 43  1  0
  2  3  1  0
  2 44  1  0
  2 45  1  0
  4  3  1  1
  3 46  1  0
  3 47  1  0
  4  8  1  0
  4 37  1  0
  4  5  1  0
  5  6  1  0
  5 48  1  0
  5 49  1  0
  6 19  1  0
  6  7  1  1
  6  9  1  0
  7  8  1  0
  9 39  1  0
  9 10  1  0
  9 50  1  1
 11 10  1  6
 10 51  1  0
 10 52  1  0
 11 19  1  0
 11 36  1  0
 11 12  1  0
 12 13  1  0
 12 53  1  0
 12 54  1  0
 13 14  1  1
 13 15  1  0
 19 13  1  6
 14 55  1  0
 15 16  2  0
 15 17  1  0
 17 18  1  0
 18 56  1  0
 18 57  1  0
 18 58  1  0
 19 20  1  0
 20 21  1  0
 20 37  1  0
 20 59  1  6
 21 22  1  0
 21 60  1  0
 21 61  1  0
 22 36  2  0
 22 23  1  0
 23 24  2  0
 23 62  1  0
 24 25  1  0
 24 63  1  0
 25 26  1  0
 25 34  2  0
 26 27  1  0
 26 64  1  0
 27 28  1  0
 27 65  1  0
 27 66  1  0
 28 33  1  0
 28 29  2  0
 29 30  1  0
 29 67  1  0
 30 31  2  0
 30 68  1  0
 31 32  1  0
 31 69  1  0
 32 33  2  0
 33 70  1  0
 34 35  1  0
 34 36  1  0
 35 71  1  0
 37 38  1  1
 39 37  1  1
 38 72  1  0
 39 40  2  0
M  END
>  <i_m_ct_stereo_status>  (18) 
1

>  <s_m_source_file>  (18) 
/var/tmp/pbs.5075288.sched01/tmpdioscf2v/0xa7vsnym.sdf

>  <i_m_source_file_index>  (18) 
44

>  <i_lp_mmshare_version>  (18) 
48012

>  <i_f3d_flags>  (18) 
2

>  <s_epik_input>  (18) 
W0NIM11bQ0gyXVtDSDJdW0NAXShbQ0gyXTEpKE9PMilbQ0BAXShbT0hdKShbUytdKFtPLV0pW0NAQEhdM1tDSDJdNClbQ0BIXTVbQ0gyXWMoYzZbQ0BAXTQoW0NAQF01N0MxMjMpW0NIMl1bQ0BAXTcoW09IXSlDKD1PKU9bQ0gzXSlbY0hdW2NIXWMoYzZbT0hdKVtOSF1bQ0gyXWM4W2NIXVtjSF1bY0hdbltjSF04

>  <s_epik_cmdline>  (18) 
J2VwaWtfcHl0aG9uJywgJy1waHQnLCAnMi4wJywgJy1waCcsICc3LjAnLCAnLXRuJywgJzgnLCAnLW1hJywgJzIwMCcsICctaW1hZScsICc8aW5maWxlLm1hZT4nLCAnLW9tYWUnLCAnPG91dGZpbGUubWFlPic=

>  <r_epik_Ionization_Penalty>  (18) 
0.0322717

>  <r_epik_Ionization_Penalty_Charging>  (18) 
0

>  <r_epik_Ionization_Penalty_Neutral>  (18) 
0.0322717

>  <r_epik_State_Penalty>  (18) 
0.0254086

>  <r_epik_Charging_Adjusted_Penalty>  (18) 
0.0254086

>  <i_epik_Tot_Q>  (18) 
0

>  <i_epik_Tot_abs_Q>  (18) 
2

>  <s_epik_Chemistry_Notes>  (18) 
This compound has an ester and may undergo hydrolysis at high or low pH.

>  <s_lp_Force_Field>  (18) 
OPLS3e

>  <r_lp_Energy>  (18) 
195.568

>  <b_lp_Chiralities_Consistent>  (18) 
0

>  <s_lp_Variant>  (18) 
17:0-1

>  <s_i_glide_gridfile>  (18) 
pfpi4k_grid

>  <i_i_glide_lignum>  (18) 
44

>  <i_i_glide_rotatable_bonds>  (18) 
10

>  <r_i_docking_score>  (18) 
-2.81076

>  <r_i_glide_ligand_efficiency>  (18) 
-0.070269

>  <r_i_glide_ligand_efficiency_sa>  (18) 
-0.240317

>  <r_i_glide_ligand_efficiency_ln>  (18) 
-0.599453

>  <r_i_glide_gscore>  (18) 
-2.81076

>  <r_i_glide_lipo>  (18) 
-0.547233

>  <r_i_glide_hbond>  (18) 
-0.16

>  <r_i_glide_metal>  (18) 
-0

>  <r_i_glide_rewards>  (18) 
-0.0429198

>  <r_i_glide_evdw>  (18) 
-30.323

>  <r_i_glide_ecoul>  (18) 
-4.70798

>  <r_i_glide_erotb>  (18) 
0.233729

>  <r_i_glide_esite>  (18) 
-0.0719909

>  <r_i_glide_emodel>  (18) 
-38.309

>  <r_i_glide_energy>  (18) 
-35.031

>  <r_i_glide_einternal>  (18) 
8.90161

>  <r_i_glide_intrahb_reward>  (18) 
-0

>  <i_i_glide_confnum>  (18) 
3

>  <i_i_glide_posenum>  (18) 
9

>  <r_i_glide_eff_state_penalty>  (18) 
0

>  <ligand_id>  (18) 
17

>  <original_smiles>  (18) 
CCCC12CC3(OO1)C1CC45CC(O)(C(=O)OC)C43C(Cc3ccc(NCc4cccnc4)c(O)c35)C2(O)[S+]1[O-]

>  <smiles>  (18) 
[H]Oc1c(N([H])C([H])([H])c2c([H])nc([H])c([H])c2[H])c([H])c([H])c2c1C13C([H])([H])C(O[H])(C(=O)OC([H])([H])[H])C14C([H])(C2([H])[H])C1(O[H])S(=O)C([H])(C3([H])[H])C42OOC1(C([H])([H])C([H])([H])C([H])([H])[H])C2([H])[H]

$$$$
17:0:2
     RDKit          3D

 72 79  0  0  1  0  0  0  0  0999 V2000
   -0.7483    3.4771   10.4877 C   0  0  0  0  0  0  0  0  0  0  0  0
   -0.3532    3.1872    9.0341 C   0  0  0  0  0  0  0  0  0  0  0  0
   -1.5547    2.7329    8.1752 C   0  0  0  0  0  0  0  0  0  0  0  0
   -1.2110    2.3436    6.7187 C   0  0  2  0  0  0  0  0  0  0  0  0
   -0.8632    3.5346    5.8526 C   0  0  0  0  0  0  0  0  0  0  0  0
   -0.5740    2.9544    4.4292 C   0  0  1  0  0  0  0  0  0  0  0  0
   -2.0006    2.6582    4.5929 O   0  0  0  0  0  0  0  0  0  0  0  0
   -2.3491    2.1348    5.9672 O   0  0  0  0  0  0  0  0  0  0  0  0
   -0.8802    1.5504    3.7082 C   0  0  1  0  0  0  0  0  0  0  0  0
    0.2466    1.3160    2.7144 C   0  0  0  0  0  0  0  0  0  0  0  0
    1.5092    1.7469    3.4367 C   0  0  1  0  0  0  0  0  0  0  0  0
    2.2092    3.0213    2.9534 C   0  0  0  0  0  0  0  0  0  0  0  0
    2.0416    3.6550    4.3262 C   0  0  1  0  0  0  0  0  0  0  0  0
    3.2252    3.5932    5.0998 O   0  0  0  0  0  0  0  0  0  0  0  0
    1.6174    5.1558    4.2524 C   0  0  0  0  0  0  0  0  0  0  0  0
    0.4807    5.6202    4.3076 O   0  0  0  0  0  0  0  0  0  0  0  0
    2.6784    5.9672    4.1215 O   0  0  0  0  0  0  0  0  0  0  0  0
    2.4673    7.3797    4.1116 C   0  0  0  0  0  0  0  0  0  0  0  0
    0.9695    2.5321    4.6685 C   0  0  1  0  0  0  0  0  0  0  0  0
    1.1232    1.7895    6.0503 C   0  0  2  0  0  0  0  0  0  0  0  0
    2.3217    0.8474    6.1732 C   0  0  0  0  0  0  0  0  0  0  0  0
    2.6925    0.0449    4.9376 C   0  0  0  0  0  0  0  0  0  0  0  0
    3.3943   -1.1643    5.1414 C   0  0  0  0  0  0  0  0  0  0  0  0
    3.8562   -1.9049    4.0469 C   0  0  0  0  0  0  0  0  0  0  0  0
    3.6373   -1.4524    2.7366 C   0  0  0  0  0  0  0  0  0  0  0  0
    4.1413   -2.2510    1.6999 N   0  0  0  0  0  0  0  0  0  0  0  0
    3.1926   -3.0176    0.8881 C   0  0  0  0  0  0  0  0  0  0  0  0
    2.6237   -4.2635    1.5598 C   0  0  0  0  0  0  0  0  0  0  0  0
    2.7797   -5.5384    0.9780 C   0  0  0  0  0  0  0  0  0  0  0  0
    2.2807   -6.6600    1.6639 C   0  0  0  0  0  0  0  0  0  0  0  0
    1.6442   -6.4655    2.9073 C   0  0  0  0  0  0  0  0  0  0  0  0
    1.4366   -5.2477    3.4475 N   0  0  0  0  0  0  0  0  0  0  0  0
    1.9182   -4.1804    2.7825 C   0  0  0  0  0  0  0  0  0  0  0  0
    2.9120   -0.2415    2.5412 C   0  0  0  0  0  0  0  0  0  0  0  0
    2.7092    0.1872    1.2575 O   0  0  0  0  0  0  0  0  0  0  0  0
    2.3987    0.5018    3.6402 C   0  0  0  0  0  0  0  0  0  0  0  0
   -0.2266    1.1566    6.4644 C   0  0  1  0  0  0  0  0  0  0  0  0
   -0.1509    0.3681    7.6455 O   0  0  0  0  0  0  0  0  0  0  0  0
   -0.7572    0.1569    4.9647 S   0  0  0  0  0  0  0  0  0  0  0  0
   -2.1482   -0.4451    5.2393 O   0  0  0  0  0  0  0  0  0  0  0  0
    0.1192    3.7808   11.0805 H   0  0  0  0  0  0  0  0  0  0  0  0
   -1.1770    2.5953   10.9703 H   0  0  0  0  0  0  0  0  0  0  0  0
   -1.4860    4.2795   10.5485 H   0  0  0  0  0  0  0  0  0  0  0  0
    0.1146    4.0781    8.6104 H   0  0  0  0  0  0  0  0  0  0  0  0
    0.4272    2.4286    9.0531 H   0  0  0  0  0  0  0  0  0  0  0  0
   -2.0455    1.8912    8.6584 H   0  0  0  0  0  0  0  0  0  0  0  0
   -2.2952    3.5351    8.1725 H   0  0  0  0  0  0  0  0  0  0  0  0
   -1.6459    4.2979    5.8416 H   0  0  0  0  0  0  0  0  0  0  0  0
   -0.0172    4.0607    6.2964 H   0  0  0  0  0  0  0  0  0  0  0  0
   -1.7744    1.4145    3.0542 H   0  0  0  0  0  0  0  0  0  0  0  0
    0.2634    0.2823    2.3434 H   0  0  0  0  0  0  0  0  0  0  0  0
    0.0759    1.9431    1.8438 H   0  0  0  0  0  0  0  0  0  0  0  0
    3.2444    2.8762    2.6475 H   0  0  0  0  0  0  0  0  0  0  0  0
    1.6559    3.5596    2.1865 H   0  0  0  0  0  0  0  0  0  0  0  0
    3.5493    2.7084    4.9786 H   0  0  0  0  0  0  0  0  0  0  0  0
    3.4217    7.9070    4.0108 H   0  0  0  0  0  0  0  0  0  0  0  0
    1.9818    7.7166    5.0360 H   0  0  0  0  0  0  0  0  0  0  0  0
    1.8183    7.6529    3.2758 H   0  0  0  0  0  0  0  0  0  0  0  0
    1.3537    2.5228    6.8213 H   0  0  0  0  0  0  0  0  0  0  0  0
    3.2081    1.4402    6.3761 H   0  0  0  0  0  0  0  0  0  0  0  0
    2.2467    0.1916    7.0395 H   0  0  0  0  0  0  0  0  0  0  0  0
    3.5780   -1.5236    6.1543 H   0  0  0  0  0  0  0  0  0  0  0  0
    4.3600   -2.8508    4.2122 H   0  0  0  0  0  0  0  0  0  0  0  0
    4.8965   -1.8418    1.1642 H   0  0  0  0  0  0  0  0  0  0  0  0
    2.3769   -2.3930    0.5289 H   0  0  0  0  0  0  0  0  0  0  0  0
    3.7252   -3.3327   -0.0059 H   0  0  0  0  0  0  0  0  0  0  0  0
    3.2824   -5.6667    0.0185 H   0  0  0  0  0  0  0  0  0  0  0  0
    2.3922   -7.6658    1.2748 H   0  0  0  0  0  0  0  0  0  0  0  0
    1.2648   -7.2919    3.4856 H   0  0  0  0  0  0  0  0  0  0  0  0
    1.6996   -3.2343    3.2475 H   0  0  0  0  0  0  0  0  0  0  0  0
    2.0343    0.8526    1.1935 H   0  0  0  0  0  0  0  0  0  0  0  0
    0.6587    0.5807    8.1056 H   0  0  0  0  0  0  0  0  0  0  0  0
  1  2  1  0
  1 41  1  0
  1 42  1  0
  1 43  1  0
  2  3  1  0
  2 44  1  0
  2 45  1  0
  4  3  1  1
  3 46  1  0
  3 47  1  0
  4  8  1  0
  4 37  1  0
  4  5  1  0
  5  6  1  0
  5 48  1  0
  5 49  1  0
  6 19  1  0
  6  7  1  1
  6  9  1  0
  7  8  1  0
  9 39  1  0
  9 10  1  0
  9 50  1  6
 11 10  1  6
 10 51  1  0
 10 52  1  0
 11 19  1  0
 11 36  1  0
 11 12  1  0
 12 13  1  0
 12 53  1  0
 12 54  1  0
 13 14  1  1
 13 15  1  0
 19 13  1  1
 14 55  1  0
 15 16  2  0
 15 17  1  0
 17 18  1  0
 18 56  1  0
 18 57  1  0
 18 58  1  0
 19 20  1  0
 20 21  1  0
 20 37  1  0
 20 59  1  1
 21 22  1  0
 21 60  1  0
 21 61  1  0
 22 36  2  0
 22 23  1  0
 23 24  2  0
 23 62  1  0
 24 25  1  0
 24 63  1  0
 25 26  1  0
 25 34  2  0
 26 27  1  0
 26 64  1  0
 27 28  1  0
 27 65  1  0
 27 66  1  0
 28 33  1  0
 28 29  2  0
 29 30  1  0
 29 67  1  0
 30 31  2  0
 30 68  1  0
 31 32  1  0
 31 69  1  0
 32 33  2  0
 33 70  1  0
 34 35  1  0
 34 36  1  0
 35 71  1  0
 37 38  1  1
 39 37  1  1
 38 72  1  0
 39 40  2  0
M  END
>  <i_m_ct_stereo_status>  (19) 
1

>  <s_m_source_file>  (19) 
/var/tmp/pbs.5075288.sched01/tmpdioscf2v/0xa7vsnym.sdf

>  <i_m_source_file_index>  (19) 
44

>  <i_lp_mmshare_version>  (19) 
48012

>  <i_f3d_flags>  (19) 
2

>  <s_epik_input>  (19) 
W0NIM11bQ0gyXVtDSDJdW0NAXShbQ0gyXTEpKE9PMilbQ0BAXShbT0hdKShbUytdKFtPLV0pW0NAQEhdM1tDSDJdNClbQ0BIXTVbQ0gyXWMoYzZbQ0BAXTQoW0NAQF01N0MxMjMpW0NIMl1bQ0BAXTcoW09IXSlDKD1PKU9bQ0gzXSlbY0hdW2NIXWMoYzZbT0hdKVtOSF1bQ0gyXWM4W2NIXVtjSF1bY0hdbltjSF04

>  <s_epik_cmdline>  (19) 
J2VwaWtfcHl0aG9uJywgJy1waHQnLCAnMi4wJywgJy1waCcsICc3LjAnLCAnLXRuJywgJzgnLCAnLW1hJywgJzIwMCcsICctaW1hZScsICc8aW5maWxlLm1hZT4nLCAnLW9tYWUnLCAnPG91dGZpbGUubWFlPic=

>  <r_epik_Ionization_Penalty>  (19) 
0.0322717

>  <r_epik_Ionization_Penalty_Charging>  (19) 
0

>  <r_epik_Ionization_Penalty_Neutral>  (19) 
0.0322717

>  <r_epik_State_Penalty>  (19) 
0.0254086

>  <r_epik_Charging_Adjusted_Penalty>  (19) 
0.0254086

>  <i_epik_Tot_Q>  (19) 
0

>  <i_epik_Tot_abs_Q>  (19) 
2

>  <s_epik_Chemistry_Notes>  (19) 
This compound has an ester and may undergo hydrolysis at high or low pH.

>  <s_lp_Force_Field>  (19) 
OPLS3e

>  <r_lp_Energy>  (19) 
195.568

>  <b_lp_Chiralities_Consistent>  (19) 
0

>  <s_lp_Variant>  (19) 
17:0-1

>  <s_i_glide_gridfile>  (19) 
pfpi4k_grid

>  <i_i_glide_lignum>  (19) 
44

>  <i_i_glide_rotatable_bonds>  (19) 
10

>  <r_i_docking_score>  (19) 
-2.25555

>  <r_i_glide_ligand_efficiency>  (19) 
-0.0563886

>  <r_i_glide_ligand_efficiency_sa>  (19) 
-0.192846

>  <r_i_glide_ligand_efficiency_ln>  (19) 
-0.481042

>  <r_i_glide_gscore>  (19) 
-2.25555

>  <r_i_glide_lipo>  (19) 
-9.0851e-05

>  <r_i_glide_hbond>  (19) 
0

>  <r_i_glide_metal>  (19) 
-0

>  <r_i_glide_rewards>  (19) 
0

>  <r_i_glide_evdw>  (19) 
-31.533

>  <r_i_glide_ecoul>  (19) 
-5.73798

>  <r_i_glide_erotb>  (19) 
0.233729

>  <r_i_glide_esite>  (19) 
-0.0518387

>  <r_i_glide_emodel>  (19) 
-37.7117

>  <r_i_glide_energy>  (19) 
-37.2709

>  <r_i_glide_einternal>  (19) 
12.2144

>  <r_i_glide_intrahb_reward>  (19) 
-0

>  <i_i_glide_confnum>  (19) 
2

>  <i_i_glide_posenum>  (19) 
17

>  <r_i_glide_eff_state_penalty>  (19) 
0

>  <ligand_id>  (19) 
17

>  <original_smiles>  (19) 
CCCC12CC3(OO1)C1CC45CC(O)(C(=O)OC)C43C(Cc3ccc(NCc4cccnc4)c(O)c35)C2(O)[S+]1[O-]

>  <smiles>  (19) 
[H]Oc1c(N([H])C([H])([H])c2c([H])nc([H])c([H])c2[H])c([H])c([H])c2c1C13C([H])([H])C(O[H])(C(=O)OC([H])([H])[H])C14C([H])(C2([H])[H])C1(O[H])S(=O)C([H])(C3([H])[H])C42OOC1(C([H])([H])C([H])([H])C([H])([H])[H])C2([H])[H]

$$$$
22:1:0
     RDKit          3D

138145  0  0  1  0  0  0  0  0999 V2000
    6.7712   -1.7021    6.9338 C   0  0  0  0  0  0  0  0  0  0  0  0
    6.2225   -0.4615    6.8879 C   0  0  0  0  0  0  0  0  0  0  0  0
    5.5233    0.4340    7.8735 C   0  0  2  0  0  0  0  0  0  0  0  0
    5.0022   -0.2538    9.1101 C   0  0  1  0  0  0  0  0  0  0  0  0
    6.1565   -0.2283    9.9506 O   0  0  0  0  0  0  0  0  0  0  0  0
    6.9787   -1.3092   10.2018 C   0  0  0  0  0  0  0  0  0  0  0  0
    6.3042   -2.6946   10.1842 C   0  0  0  0  0  0  0  0  0  0  0  0
    8.1867   -1.2104   10.4514 O   0  0  0  0  0  0  0  0  0  0  0  0
    3.6076    0.1663    9.7946 C   0  0  1  0  0  0  0  0  0  0  0  0
    3.8097    0.0958   11.2548 O   0  0  0  0  0  0  0  0  0  0  0  0
    4.5998    0.8606   12.0738 C   0  0  0  0  0  0  0  0  0  0  0  0
    4.4570    0.4616   13.5369 C   0  0  0  0  0  0  0  0  0  0  0  0
    5.3335    1.7822   11.7237 O   0  0  0  0  0  0  0  0  0  0  0  0
    2.9484    1.6718    9.4708 C   0  0  2  0  0  0  0  0  0  0  0  0
    1.7346    2.0078   10.5040 C   0  0  0  0  0  0  0  0  0  0  0  0
    2.0764    2.6832   11.4841 O   0  0  0  0  0  0  0  0  0  0  0  0
    0.2360    1.6212   10.5302 C   0  0  0  0  0  0  0  0  0  0  0  0
   -0.1575    1.0372   11.8859 C   0  0  0  0  0  0  0  0  0  0  0  0
   -0.8622    2.0350    9.7932 C   0  0  0  0  0  0  0  0  0  0  0  0
   -1.1530    2.9433    8.5489 C   0  0  1  0  0  0  0  0  0  0  0  0
   -2.2368    3.9912    8.8827 C   0  0  0  0  0  0  0  0  0  0  0  0
    0.1357    3.5080    7.8917 C   0  0  2  0  0  0  0  0  0  0  0  0
    0.7286    4.2982    9.1610 C   0  0  0  0  0  0  0  0  0  0  0  0
    2.1020    4.4468    9.3160 O   0  0  0  0  0  0  0  0  0  0  0  0
    2.8632    4.3568    8.1668 C   0  0  2  0  0  0  0  0  0  0  0  0
    3.8201    5.5374    8.5636 C   0  0  0  0  0  0  0  0  0  0  0  0
    1.9365    4.9902    6.9435 C   0  0  1  0  0  0  0  0  0  0  0  0
    2.5998    5.1928    5.7250 O   0  0  0  0  0  0  0  0  0  0  0  0
    0.3378    4.7027    6.8787 C   0  0  2  0  0  0  0  0  0  0  0  0
   -0.3836    5.8963    7.1813 O   0  0  0  0  0  0  0  0  0  0  0  0
   -0.4742    4.3758    5.6051 C   0  0  2  0  0  0  0  0  0  0  0  0
    0.2822    3.3821    4.7322 C   0  0  2  0  0  0  0  0  0  0  0  0
   -0.4466    4.5828    4.1295 C   0  0  0  0  0  0  0  0  0  0  0  0
   -1.6814    4.2969    3.2801 C   0  0  0  0  0  0  0  0  0  0  0  0
    0.2855    5.7923    3.5748 C   0  0  0  0  0  0  0  0  0  0  0  0
   -0.0622    2.1113    5.5057 C   0  0  1  0  0  0  0  0  0  0  0  0
   -1.5267    1.5963    5.3962 C   0  0  0  0  0  0  0  0  0  0  0  0
    0.5970    1.1604    4.7287 O   0  0  0  0  0  0  0  0  0  0  0  0
    0.6467    2.2644    6.9408 C   0  0  2  0  0  0  0  0  0  0  0  0
    0.8155    0.5767    7.7051 S   0  0  0  0  0  0  0  0  0  0  0  0
   -0.5802    0.0314    7.7968 O   0  0  0  0  0  0  0  0  0  0  0  0
    2.0905   -0.6248    6.9410 C   0  0  2  0  0  0  0  0  0  0  0  0
    1.4800   -1.4023    5.8848 O   0  0  0  0  0  0  0  0  0  0  0  0
    0.3299   -2.1252    5.8378 C   0  0  0  0  0  0  0  0  0  0  0  0
    0.1144   -2.7892    4.4953 C   0  0  0  0  0  0  0  0  0  0  0  0
   -0.4770   -2.3375    6.7672 O   0  0  0  0  0  0  0  0  0  0  0  0
    2.4261   -1.6697    8.0812 C   0  0  1  0  0  0  0  0  0  0  0  0
    3.4696   -2.5276    7.5752 O   0  0  0  0  0  0  0  0  0  0  0  0
    3.3587   -3.8454    7.1960 C   0  0  0  0  0  0  0  0  0  0  0  0
    1.9292   -4.4329    7.2823 C   0  0  0  0  0  0  0  0  0  0  0  0
    4.2955   -4.4383    6.6859 O   0  0  0  0  0  0  0  0  0  0  0  0
    2.6744   -1.1778    9.5986 C   0  0  1  0  0  0  0  0  0  0  0  0
    3.4519   -2.2668   10.0734 O   0  0  0  0  0  0  0  0  0  0  0  0
    1.4541   -1.4379   10.5494 C   0  0  0  0  0  0  0  0  0  0  0  0
    0.2131   -1.7417   10.1253 C   0  0  0  0  0  0  0  0  0  0  0  0
    1.6744   -1.5266   12.0761 C   0  0  0  0  0  0  0  0  0  0  0  0
    3.4070   -0.0749    6.1364 C   0  0  1  0  0  0  0  0  0  0  0  0
    3.0976    0.3118    4.7741 O   0  0  0  0  0  0  0  0  0  0  0  0
    3.0718   -0.5171    3.6838 C   0  0  0  0  0  0  0  0  0  0  0  0
    2.7436    0.2382    2.4052 C   0  0  0  0  0  0  0  0  0  0  0  0
    3.2666   -1.7321    3.6814 O   0  0  0  0  0  0  0  0  0  0  0  0
    4.6629    0.8669    6.6543 C   0  0  2  0  0  0  0  0  0  0  0  0
    6.0625    0.5635    5.8135 C   0  0  0  0  0  0  0  0  0  0  0  0
    7.3936    1.3895    5.8464 C   0  0  0  0  0  0  0  0  0  0  0  0
    6.0223   -0.0249    4.3978 C   0  0  0  0  0  0  0  0  0  0  0  0
    4.2125    2.3786    6.8658 C   0  0  1  0  0  0  0  0  0  0  0  0
    5.3233    3.4070    6.4669 C   0  0  0  0  0  0  0  0  0  0  0  0
    3.5112    2.6765    5.6865 O   0  0  0  0  0  0  0  0  0  0  0  0
    3.5236    2.8145    8.2969 C   0  0  2  0  0  0  0  0  0  0  0  0
    4.7412    3.1327    8.9765 O   0  0  0  0  0  0  0  0  0  0  0  0
    7.2098   -2.1320    6.0819 H   0  0  0  0  0  0  0  0  0  0  0  0
    6.7910   -2.2896    7.8321 H   0  0  0  0  0  0  0  0  0  0  0  0
    6.1471    1.2835    8.1955 H   0  0  0  0  0  0  0  0  0  0  0  0
    4.9636   -1.2939    8.8076 H   0  0  0  0  0  0  0  0  0  0  0  0
    5.7574   -2.8504    9.2323 H   0  0  0  0  0  0  0  0  0  0  0  0
    5.6590   -2.7886   11.0745 H   0  0  0  0  0  0  0  0  0  0  0  0
    7.0852   -3.4633   10.2688 H   0  0  0  0  0  0  0  0  0  0  0  0
    4.5607   -0.6161   13.6472 H   0  0  0  0  0  0  0  0  0  0  0  0
    3.4843    0.7607   13.9291 H   0  0  0  0  0  0  0  0  0  0  0  0
    5.2290    0.9414   14.1312 H   0  0  0  0  0  0  0  0  0  0  0  0
    3.5828    2.0946   10.2214 H   0  0  0  0  0  0  0  0  0  0  0  0
    0.6033    1.1125   12.6589 H   0  0  0  0  0  0  0  0  0  0  0  0
   -0.5576    0.0251   11.8435 H   0  0  0  0  0  0  0  0  0  0  0  0
   -0.9593    1.6579   12.2900 H   0  0  0  0  0  0  0  0  0  0  0  0
   -1.8160    1.7128   10.1926 H   0  0  0  0  0  0  0  0  0  0  0  0
   -1.6532    2.2742    7.8561 H   0  0  0  0  0  0  0  0  0  0  0  0
   -3.1540    3.5076    9.2210 H   0  0  0  0  0  0  0  0  0  0  0  0
   -2.5008    4.5839    8.0084 H   0  0  0  0  0  0  0  0  0  0  0  0
   -1.9257    4.6739    9.6735 H   0  0  0  0  0  0  0  0  0  0  0  0
    0.3905    5.3239    9.2201 H   0  0  0  0  0  0  0  0  0  0  0  0
    0.3169    4.0824   10.1366 H   0  0  0  0  0  0  0  0  0  0  0  0
    4.5608    5.8079    7.8189 H   0  0  0  0  0  0  0  0  0  0  0  0
    4.3393    5.3754    9.5066 H   0  0  0  0  0  0  0  0  0  0  0  0
    3.2546    6.4451    8.7466 H   0  0  0  0  0  0  0  0  0  0  0  0
    1.8939    6.0483    7.2069 H   0  0  0  0  0  0  0  0  0  0  0  0
    3.3858    5.6930    5.9108 H   0  0  0  0  0  0  0  0  0  0  0  0
   -0.0466    6.2580    7.9992 H   0  0  0  0  0  0  0  0  0  0  0  0
   -1.5017    4.2029    5.9047 H   0  0  0  0  0  0  0  0  0  0  0  0
    1.3497    3.4538    4.5749 H   0  0  0  0  0  0  0  0  0  0  0  0
   -1.3518    3.9282    2.3113 H   0  0  0  0  0  0  0  0  0  0  0  0
   -2.2966    5.1875    3.1263 H   0  0  0  0  0  0  0  0  0  0  0  0
   -2.2988    3.5311    3.7387 H   0  0  0  0  0  0  0  0  0  0  0  0
   -0.4304    6.5811    3.3620 H   0  0  0  0  0  0  0  0  0  0  0  0
    0.8017    5.5464    2.6486 H   0  0  0  0  0  0  0  0  0  0  0  0
    0.9980    6.2021    4.2779 H   0  0  0  0  0  0  0  0  0  0  0  0
   -2.2663    2.2589    5.8462 H   0  0  0  0  0  0  0  0  0  0  0  0
   -1.6602    0.6055    5.8254 H   0  0  0  0  0  0  0  0  0  0  0  0
   -1.8113    1.4909    4.3448 H   0  0  0  0  0  0  0  0  0  0  0  0
    0.4763    0.2802    5.0781 H   0  0  0  0  0  0  0  0  0  0  0  0
    1.6470    2.4814    6.7747 H   0  0  0  0  0  0  0  0  0  0  0  0
    0.0337   -2.0790    3.6525 H   0  0  0  0  0  0  0  0  0  0  0  0
   -0.7878   -3.3973    4.5287 H   0  0  0  0  0  0  0  0  0  0  0  0
    0.9617   -3.4605    4.3352 H   0  0  0  0  0  0  0  0  0  0  0  0
    1.5770   -2.3471    8.1230 H   0  0  0  0  0  0  0  0  0  0  0  0
    1.3598   -3.9415    6.5056 H   0  0  0  0  0  0  0  0  0  0  0  0
    1.5029   -4.2918    8.2710 H   0  0  0  0  0  0  0  0  0  0  0  0
    1.9340   -5.5066    7.0563 H   0  0  0  0  0  0  0  0  0  0  0  0
    3.6590   -2.1023   10.9851 H   0  0  0  0  0  0  0  0  0  0  0  0
   -0.0751   -1.8069    9.0977 H   0  0  0  0  0  0  0  0  0  0  0  0
   -0.5664   -1.9720   10.8369 H   0  0  0  0  0  0  0  0  0  0  0  0
    2.4699   -2.2160   12.3645 H   0  0  0  0  0  0  0  0  0  0  0  0
    0.7816   -1.9000   12.5818 H   0  0  0  0  0  0  0  0  0  0  0  0
    1.8928   -0.5671   12.5304 H   0  0  0  0  0  0  0  0  0  0  0  0
    3.9135   -1.0101    5.9363 H   0  0  0  0  0  0  0  0  0  0  0  0
    2.7818    1.3142    2.5786 H   0  0  0  0  0  0  0  0  0  0  0  0
    1.7458   -0.0222    2.0495 H   0  0  0  0  0  0  0  0  0  0  0  0
    3.4634   -0.0088    1.6274 H   0  0  0  0  0  0  0  0  0  0  0  0
    7.4139    2.1831    5.0922 H   0  0  0  0  0  0  0  0  0  0  0  0
    8.2284    0.7000    5.6591 H   0  0  0  0  0  0  0  0  0  0  0  0
    7.6269    1.8463    6.8067 H   0  0  0  0  0  0  0  0  0  0  0  0
    5.5164    0.6357    3.7022 H   0  0  0  0  0  0  0  0  0  0  0  0
    5.5745   -1.0193    4.4016 H   0  0  0  0  0  0  0  0  0  0  0  0
    7.0145   -0.1510    3.9730 H   0  0  0  0  0  0  0  0  0  0  0  0
    6.2125    3.4292    7.1022 H   0  0  0  0  0  0  0  0  0  0  0  0
    4.9497    4.4202    6.4277 H   0  0  0  0  0  0  0  0  0  0  0  0
    5.6495    3.2505    5.4503 H   0  0  0  0  0  0  0  0  0  0  0  0
    2.7863    2.0627    5.5730 H   0  0  0  0  0  0  0  0  0  0  0  0
    5.2613    2.3418    9.0768 H   0  0  0  0  0  0  0  0  0  0  0  0
  1  2  2  0
  1 71  1  0
  1 72  1  0
  2 63  1  0
  2  3  1  0
  3 62  1  0
  3  4  1  0
  3 73  1  1
  4  5  1  0
  4  9  1  0
  4 74  1  6
  5  6  1  0
  6  7  1  0
  6  8  2  0
  7 75  1  0
  7 76  1  0
  7 77  1  0
  9 52  1  0
  9 10  1  1
  9 14  1  0
 10 11  1  0
 11 12  1  0
 11 13  2  0
 12 78  1  0
 12 79  1  0
 12 80  1  0
 14 69  1  0
 14 15  1  0
 14 81  1  6
 15 16  2  0
 15 17  1  0
 17 18  1  0
 17 19  2  3
 18 82  1  0
 18 83  1  0
 18 84  1  0
 19 20  1  0
 19 85  1  0
 20 21  1  0
 20 22  1  0
 20 86  1  6
 21 87  1  0
 21 88  1  0
 21 89  1  0
 22 29  1  0
 22 39  1  0
 22 23  1  1
 23 24  1  0
 23 90  1  0
 23 91  1  0
 24 25  1  0
 25 69  1  0
 25 26  1  1
 25 27  1  0
 26 92  1  0
 26 93  1  0
 26 94  1  0
 27 28  1  0
 27 29  1  0
 27 95  1  1
 28 96  1  0
 29 30  1  1
 29 31  1  0
 30 97  1  0
 31 33  1  0
 31 32  1  0
 31 98  1  1
 32 33  1  0
 32 36  1  0
 32 99  1  1
 33 34  1  0
 33 35  1  0
 34100  1  0
 34101  1  0
 34102  1  0
 35103  1  0
 35104  1  0
 35105  1  0
 36 37  1  0
 36 38  1  6
 36 39  1  0
 37106  1  0
 37107  1  0
 37108  1  0
 38109  1  0
 39 40  1  0
 39110  1  6
 40 41  2  0
 40 42  1  6
 42 43  1  6
 42 47  1  0
 42 57  1  0
 43 44  1  0
 44 45  1  0
 44 46  2  0
 45111  1  0
 45112  1  0
 45113  1  0
 47 48  1  0
 47 52  1  0
 47114  1  1
 48 49  1  0
 49 50  1  0
 49 51  2  0
 50115  1  0
 50116  1  0
 50117  1  0
 52 53  1  1
 52 54  1  0
 53118  1  0
 54 55  2  0
 54 56  1  0
 55119  1  0
 55120  1  0
 56121  1  0
 56122  1  0
 56123  1  0
 57 58  1  0
 57 62  1  0
 57124  1  6
 58 59  1  0
 59 60  1  0
 59 61  2  0
 60125  1  0
 60126  1  0
 60127  1  0
 62 63  1  6
 62 66  1  0
 63 64  1  0
 63 65  1  0
 64128  1  0
 64129  1  0
 64130  1  0
 65131  1  0
 65132  1  0
 65133  1  0
 66 67  1  0
 66 68  1  6
 66 69  1  0
 67134  1  0
 67135  1  0
 67136  1  0
 68137  1  0
 69 70  1  1
 70138  1  0
M  END
>  <i_m_ct_stereo_status>  (20) 
1

>  <s_m_source_file>  (20) 
/var/tmp/pbs.5075288.sched01/tmpdioscf2v/0xa7vsnym.sdf

>  <i_m_source_file_index>  (20) 
55

>  <i_lp_mmshare_version>  (20) 
48012

>  <i_f3d_flags>  (20) 
0

>  <s_epik_input>  (20) 
W0NIM11DKD1PKU9bQ0BASF0xW0NAQEhdKEMoPVtDSDJdKUMyKFtDSDNdKVtDSDNdKVtDQEBdMihbQ0BASF0zT0MoPU8pW0NIM10pW0NAQF0oW0NIM10pKFtPSF0pW0NAQF0oW09IXSkoW0NAXShbQ0gzXSkoT1tDSDJdNClbQ0BIXTVbT0hdKVtDQEBIXShDKD1PKS9DKFtDSDNdKT1bQ0hdL1tDQEhdNltDSDNdKVtDQEBdMShPQyg9TylbQ0gzXSlbQ0BAXShbT0hdKShDKD1bQ0gyXSlbQ0gzXSlbQ0BIXShPQyg9TylbQ0gzXSlbQ0BAXTMoT0MoPU8pW0NIM10pW1MrXShbTy1dKVtDQEhdN1tDQF0oW0NIM10pKFtPSF0pW0NAQEhdKEM4KFtDSDNdKVtDSDNdKVtDQEhdOFtDQF01KFtDQEBdNDY3KVtPSF0=

>  <s_epik_cmdline>  (20) 
J2VwaWtfcHl0aG9uJywgJy1waHQnLCAnMi4wJywgJy1waCcsICc3LjAnLCAnLXRuJywgJzgnLCAnLW1hJywgJzIwMCcsICctaW1hZScsICc8aW5maWxlLm1hZT4nLCAnLW9tYWUnLCAnPG91dGZpbGUubWFlPic=

>  <r_lp_tautomer_probability>  (20) 
1

>  <r_epik_Ionization_Penalty>  (20) 
0.000166635

>  <r_epik_Ionization_Penalty_Charging>  (20) 
0

>  <r_epik_Ionization_Penalty_Neutral>  (20) 
0.000166635

>  <r_epik_State_Penalty>  (20) 
-0

>  <r_epik_Charging_Adjusted_Penalty>  (20) 
0

>  <i_epik_Tot_Q>  (20) 
0

>  <i_epik_Tot_abs_Q>  (20) 
2

>  <s_epik_Chemistry_Notes>  (20) 
This compound has an ester and may undergo hydrolysis at high or low pH.

>  <s_lp_Force_Field>  (20) 
OPLS3e

>  <r_lp_Energy>  (20) 
442.49

>  <b_lp_Chiralities_Consistent>  (20) 
1

>  <s_lp_Variant>  (20) 
22:0-2

>  <s_i_glide_gridfile>  (20) 
pfpi4k_grid

>  <i_i_glide_lignum>  (20) 
55

>  <i_i_glide_rotatable_bonds>  (20) 
17

>  <r_i_docking_score>  (20) 
-2.63203

>  <r_i_glide_ligand_efficiency>  (20) 
-0.0376005

>  <r_i_glide_ligand_efficiency_sa>  (20) 
-0.154962

>  <r_i_glide_ligand_efficiency_ln>  (20) 
-0.501483

>  <r_i_glide_gscore>  (20) 
-2.63203

>  <r_i_glide_lipo>  (20) 
-0.385917

>  <r_i_glide_hbond>  (20) 
-0.0448066

>  <r_i_glide_metal>  (20) 
-0

>  <r_i_glide_rewards>  (20) 
-0.5

>  <r_i_glide_evdw>  (20) 
-21.1082

>  <r_i_glide_ecoul>  (20) 
-5.05188

>  <r_i_glide_erotb>  (20) 
0.132337

>  <r_i_glide_esite>  (20) 
-0.0204561

>  <r_i_glide_emodel>  (20) 
-24.3661

>  <r_i_glide_energy>  (20) 
-26.1601

>  <r_i_glide_einternal>  (20) 
13.8906

>  <r_i_glide_intrahb_reward>  (20) 
-0.5

>  <i_i_glide_confnum>  (20) 
1

>  <i_i_glide_posenum>  (20) 
15

>  <r_i_glide_eff_state_penalty>  (20) 
0

>  <ligand_id>  (20) 
22

>  <original_smiles>  (20) 
C=C1C2C(OC(C)=O)C3(OC(C)=O)C4C(=O)C(C)=CC(C)C56COC7(C)C(O)C5(O)C5C(C5(C)C)C(C)(O)C6[S+]([O-])C(OC(C)=O)(C(OC(C)=O)C3(O)C(=C)C)C(OC(C)=O)C2(C1(C)C)C(C)(O)C47O

>  <smiles>  (20) 
[H]OC1([H])C2(C([H])([H])[H])OC([H])([H])C34C([H])(C([H])([H])[H])C([H])=C(C([H])([H])[H])C(=O)C5([H])C6(OC(=O)C([H])([H])[H])C([H])(OC(=O)C([H])([H])[H])C7([H])C(=C([H])[H])C(C([H])([H])[H])(C([H])([H])[H])C7(C([H])(OC(=O)C([H])([H])[H])C(OC(=O)C([H])([H])[H])(S(=O)C3([H])C(O[H])(C([H])([H])[H])C3([H])C([H])(C14O[H])C3(C([H])([H])[H])C([H])([H])[H])C([H])(OC(=O)C([H])([H])[H])C6(O[H])C(=C([H])[H])C([H])([H])[H])C(O[H])(C([H])([H])[H])C52O[H]

$$$$
22:1:1
     RDKit          3D

138145  0  0  1  0  0  0  0  0999 V2000
    3.1080   -3.7295    3.7380 C   0  0  0  0  0  0  0  0  0  0  0  0
    3.6241   -2.5600    4.1672 C   0  0  0  0  0  0  0  0  0  0  0  0
    4.0557   -1.9281    5.4941 C   0  0  2  0  0  0  0  0  0  0  0  0
    3.5403   -2.5751    6.7437 C   0  0  1  0  0  0  0  0  0  0  0  0
    4.4835   -3.6312    7.0038 O   0  0  0  0  0  0  0  0  0  0  0  0
    4.1809   -5.0014    7.0893 C   0  0  0  0  0  0  0  0  0  0  0  0
    2.7049   -5.3864    6.9113 C   0  0  0  0  0  0  0  0  0  0  0  0
    5.0682   -5.8106    7.3837 O   0  0  0  0  0  0  0  0  0  0  0  0
    3.0631   -1.6988    8.0185 C   0  0  1  0  0  0  0  0  0  0  0  0
    3.4631   -2.4573    9.2158 O   0  0  0  0  0  0  0  0  0  0  0  0
    4.7246   -2.7162    9.7142 C   0  0  0  0  0  0  0  0  0  0  0  0
    4.6904   -3.5987   10.9531 C   0  0  0  0  0  0  0  0  0  0  0  0
    5.7927   -2.3202    9.2538 O   0  0  0  0  0  0  0  0  0  0  0  0
    3.6367   -0.1383    8.2126 C   0  0  2  0  0  0  0  0  0  0  0  0
    3.3400    0.3963    9.7285 C   0  0  0  0  0  0  0  0  0  0  0  0
    4.2864    0.2413   10.5105 O   0  0  0  0  0  0  0  0  0  0  0  0
    2.1022    1.0288   10.4052 C   0  0  0  0  0  0  0  0  0  0  0  0
    1.7471    0.3274   11.7278 C   0  0  0  0  0  0  0  0  0  0  0  0
    1.5141    2.2760   10.2878 C   0  0  0  0  0  0  0  0  0  0  0  0
    1.7192    3.5787    9.4492 C   0  0  1  0  0  0  0  0  0  0  0  0
    1.8706    4.8083   10.3678 C   0  0  0  0  0  0  0  0  0  0  0  0
    2.8140    3.4443    8.3630 C   0  0  2  0  0  0  0  0  0  0  0  0
    4.0763    3.0947    9.3017 C   0  0  0  0  0  0  0  0  0  0  0  0
    5.1015    2.2806    8.8236 O   0  0  0  0  0  0  0  0  0  0  0  0
    5.2681    2.2438    7.4500 C   0  0  2  0  0  0  0  0  0  0  0  0
    6.8395    2.2893    7.5217 C   0  0  0  0  0  0  0  0  0  0  0  0
    4.8279    3.7490    6.8918 C   0  0  1  0  0  0  0  0  0  0  0  0
    5.1167    4.0424    5.5619 O   0  0  0  0  0  0  0  0  0  0  0  0
    3.5823    4.5526    7.5384 C   0  0  2  0  0  0  0  0  0  0  0  0
    4.0780    5.6762    8.2659 O   0  0  0  0  0  0  0  0  0  0  0  0
    2.5430    5.3584    6.7318 C   0  0  2  0  0  0  0  0  0  0  0  0
    2.1057    4.5982    5.4932 C   0  0  2  0  0  0  0  0  0  0  0  0
    2.3865    6.1034    5.4450 C   0  0  0  0  0  0  0  0  0  0  0  0
    1.1865    7.0070    5.1988 C   0  0  0  0  0  0  0  0  0  0  0  0
    3.6131    6.7095    4.7743 C   0  0  0  0  0  0  0  0  0  0  0  0
    1.1341    3.6254    6.1481 C   0  0  1  0  0  0  0  0  0  0  0  0
   -0.2047    4.2308    6.6546 C   0  0  0  0  0  0  0  0  0  0  0  0
    0.6889    2.9015    5.0432 O   0  0  0  0  0  0  0  0  0  0  0  0
    2.0152    2.6935    7.1218 C   0  0  2  0  0  0  0  0  0  0  0  0
    1.0498    1.1445    7.4656 S   0  0  0  0  0  0  0  0  0  0  0  0
   -0.3047    1.5771    8.0154 O   0  0  0  0  0  0  0  0  0  0  0  0
    0.8638   -0.1361    6.0896 C   0  0  2  0  0  0  0  0  0  0  0  0
   -0.3358    0.0754    5.3314 O   0  0  0  0  0  0  0  0  0  0  0  0
   -1.6469    0.0290    5.6707 C   0  0  0  0  0  0  0  0  0  0  0  0
   -2.4045   -0.8341    4.6895 C   0  0  0  0  0  0  0  0  0  0  0  0
   -2.2011    0.4794    6.6720 O   0  0  0  0  0  0  0  0  0  0  0  0
    0.6138   -1.5214    6.8269 C   0  0  1  0  0  0  0  0  0  0  0  0
    0.5680   -2.5219    5.7727 O   0  0  0  0  0  0  0  0  0  0  0  0
   -0.2822   -3.6109    5.7562 C   0  0  0  0  0  0  0  0  0  0  0  0
   -1.4447   -3.5529    6.7643 C   0  0  0  0  0  0  0  0  0  0  0  0
   -0.1348   -4.5859    5.0182 O   0  0  0  0  0  0  0  0  0  0  0  0
    1.4533   -1.9601    8.1166 C   0  0  1  0  0  0  0  0  0  0  0  0
    1.2964   -3.2878    8.0350 O   0  0  0  0  0  0  0  0  0  0  0  0
    0.6520   -1.8048    9.4604 C   0  0  0  0  0  0  0  0  0  0  0  0
   -0.3364   -0.9107    9.6687 C   0  0  0  0  0  0  0  0  0  0  0  0
    0.9051   -2.8055   10.6189 C   0  0  0  0  0  0  0  0  0  0  0  0
    1.9331   -0.2387    4.8368 C   0  0  1  0  0  0  0  0  0  0  0  0
    1.7292    0.7669    3.8175 O   0  0  0  0  0  0  0  0  0  0  0  0
    0.7924    0.7611    2.8253 C   0  0  0  0  0  0  0  0  0  0  0  0
    1.1091    1.6791    1.6752 C   0  0  0  0  0  0  0  0  0  0  0  0
   -0.2464    0.1255    2.7687 O   0  0  0  0  0  0  0  0  0  0  0  0
    3.5399   -0.5971    4.8523 C   0  0  2  0  0  0  0  0  0  0  0  0
    3.9991   -1.2930    3.4281 C   0  0  0  0  0  0  0  0  0  0  0  0
    5.4561   -1.5273    2.9220 C   0  0  0  0  0  0  0  0  0  0  0  0
    3.2220   -1.0846    2.1256 C   0  0  0  0  0  0  0  0  0  0  0  0
    4.4015    0.6187    5.4205 C   0  0  1  0  0  0  0  0  0  0  0  0
    5.7754    0.7897    4.6837 C   0  0  0  0  0  0  0  0  0  0  0  0
    3.9042    1.7679    4.7856 O   0  0  0  0  0  0  0  0  0  0  0  0
    4.6052    0.7409    7.0590 C   0  0  2  0  0  0  0  0  0  0  0  0
    5.7697   -0.0797    7.1306 O   0  0  0  0  0  0  0  0  0  0  0  0
    2.8882   -3.8537    2.6938 H   0  0  0  0  0  0  0  0  0  0  0  0
    2.9309   -4.5271    4.4133 H   0  0  0  0  0  0  0  0  0  0  0  0
    5.1484   -1.8871    5.5761 H   0  0  0  0  0  0  0  0  0  0  0  0
    2.6804   -3.0843    6.3768 H   0  0  0  0  0  0  0  0  0  0  0  0
    2.2565   -4.9046    6.0376 H   0  0  0  0  0  0  0  0  0  0  0  0
    2.2682   -5.0886    7.8507 H   0  0  0  0  0  0  0  0  0  0  0  0
    2.5857   -6.4396    6.8418 H   0  0  0  0  0  0  0  0  0  0  0  0
    4.1140   -4.5017   10.7529 H   0  0  0  0  0  0  0  0  0  0  0  0
    4.2377   -3.0635   11.7874 H   0  0  0  0  0  0  0  0  0  0  0  0
    5.7007   -3.8927   11.2393 H   0  0  0  0  0  0  0  0  0  0  0  0
    4.5326   -0.5388    8.6315 H   0  0  0  0  0  0  0  0  0  0  0  0
    2.4720   -0.4237   12.0431 H   0  0  0  0  0  0  0  0  0  0  0  0
    0.7704   -0.1354   11.7441 H   0  0  0  0  0  0  0  0  0  0  0  0
    1.6966    1.0680   12.5322 H   0  0  0  0  0  0  0  0  0  0  0  0
    0.7255    2.4608   11.0057 H   0  0  0  0  0  0  0  0  0  0  0  0
    0.7562    3.7246    8.9777 H   0  0  0  0  0  0  0  0  0  0  0  0
    1.0022    4.9083   11.0186 H   0  0  0  0  0  0  0  0  0  0  0  0
    1.9377    5.7322    9.7936 H   0  0  0  0  0  0  0  0  0  0  0  0
    2.7491    4.7500   11.0093 H   0  0  0  0  0  0  0  0  0  0  0  0
    4.6202    3.9673    9.6399 H   0  0  0  0  0  0  0  0  0  0  0  0
    3.8741    2.7927   10.3203 H   0  0  0  0  0  0  0  0  0  0  0  0
    7.3505    2.3393    6.5664 H   0  0  0  0  0  0  0  0  0  0  0  0
    7.2840    1.4717    8.0867 H   0  0  0  0  0  0  0  0  0  0  0  0
    7.1846    3.1720    8.0596 H   0  0  0  0  0  0  0  0  0  0  0  0
    5.6456    4.3561    7.2665 H   0  0  0  0  0  0  0  0  0  0  0  0
    4.5223    3.5329    5.0189 H   0  0  0  0  0  0  0  0  0  0  0  0
    4.3767    6.3124    7.6263 H   0  0  0  0  0  0  0  0  0  0  0  0
    1.8105    5.7613    7.4330 H   0  0  0  0  0  0  0  0  0  0  0  0
    2.8107    4.0653    4.8674 H   0  0  0  0  0  0  0  0  0  0  0  0
    0.9136    6.9938    4.1437 H   0  0  0  0  0  0  0  0  0  0  0  0
    1.3977    8.0308    5.4966 H   0  0  0  0  0  0  0  0  0  0  0  0
    0.3199    6.6794    5.7696 H   0  0  0  0  0  0  0  0  0  0  0  0
    3.7054    7.7627    5.0280 H   0  0  0  0  0  0  0  0  0  0  0  0
    3.5586    6.6114    3.6943 H   0  0  0  0  0  0  0  0  0  0  0  0
    4.5388    6.2593    5.1099 H   0  0  0  0  0  0  0  0  0  0  0  0
   -0.1106    4.9240    7.4924 H   0  0  0  0  0  0  0  0  0  0  0  0
   -0.9353    3.4779    6.9582 H   0  0  0  0  0  0  0  0  0  0  0  0
   -0.7233    4.7668    5.8593 H   0  0  0  0  0  0  0  0  0  0  0  0
   -0.0158    2.3155    5.2962 H   0  0  0  0  0  0  0  0  0  0  0  0
    2.7791    2.2798    6.5583 H   0  0  0  0  0  0  0  0  0  0  0  0
   -2.2348   -0.4541    3.6976 H   0  0  0  0  0  0  0  0  0  0  0  0
   -3.4579   -0.8416    4.8814 H   0  0  0  0  0  0  0  0  0  0  0  0
   -2.0153   -1.8484    4.7260 H   0  0  0  0  0  0  0  0  0  0  0  0
   -0.4035   -1.4634    7.1926 H   0  0  0  0  0  0  0  0  0  0  0  0
   -2.1268   -2.7512    6.4895 H   0  0  0  0  0  0  0  0  0  0  0  0
   -1.0812   -3.3520    7.7707 H   0  0  0  0  0  0  0  0  0  0  0  0
   -2.0008   -4.4894    6.8080 H   0  0  0  0  0  0  0  0  0  0  0  0
    1.8017   -3.7396    8.7461 H   0  0  0  0  0  0  0  0  0  0  0  0
   -0.6427   -0.2187    8.9186 H   0  0  0  0  0  0  0  0  0  0  0  0
   -0.8678   -0.8882   10.6295 H   0  0  0  0  0  0  0  0  0  0  0  0
    0.7536   -3.8471   10.3153 H   0  0  0  0  0  0  0  0  0  0  0  0
    0.1688   -2.6784   11.4170 H   0  0  0  0  0  0  0  0  0  0  0  0
    1.8986   -2.7341   11.0920 H   0  0  0  0  0  0  0  0  0  0  0  0
    1.5159   -1.0962    4.3097 H   0  0  0  0  0  0  0  0  0  0  0  0
    2.1667    1.9829    1.7035 H   0  0  0  0  0  0  0  0  0  0  0  0
    0.4440    2.5345    1.7000 H   0  0  0  0  0  0  0  0  0  0  0  0
    0.9065    1.1100    0.7587 H   0  0  0  0  0  0  0  0  0  0  0  0
    5.8543   -0.7014    2.3257 H   0  0  0  0  0  0  0  0  0  0  0  0
    5.5186   -2.4028    2.2713 H   0  0  0  0  0  0  0  0  0  0  0  0
    6.1753   -1.7429    3.7031 H   0  0  0  0  0  0  0  0  0  0  0  0
    3.2727   -0.0428    1.8195 H   0  0  0  0  0  0  0  0  0  0  0  0
    2.1869   -1.4007    2.2056 H   0  0  0  0  0  0  0  0  0  0  0  0
    3.6346   -1.6558    1.2974 H   0  0  0  0  0  0  0  0  0  0  0  0
    6.5106    0.0039    4.8409 H   0  0  0  0  0  0  0  0  0  0  0  0
    6.2793    1.6796    5.0167 H   0  0  0  0  0  0  0  0  0  0  0  0
    5.6730    0.9245    3.6094 H   0  0  0  0  0  0  0  0  0  0  0  0
    2.9654    1.8149    4.9340 H   0  0  0  0  0  0  0  0  0  0  0  0
    5.5632   -0.9597    6.8451 H   0  0  0  0  0  0  0  0  0  0  0  0
  1  2  2  0
  1 71  1  0
  1 72  1  0
  2 63  1  0
  2  3  1  0
  3 62  1  0
  3  4  1  0
  3 73  1  1
  4  5  1  0
  4  9  1  0
  4 74  1  6
  5  6  1  0
  6  7  1  0
  6  8  2  0
  7 75  1  0
  7 76  1  0
  7 77  1  0
  9 52  1  0
  9 10  1  1
  9 14  1  0
 10 11  1  0
 11 12  1  0
 11 13  2  0
 12 78  1  0
 12 79  1  0
 12 80  1  0
 14 69  1  0
 14 15  1  0
 14 81  1  6
 15 16  2  0
 15 17  1  0
 17 18  1  0
 17 19  2  3
 18 82  1  0
 18 83  1  0
 18 84  1  0
 19 20  1  0
 19 85  1  0
 20 21  1  0
 20 22  1  0
 20 86  1  6
 21 87  1  0
 21 88  1  0
 21 89  1  0
 22 29  1  0
 22 39  1  0
 22 23  1  1
 23 24  1  0
 23 90  1  0
 23 91  1  0
 24 25  1  0
 25 69  1  0
 25 26  1  1
 25 27  1  0
 26 92  1  0
 26 93  1  0
 26 94  1  0
 27 28  1  0
 27 29  1  0
 27 95  1  1
 28 96  1  0
 29 30  1  1
 29 31  1  0
 30 97  1  0
 31 33  1  0
 31 32  1  0
 31 98  1  1
 32 33  1  0
 32 36  1  0
 32 99  1  6
 33 34  1  0
 33 35  1  0
 34100  1  0
 34101  1  0
 34102  1  0
 35103  1  0
 35104  1  0
 35105  1  0
 36 37  1  0
 36 38  1  6
 36 39  1  0
 37106  1  0
 37107  1  0
 37108  1  0
 38109  1  0
 39 40  1  0
 39110  1  6
 40 41  2  0
 40 42  1  6
 42 43  1  6
 42 47  1  0
 42 57  1  0
 43 44  1  0
 44 45  1  0
 44 46  2  0
 45111  1  0
 45112  1  0
 45113  1  0
 47 48  1  0
 47 52  1  0
 47114  1  1
 48 49  1  0
 49 50  1  0
 49 51  2  0
 50115  1  0
 50116  1  0
 50117  1  0
 52 53  1  6
 52 54  1  0
 53118  1  0
 54 55  2  0
 54 56  1  0
 55119  1  0
 55120  1  0
 56121  1  0
 56122  1  0
 56123  1  0
 57 58  1  0
 57 62  1  0
 57124  1  6
 58 59  1  0
 59 60  1  0
 59 61  2  0
 60125  1  0
 60126  1  0
 60127  1  0
 62 63  1  6
 62 66  1  0
 63 64  1  0
 63 65  1  0
 64128  1  0
 64129  1  0
 64130  1  0
 65131  1  0
 65132  1  0
 65133  1  0
 66 67  1  0
 66 68  1  6
 66 69  1  0
 67134  1  0
 67135  1  0
 67136  1  0
 68137  1  0
 69 70  1  6
 70138  1  0
M  END
>  <i_m_ct_stereo_status>  (21) 
1

>  <s_m_source_file>  (21) 
/var/tmp/pbs.5075288.sched01/tmpdioscf2v/0xa7vsnym.sdf

>  <i_m_source_file_index>  (21) 
55

>  <i_lp_mmshare_version>  (21) 
48012

>  <i_f3d_flags>  (21) 
0

>  <s_epik_input>  (21) 
W0NIM11DKD1PKU9bQ0BASF0xW0NAQEhdKEMoPVtDSDJdKUMyKFtDSDNdKVtDSDNdKVtDQEBdMihbQ0BASF0zT0MoPU8pW0NIM10pW0NAQF0oW0NIM10pKFtPSF0pW0NAQF0oW09IXSkoW0NAXShbQ0gzXSkoT1tDSDJdNClbQ0BIXTVbT0hdKVtDQEBIXShDKD1PKS9DKFtDSDNdKT1bQ0hdL1tDQEhdNltDSDNdKVtDQEBdMShPQyg9TylbQ0gzXSlbQ0BAXShbT0hdKShDKD1bQ0gyXSlbQ0gzXSlbQ0BIXShPQyg9TylbQ0gzXSlbQ0BAXTMoT0MoPU8pW0NIM10pW1MrXShbTy1dKVtDQEhdN1tDQF0oW0NIM10pKFtPSF0pW0NAQEhdKEM4KFtDSDNdKVtDSDNdKVtDQEhdOFtDQF01KFtDQEBdNDY3KVtPSF0=

>  <s_epik_cmdline>  (21) 
J2VwaWtfcHl0aG9uJywgJy1waHQnLCAnMi4wJywgJy1waCcsICc3LjAnLCAnLXRuJywgJzgnLCAnLW1hJywgJzIwMCcsICctaW1hZScsICc8aW5maWxlLm1hZT4nLCAnLW9tYWUnLCAnPG91dGZpbGUubWFlPic=

>  <r_lp_tautomer_probability>  (21) 
1

>  <r_epik_Ionization_Penalty>  (21) 
0.000166635

>  <r_epik_Ionization_Penalty_Charging>  (21) 
0

>  <r_epik_Ionization_Penalty_Neutral>  (21) 
0.000166635

>  <r_epik_State_Penalty>  (21) 
-0

>  <r_epik_Charging_Adjusted_Penalty>  (21) 
0

>  <i_epik_Tot_Q>  (21) 
0

>  <i_epik_Tot_abs_Q>  (21) 
2

>  <s_epik_Chemistry_Notes>  (21) 
This compound has an ester and may undergo hydrolysis at high or low pH.

>  <s_lp_Force_Field>  (21) 
OPLS3e

>  <r_lp_Energy>  (21) 
442.49

>  <b_lp_Chiralities_Consistent>  (21) 
1

>  <s_lp_Variant>  (21) 
22:0-2

>  <s_i_glide_gridfile>  (21) 
pfpi4k_grid

>  <i_i_glide_lignum>  (21) 
55

>  <i_i_glide_rotatable_bonds>  (21) 
17

>  <r_i_docking_score>  (21) 
-1.33654

>  <r_i_glide_ligand_efficiency>  (21) 
-0.0190934

>  <r_i_glide_ligand_efficiency_sa>  (21) 
-0.0786894

>  <r_i_glide_ligand_efficiency_ln>  (21) 
-0.254652

>  <r_i_glide_gscore>  (21) 
-1.33654

>  <r_i_glide_lipo>  (21) 
-0.242707

>  <r_i_glide_hbond>  (21) 
-0.16

>  <r_i_glide_metal>  (21) 
-0

>  <r_i_glide_rewards>  (21) 
-1

>  <r_i_glide_evdw>  (21) 
-15.6551

>  <r_i_glide_ecoul>  (21) 
-3.03435

>  <r_i_glide_erotb>  (21) 
0.132337

>  <r_i_glide_esite>  (21) 
-0.109264

>  <r_i_glide_emodel>  (21) 
-9.13543

>  <r_i_glide_energy>  (21) 
-18.6895

>  <r_i_glide_einternal>  (21) 
27.3546

>  <r_i_glide_intrahb_reward>  (21) 
-1

>  <i_i_glide_confnum>  (21) 
1

>  <i_i_glide_posenum>  (21) 
16

>  <r_i_glide_eff_state_penalty>  (21) 
0

>  <ligand_id>  (21) 
22

>  <original_smiles>  (21) 
C=C1C2C(OC(C)=O)C3(OC(C)=O)C4C(=O)C(C)=CC(C)C56COC7(C)C(O)C5(O)C5C(C5(C)C)C(C)(O)C6[S+]([O-])C(OC(C)=O)(C(OC(C)=O)C3(O)C(=C)C)C(OC(C)=O)C2(C1(C)C)C(C)(O)C47O

>  <smiles>  (21) 
[H]OC1([H])C2(C([H])([H])[H])OC([H])([H])C34C([H])(C([H])([H])[H])C([H])=C(C([H])([H])[H])C(=O)C5([H])C6(OC(=O)C([H])([H])[H])C([H])(OC(=O)C([H])([H])[H])C7([H])C(=C([H])[H])C(C([H])([H])[H])(C([H])([H])[H])C7(C([H])(OC(=O)C([H])([H])[H])C(OC(=O)C([H])([H])[H])(S(=O)C3([H])C(O[H])(C([H])([H])[H])C3([H])C([H])(C14O[H])C3(C([H])([H])[H])C([H])([H])[H])C([H])(OC(=O)C([H])([H])[H])C6(O[H])C(=C([H])[H])C([H])([H])[H])C(O[H])(C([H])([H])[H])C52O[H]

$$$$
22:1:2
     RDKit          3D

138145  0  0  1  0  0  0  0  0999 V2000
    6.1463   -2.2059    6.0491 C   0  0  0  0  0  0  0  0  0  0  0  0
    5.5932   -0.9844    5.9739 C   0  0  0  0  0  0  0  0  0  0  0  0
    5.1452    0.1098    6.9442 C   0  0  2  0  0  0  0  0  0  0  0  0
    4.9723   -0.2923    8.3832 C   0  0  1  0  0  0  0  0  0  0  0  0
    6.3040   -0.1447    8.9219 O   0  0  0  0  0  0  0  0  0  0  0  0
    7.0363   -1.1643    9.4877 C   0  0  0  0  0  0  0  0  0  0  0  0
    6.3667   -2.5257    9.5668 C   0  0  0  0  0  0  0  0  0  0  0  0
    8.1505   -0.9874    9.9948 O   0  0  0  0  0  0  0  0  0  0  0  0
    3.7532    0.2628    9.2711 C   0  0  1  0  0  0  0  0  0  0  0  0
    4.3061    0.4601   10.6164 O   0  0  0  0  0  0  0  0  0  0  0  0
    5.2394    1.3773   11.0724 C   0  0  0  0  0  0  0  0  0  0  0  0
    5.5017    1.2375   12.5654 C   0  0  0  0  0  0  0  0  0  0  0  0
    5.8428    2.2180   10.4059 O   0  0  0  0  0  0  0  0  0  0  0  0
    3.0076    1.6968    8.8429 C   0  0  2  0  0  0  0  0  0  0  0  0
    2.0706    2.2499   10.0657 C   0  0  0  0  0  0  0  0  0  0  0  0
    2.6293    3.0984   10.7678 O   0  0  0  0  0  0  0  0  0  0  0  0
    0.6323    1.9303   10.5537 C   0  0  0  0  0  0  0  0  0  0  0  0
    0.5838    1.6335   12.0591 C   0  0  0  0  0  0  0  0  0  0  0  0
   -0.6167    2.2171   10.0330 C   0  0  0  0  0  0  0  0  0  0  0  0
   -1.2042    2.9073    8.7589 C   0  0  1  0  0  0  0  0  0  0  0  0
   -2.1812    4.0400    9.1510 C   0  0  0  0  0  0  0  0  0  0  0  0
   -0.1197    3.3030    7.7164 C   0  0  2  0  0  0  0  0  0  0  0  0
    0.7555    4.3014    8.6190 C   0  0  0  0  0  0  0  0  0  0  0  0
    2.1202    4.4347    8.3857 O   0  0  0  0  0  0  0  0  0  0  0  0
    2.5723    4.1104    7.1198 C   0  0  2  0  0  0  0  0  0  0  0  0
    3.5732    5.3283    7.0510 C   0  0  0  0  0  0  0  0  0  0  0  0
    1.3589    4.5278    6.0717 C   0  0  1  0  0  0  0  0  0  0  0  0
    1.7166    4.4981    4.7098 O   0  0  0  0  0  0  0  0  0  0  0  0
   -0.1936    4.2840    6.4848 C   0  0  2  0  0  0  0  0  0  0  0  0
   -0.7845    5.5515    6.7127 O   0  0  0  0  0  0  0  0  0  0  0  0
   -1.2899    3.7581    5.5517 C   0  0  2  0  0  0  0  0  0  0  0  0
   -0.7796    2.6192    4.7139 C   0  0  2  0  0  0  0  0  0  0  0  0
   -1.6598    3.7246    4.1134 C   0  0  0  0  0  0  0  0  0  0  0  0
   -3.0208    3.2662    3.5955 C   0  0  0  0  0  0  0  0  0  0  0  0
   -1.1255    4.8117    3.1947 C   0  0  0  0  0  0  0  0  0  0  0  0
   -0.8612    1.5013    5.7395 C   0  0  1  0  0  0  0  0  0  0  0  0
   -2.2763    1.0149    6.1065 C   0  0  0  0  0  0  0  0  0  0  0  0
   -0.4570    0.3914    4.9939 O   0  0  0  0  0  0  0  0  0  0  0  0
    0.1597    1.8901    6.9065 C   0  0  2  0  0  0  0  0  0  0  0  0
    0.6650    0.3808    7.8493 S   0  0  0  0  0  0  0  0  0  0  0  0
   -0.5810   -0.2046    8.4444 O   0  0  0  0  0  0  0  0  0  0  0  0
    1.6153   -1.0045    7.0419 C   0  0  2  0  0  0  0  0  0  0  0  0
    0.7350   -1.8982    6.3003 O   0  0  0  0  0  0  0  0  0  0  0  0
   -0.2754   -2.7064    6.7478 C   0  0  0  0  0  0  0  0  0  0  0  0
   -0.5842   -3.7906    5.6858 C   0  0  0  0  0  0  0  0  0  0  0  0
   -0.7175   -2.8262    7.8285 O   0  0  0  0  0  0  0  0  0  0  0  0
    2.2559   -1.8048    8.2490 C   0  0  1  0  0  0  0  0  0  0  0  0
    3.1788   -2.7761    7.6684 O   0  0  0  0  0  0  0  0  0  0  0  0
    2.9445   -4.1346    7.5580 C   0  0  0  0  0  0  0  0  0  0  0  0
    1.6663   -4.6603    8.1815 C   0  0  0  0  0  0  0  0  0  0  0  0
    3.6721   -4.9027    6.9170 O   0  0  0  0  0  0  0  0  0  0  0  0
    2.8078   -1.0597    9.5662 C   0  0  1  0  0  0  0  0  0  0  0  0
    3.5825   -2.1121   10.0295 O   0  0  0  0  0  0  0  0  0  0  0  0
    1.8812   -1.0976   10.8279 C   0  0  0  0  0  0  0  0  0  0  0  0
    0.5729   -1.4571   10.7890 C   0  0  0  0  0  0  0  0  0  0  0  0
    2.4831   -0.9084   12.2361 C   0  0  0  0  0  0  0  0  0  0  0  0
    2.6884   -0.6562    5.8649 C   0  0  1  0  0  0  0  0  0  0  0  0
    2.0026   -0.5013    4.6001 O   0  0  0  0  0  0  0  0  0  0  0  0
    1.7905   -1.4888    3.6691 C   0  0  0  0  0  0  0  0  0  0  0  0
    1.2468   -0.9331    2.3621 C   0  0  0  0  0  0  0  0  0  0  0  0
    2.0290   -2.6897    3.7985 O   0  0  0  0  0  0  0  0  0  0  0  0
    4.0020    0.3344    5.9056 C   0  0  2  0  0  0  0  0  0  0  0  0
    5.1268   -0.1614    4.8072 C   0  0  0  0  0  0  0  0  0  0  0  0
    6.3830    0.6169    4.3400 C   0  0  0  0  0  0  0  0  0  0  0  0
    4.7698   -0.9981    3.5718 C   0  0  0  0  0  0  0  0  0  0  0  0
    3.5872    1.8716    5.9190 C   0  0  1  0  0  0  0  0  0  0  0  0
    4.5156    2.7817    5.0604 C   0  0  0  0  0  0  0  0  0  0  0  0
    2.6037    1.9654    4.9343 O   0  0  0  0  0  0  0  0  0  0  0  0
    3.2711    2.5898    7.3680 C   0  0  2  0  0  0  0  0  0  0  0  0
    4.6162    2.9734    7.6594 O   0  0  0  0  0  0  0  0  0  0  0  0
    6.3203   -2.8244    5.1909 H   0  0  0  0  0  0  0  0  0  0  0  0
    6.4905   -2.6565    6.9558 H   0  0  0  0  0  0  0  0  0  0  0  0
    5.8309    0.9574    6.9165 H   0  0  0  0  0  0  0  0  0  0  0  0
    4.7897   -1.3362    8.2805 H   0  0  0  0  0  0  0  0  0  0  0  0
    5.8583   -2.8318    8.6505 H   0  0  0  0  0  0  0  0  0  0  0  0
    5.6335   -2.4081   10.3257 H   0  0  0  0  0  0  0  0  0  0  0  0
    6.9894   -3.3316    9.9255 H   0  0  0  0  0  0  0  0  0  0  0  0
    5.7192    0.2000   12.8176 H   0  0  0  0  0  0  0  0  0  0  0  0
    4.6297    1.5600   13.1340 H   0  0  0  0  0  0  0  0  0  0  0  0
    6.3509    1.8491   12.8705 H   0  0  0  0  0  0  0  0  0  0  0  0
    3.7912    2.2336    9.3205 H   0  0  0  0  0  0  0  0  0  0  0  0
    1.5142    1.8396   12.5867 H   0  0  0  0  0  0  0  0  0  0  0  0
    0.2686    0.6209   12.2867 H   0  0  0  0  0  0  0  0  0  0  0  0
   -0.1566    2.2737   12.5424 H   0  0  0  0  0  0  0  0  0  0  0  0
   -1.4354    1.9658   10.6988 H   0  0  0  0  0  0  0  0  0  0  0  0
   -1.8533    2.1423    8.3535 H   0  0  0  0  0  0  0  0  0  0  0  0
   -2.9831    3.6596    9.7858 H   0  0  0  0  0  0  0  0  0  0  0  0
   -2.6627    4.4761    8.2765 H   0  0  0  0  0  0  0  0  0  0  0  0
   -1.6983    4.8468    9.7021 H   0  0  0  0  0  0  0  0  0  0  0  0
    0.4253    5.3331    8.5857 H   0  0  0  0  0  0  0  0  0  0  0  0
    0.6036    4.2765    9.6890 H   0  0  0  0  0  0  0  0  0  0  0  0
    4.0923    5.4413    6.1050 H   0  0  0  0  0  0  0  0  0  0  0  0
    4.3245    5.3357    7.8398 H   0  0  0  0  0  0  0  0  0  0  0  0
    3.0593    6.2809    7.1953 H   0  0  0  0  0  0  0  0  0  0  0  0
    1.3851    5.6156    6.1075 H   0  0  0  0  0  0  0  0  0  0  0  0
    1.1053    5.0232    4.2113 H   0  0  0  0  0  0  0  0  0  0  0  0
   -0.3251    6.0055    7.4051 H   0  0  0  0  0  0  0  0  0  0  0  0
   -2.2287    3.6903    6.0879 H   0  0  0  0  0  0  0  0  0  0  0  0
    0.2061    2.6633    4.2681 H   0  0  0  0  0  0  0  0  0  0  0  0
   -2.9527    2.7228    2.6527 H   0  0  0  0  0  0  0  0  0  0  0  0
   -3.6279    4.1165    3.3121 H   0  0  0  0  0  0  0  0  0  0  0  0
   -3.5276    2.6342    4.3228 H   0  0  0  0  0  0  0  0  0  0  0  0
   -1.8659    5.5987    2.9932 H   0  0  0  0  0  0  0  0  0  0  0  0
   -0.9402    4.3242    2.3284 H   0  0  0  0  0  0  0  0  0  0  0  0
   -0.2215    5.2809    3.5328 H   0  0  0  0  0  0  0  0  0  0  0  0
   -2.9431    1.7545    6.5697 H   0  0  0  0  0  0  0  0  0  0  0  0
   -2.2953    0.1451    6.7402 H   0  0  0  0  0  0  0  0  0  0  0  0
   -2.6861    0.6292    5.1773 H   0  0  0  0  0  0  0  0  0  0  0  0
    0.3277    0.5959    4.5058 H   0  0  0  0  0  0  0  0  0  0  0  0
    1.0774    2.0358    6.4620 H   0  0  0  0  0  0  0  0  0  0  0  0
   -0.9269   -3.3171    4.7787 H   0  0  0  0  0  0  0  0  0  0  0  0
   -1.3016   -4.5164    6.0859 H   0  0  0  0  0  0  0  0  0  0  0  0
    0.3230   -4.3426    5.4681 H   0  0  0  0  0  0  0  0  0  0  0  0
    1.4646   -2.3822    8.6816 H   0  0  0  0  0  0  0  0  0  0  0  0
    0.9722   -4.3148    7.4981 H   0  0  0  0  0  0  0  0  0  0  0  0
    1.4302   -4.2529    9.1627 H   0  0  0  0  0  0  0  0  0  0  0  0
    1.4230   -5.7109    8.0491 H   0  0  0  0  0  0  0  0  0  0  0  0
    4.0790   -1.7940   10.7900 H   0  0  0  0  0  0  0  0  0  0  0  0
    0.0657   -1.7172    9.8918 H   0  0  0  0  0  0  0  0  0  0  0  0
   -0.0033   -1.5331   11.6996 H   0  0  0  0  0  0  0  0  0  0  0  0
    3.3486   -1.5435   12.4369 H   0  0  0  0  0  0  0  0  0  0  0  0
    1.7690   -1.1640   13.0223 H   0  0  0  0  0  0  0  0  0  0  0  0
    2.7917    0.1153   12.4301 H   0  0  0  0  0  0  0  0  0  0  0  0
    3.1458   -1.6297    5.7278 H   0  0  0  0  0  0  0  0  0  0  0  0
    1.2947    0.1557    2.3455 H   0  0  0  0  0  0  0  0  0  0  0  0
    0.2112   -1.2373    2.2418 H   0  0  0  0  0  0  0  0  0  0  0  0
    1.8209   -1.3059    1.5123 H   0  0  0  0  0  0  0  0  0  0  0  0
    6.1723    1.1690    3.4409 H   0  0  0  0  0  0  0  0  0  0  0  0
    7.1859   -0.0187    3.9909 H   0  0  0  0  0  0  0  0  0  0  0  0
    6.8434    1.2716    5.0786 H   0  0  0  0  0  0  0  0  0  0  0  0
    4.1122   -0.4295    2.9135 H   0  0  0  0  0  0  0  0  0  0  0  0
    4.3228   -1.9456    3.8458 H   0  0  0  0  0  0  0  0  0  0  0  0
    5.6228   -1.2913    2.9594 H   0  0  0  0  0  0  0  0  0  0  0  0
    5.5138    2.8904    5.4626 H   0  0  0  0  0  0  0  0  0  0  0  0
    4.1571    3.7918    4.9095 H   0  0  0  0  0  0  0  0  0  0  0  0
    4.5926    2.4264    4.0456 H   0  0  0  0  0  0  0  0  0  0  0  0
    1.8804    1.4165    5.1843 H   0  0  0  0  0  0  0  0  0  0  0  0
    5.1570    2.2005    7.7491 H   0  0  0  0  0  0  0  0  0  0  0  0
  1  2  2  0
  1 71  1  0
  1 72  1  0
  2 63  1  0
  2  3  1  0
  3 62  1  0
  3  4  1  0
  3 73  1  1
  4  5  1  0
  4  9  1  0
  4 74  1  6
  5  6  1  0
  6  7  1  0
  6  8  2  0
  7 75  1  0
  7 76  1  0
  7 77  1  0
  9 52  1  0
  9 10  1  1
  9 14  1  0
 10 11  1  0
 11 12  1  0
 11 13  2  0
 12 78  1  0
 12 79  1  0
 12 80  1  0
 14 69  1  0
 14 15  1  0
 14 81  1  6
 15 16  2  0
 15 17  1  0
 17 18  1  0
 17 19  2  3
 18 82  1  0
 18 83  1  0
 18 84  1  0
 19 20  1  0
 19 85  1  0
 20 21  1  0
 20 22  1  0
 20 86  1  6
 21 87  1  0
 21 88  1  0
 21 89  1  0
 22 29  1  0
 22 39  1  0
 22 23  1  1
 23 24  1  0
 23 90  1  0
 23 91  1  0
 24 25  1  0
 25 69  1  0
 25 26  1  6
 25 27  1  0
 26 92  1  0
 26 93  1  0
 26 94  1  0
 27 28  1  0
 27 29  1  0
 27 95  1  1
 28 96  1  0
 29 30  1  1
 29 31  1  0
 30 97  1  0
 31 33  1  0
 31 32  1  0
 31 98  1  1
 32 33  1  0
 32 36  1  0
 32 99  1  6
 33 34  1  0
 33 35  1  0
 34100  1  0
 34101  1  0
 34102  1  0
 35103  1  0
 35104  1  0
 35105  1  0
 36 37  1  0
 36 38  1  6
 36 39  1  0
 37106  1  0
 37107  1  0
 37108  1  0
 38109  1  0
 39 40  1  0
 39110  1  6
 40 41  2  0
 40 42  1  6
 42 43  1  6
 42 47  1  0
 42 57  1  0
 43 44  1  0
 44 45  1  0
 44 46  2  0
 45111  1  0
 45112  1  0
 45113  1  0
 47 48  1  0
 47 52  1  0
 47114  1  1
 48 49  1  0
 49 50  1  0
 49 51  2  0
 50115  1  0
 50116  1  0
 50117  1  0
 52 53  1  1
 52 54  1  0
 53118  1  0
 54 55  2  0
 54 56  1  0
 55119  1  0
 55120  1  0
 56121  1  0
 56122  1  0
 56123  1  0
 57 58  1  0
 57 62  1  0
 57124  1  6
 58 59  1  0
 59 60  1  0
 59 61  2  0
 60125  1  0
 60126  1  0
 60127  1  0
 62 63  1  6
 62 66  1  0
 63 64  1  0
 63 65  1  0
 64128  1  0
 64129  1  0
 64130  1  0
 65131  1  0
 65132  1  0
 65133  1  0
 66 67  1  0
 66 68  1  6
 66 69  1  0
 67134  1  0
 67135  1  0
 67136  1  0
 68137  1  0
 69 70  1  1
 70138  1  0
M  END
>  <i_m_ct_stereo_status>  (22) 
1

>  <s_m_source_file>  (22) 
/var/tmp/pbs.5075288.sched01/tmpdioscf2v/0xa7vsnym.sdf

>  <i_m_source_file_index>  (22) 
55

>  <i_lp_mmshare_version>  (22) 
48012

>  <i_f3d_flags>  (22) 
0

>  <s_epik_input>  (22) 
W0NIM11DKD1PKU9bQ0BASF0xW0NAQEhdKEMoPVtDSDJdKUMyKFtDSDNdKVtDSDNdKVtDQEBdMihbQ0BASF0zT0MoPU8pW0NIM10pW0NAQF0oW0NIM10pKFtPSF0pW0NAQF0oW09IXSkoW0NAXShbQ0gzXSkoT1tDSDJdNClbQ0BIXTVbT0hdKVtDQEBIXShDKD1PKS9DKFtDSDNdKT1bQ0hdL1tDQEhdNltDSDNdKVtDQEBdMShPQyg9TylbQ0gzXSlbQ0BAXShbT0hdKShDKD1bQ0gyXSlbQ0gzXSlbQ0BIXShPQyg9TylbQ0gzXSlbQ0BAXTMoT0MoPU8pW0NIM10pW1MrXShbTy1dKVtDQEhdN1tDQF0oW0NIM10pKFtPSF0pW0NAQEhdKEM4KFtDSDNdKVtDSDNdKVtDQEhdOFtDQF01KFtDQEBdNDY3KVtPSF0=

>  <s_epik_cmdline>  (22) 
J2VwaWtfcHl0aG9uJywgJy1waHQnLCAnMi4wJywgJy1waCcsICc3LjAnLCAnLXRuJywgJzgnLCAnLW1hJywgJzIwMCcsICctaW1hZScsICc8aW5maWxlLm1hZT4nLCAnLW9tYWUnLCAnPG91dGZpbGUubWFlPic=

>  <r_lp_tautomer_probability>  (22) 
1

>  <r_epik_Ionization_Penalty>  (22) 
0.000166635

>  <r_epik_Ionization_Penalty_Charging>  (22) 
0

>  <r_epik_Ionization_Penalty_Neutral>  (22) 
0.000166635

>  <r_epik_State_Penalty>  (22) 
-0

>  <r_epik_Charging_Adjusted_Penalty>  (22) 
0

>  <i_epik_Tot_Q>  (22) 
0

>  <i_epik_Tot_abs_Q>  (22) 
2

>  <s_epik_Chemistry_Notes>  (22) 
This compound has an ester and may undergo hydrolysis at high or low pH.

>  <s_lp_Force_Field>  (22) 
OPLS3e

>  <r_lp_Energy>  (22) 
442.49

>  <b_lp_Chiralities_Consistent>  (22) 
1

>  <s_lp_Variant>  (22) 
22:0-2

>  <s_i_glide_gridfile>  (22) 
pfpi4k_grid

>  <i_i_glide_lignum>  (22) 
55

>  <i_i_glide_rotatable_bonds>  (22) 
17

>  <r_i_docking_score>  (22) 
-0.88096

>  <r_i_glide_ligand_efficiency>  (22) 
-0.0125851

>  <r_i_glide_ligand_efficiency_sa>  (22) 
-0.051867

>  <r_i_glide_ligand_efficiency_ln>  (22) 
-0.16785

>  <r_i_glide_gscore>  (22) 
-0.88096

>  <r_i_glide_lipo>  (22) 
-0.38279

>  <r_i_glide_hbond>  (22) 
-0.0891072

>  <r_i_glide_metal>  (22) 
-0

>  <r_i_glide_rewards>  (22) 
-0.5

>  <r_i_glide_evdw>  (22) 
4.90198

>  <r_i_glide_ecoul>  (22) 
-6.3475

>  <r_i_glide_erotb>  (22) 
0.132337

>  <r_i_glide_esite>  (22) 
-0.0565268

>  <r_i_glide_emodel>  (22) 
4.70921

>  <r_i_glide_energy>  (22) 
-1.44553

>  <r_i_glide_einternal>  (22) 
12.5098

>  <r_i_glide_intrahb_reward>  (22) 
-0.5

>  <i_i_glide_confnum>  (22) 
1

>  <i_i_glide_posenum>  (22) 
9

>  <r_i_glide_eff_state_penalty>  (22) 
0

>  <ligand_id>  (22) 
22

>  <original_smiles>  (22) 
C=C1C2C(OC(C)=O)C3(OC(C)=O)C4C(=O)C(C)=CC(C)C56COC7(C)C(O)C5(O)C5C(C5(C)C)C(C)(O)C6[S+]([O-])C(OC(C)=O)(C(OC(C)=O)C3(O)C(=C)C)C(OC(C)=O)C2(C1(C)C)C(C)(O)C47O

>  <smiles>  (22) 
[H]OC1([H])C2(C([H])([H])[H])OC([H])([H])C34C([H])(C([H])([H])[H])C([H])=C(C([H])([H])[H])C(=O)C5([H])C6(OC(=O)C([H])([H])[H])C([H])(OC(=O)C([H])([H])[H])C7([H])C(=C([H])[H])C(C([H])([H])[H])(C([H])([H])[H])C7(C([H])(OC(=O)C([H])([H])[H])C(OC(=O)C([H])([H])[H])(S(=O)C3([H])C(O[H])(C([H])([H])[H])C3([H])C([H])(C14O[H])C3(C([H])([H])[H])C([H])([H])[H])C([H])(OC(=O)C([H])([H])[H])C6(O[H])C(=C([H])[H])C([H])([H])[H])C(O[H])(C([H])([H])[H])C52O[H]

$$$$
23:0:0
     RDKit          3D

 85 91  0  0  1  0  0  0  0  0999 V2000
   -0.3825   -4.4819    8.4571 C   0  0  0  0  0  0  0  0  0  0  0  0
    0.7483   -4.0137    7.9088 C   0  0  0  0  0  0  0  0  0  0  0  0
    0.9022   -3.2966    6.5581 C   0  0  1  0  0  0  0  0  0  0  0  0
   -0.4675   -3.0258    5.9208 C   0  0  0  0  0  0  0  0  0  0  0  0
    1.7160   -1.9827    6.6775 C   0  0  0  0  0  0  0  0  0  0  0  0
    3.1317   -2.1032    6.0563 C   0  0  2  0  0  0  0  0  0  0  0  0
    4.0715   -1.0063    6.6128 C   0  0  0  0  0  0  0  0  0  0  0  0
    2.9784   -1.9884    4.6729 O   0  0  0  0  0  0  0  0  0  0  0  0
    4.1379   -1.9913    3.8540 C   0  0  2  0  0  0  0  0  0  0  0  0
    4.6460   -0.2727    3.2933 S   0  0  0  0  0  0  0  0  0  0  0  0
    6.1699   -0.2722    3.2203 O   0  0  0  0  0  0  0  0  0  0  0  0
    3.9531   -0.3433    1.5436 C   0  0  1  0  0  0  0  0  0  0  0  0
    4.9099   -0.4913    0.5070 O   0  0  0  0  0  0  0  0  0  0  0  0
    2.9916   -1.5328    1.7220 C   0  0  1  0  0  0  0  0  0  0  0  0
    1.7048   -0.8816    2.3146 C   0  0  0  0  0  0  0  0  0  0  0  0
    2.5901   -2.7316    0.8416 C   0  0  1  0  0  0  0  0  0  0  0  0
    3.2676   -2.8690   -0.4078 O   0  0  0  0  0  0  0  0  0  0  0  0
    2.6363   -3.3599   -1.5045 C   0  0  0  0  0  0  0  0  0  0  0  0
    3.5080   -3.3567   -2.7427 C   0  0  0  0  0  0  0  0  0  0  0  0
    1.4769   -3.8002   -1.5443 O   0  0  0  0  0  0  0  0  0  0  0  0
    2.8798   -3.7199    2.0630 C   0  0  1  0  0  0  0  0  0  0  0  0
    1.7454   -3.9474    2.8700 O   0  0  0  0  0  0  0  0  0  0  0  0
    3.7351   -5.0474    1.9576 C   0  0  1  0  0  0  0  0  0  0  0  0
    3.7451   -5.4087    0.5863 O   0  0  0  0  0  0  0  0  0  0  0  0
    5.1944   -4.6050    2.2431 C   0  0  1  0  0  0  0  0  0  0  0  0
    6.1982   -5.4037    1.6043 O   0  0  0  0  0  0  0  0  0  0  0  0
    7.1419   -6.0677    2.2806 C   0  0  0  0  0  0  0  0  0  0  0  0
    8.0115   -6.9264    1.3530 C   0  0  0  0  0  0  0  0  0  0  0  0
    7.3261   -6.0326    3.4857 O   0  0  0  0  0  0  0  0  0  0  0  0
    5.2080   -3.1037    1.9559 C   0  0  0  0  0  0  0  0  0  0  0  0
    3.8370   -2.5822    2.4836 C   0  0  2  0  0  0  0  0  0  0  0  0
    3.2862   -6.3807    2.6919 C   0  0  2  0  0  0  0  0  0  0  0  0
    2.0065   -6.9273    2.0675 C   0  0  0  0  0  0  0  0  0  0  0  0
    0.9942   -7.0942    2.9212 C   0  0  0  0  0  0  0  0  0  0  0  0
   -0.4250   -7.5595    2.6622 C   0  0  0  0  0  0  0  0  0  0  0  0
    1.4529   -6.7871    4.2611 C   0  0  0  0  0  0  0  0  0  0  0  0
    0.7338   -6.7679    5.2553 O   0  0  0  0  0  0  0  0  0  0  0  0
    2.9901   -6.5725    4.2584 C   0  0  1  0  0  0  0  0  0  0  0  0
    3.5145   -7.8559    4.5831 O   0  0  0  0  0  0  0  0  0  0  0  0
    3.6044   -5.6320    5.3592 C   0  0  2  0  0  0  0  0  0  0  0  0
    5.1164   -5.7616    5.3720 C   0  0  0  0  0  0  0  0  0  0  0  0
    3.0673   -5.6360    6.8108 C   0  0  0  0  0  0  0  0  0  0  0  0
    2.8838   -4.4189    5.9650 C   0  0  2  0  0  0  0  0  0  0  0  0
    1.5506   -4.1333    5.6189 O   0  0  0  0  0  0  0  0  0  0  0  0
    3.6686   -3.3337    6.4018 O   0  0  0  0  0  0  0  0  0  0  0  0
   -1.3477   -4.3819    7.9787 H   0  0  0  0  0  0  0  0  0  0  0  0
   -0.3663   -4.9845    9.4173 H   0  0  0  0  0  0  0  0  0  0  0  0
    1.6642   -4.1595    8.4624 H   0  0  0  0  0  0  0  0  0  0  0  0
   -1.0781   -2.3809    6.5565 H   0  0  0  0  0  0  0  0  0  0  0  0
   -0.9760   -3.9796    5.7651 H   0  0  0  0  0  0  0  0  0  0  0  0
   -0.3751   -2.5494    4.9394 H   0  0  0  0  0  0  0  0  0  0  0  0
    1.2095   -1.1727    6.1585 H   0  0  0  0  0  0  0  0  0  0  0  0
    1.7883   -1.7022    7.7245 H   0  0  0  0  0  0  0  0  0  0  0  0
    5.0870   -1.1258    6.2330 H   0  0  0  0  0  0  0  0  0  0  0  0
    4.1208   -1.1068    7.6963 H   0  0  0  0  0  0  0  0  0  0  0  0
    3.7001   -0.0091    6.3675 H   0  0  0  0  0  0  0  0  0  0  0  0
    4.9712   -2.5027    4.3469 H   0  0  0  0  0  0  0  0  0  0  0  0
    3.4380    0.6023    1.3486 H   0  0  0  0  0  0  0  0  0  0  0  0
    4.9052    0.2948   -0.0146 H   0  0  0  0  0  0  0  0  0  0  0  0
    0.9908   -1.6074    2.7014 H   0  0  0  0  0  0  0  0  0  0  0  0
    1.1638   -0.2997    1.5644 H   0  0  0  0  0  0  0  0  0  0  0  0
    1.9129   -0.1968    3.1313 H   0  0  0  0  0  0  0  0  0  0  0  0
    1.5203   -2.6350    0.6709 H   0  0  0  0  0  0  0  0  0  0  0  0
    4.3562   -4.0222   -2.5872 H   0  0  0  0  0  0  0  0  0  0  0  0
    3.8685   -2.3441   -2.9189 H   0  0  0  0  0  0  0  0  0  0  0  0
    2.9372   -3.7012   -3.6035 H   0  0  0  0  0  0  0  0  0  0  0  0
    2.0388   -4.0261    3.7638 H   0  0  0  0  0  0  0  0  0  0  0  0
    3.9627   -4.6455    0.0775 H   0  0  0  0  0  0  0  0  0  0  0  0
    5.3208   -4.6231    3.3084 H   0  0  0  0  0  0  0  0  0  0  0  0
    7.4251   -7.6752    0.7882 H   0  0  0  0  0  0  0  0  0  0  0  0
    8.7212   -7.4705    1.9822 H   0  0  0  0  0  0  0  0  0  0  0  0
    8.5739   -6.2714    0.6665 H   0  0  0  0  0  0  0  0  0  0  0  0
    6.0854   -2.6058    2.3681 H   0  0  0  0  0  0  0  0  0  0  0  0
    5.2880   -2.9624    0.8853 H   0  0  0  0  0  0  0  0  0  0  0  0
    4.0509   -7.0989    2.4185 H   0  0  0  0  0  0  0  0  0  0  0  0
    1.9267   -7.1348    1.0118 H   0  0  0  0  0  0  0  0  0  0  0  0
   -0.6418   -8.4520    3.2556 H   0  0  0  0  0  0  0  0  0  0  0  0
   -0.6159   -7.7853    1.6077 H   0  0  0  0  0  0  0  0  0  0  0  0
   -1.1205   -6.7856    2.9898 H   0  0  0  0  0  0  0  0  0  0  0  0
    3.1628   -8.4988    3.9913 H   0  0  0  0  0  0  0  0  0  0  0  0
    5.4486   -6.2818    6.2745 H   0  0  0  0  0  0  0  0  0  0  0  0
    5.5749   -4.7718    5.3777 H   0  0  0  0  0  0  0  0  0  0  0  0
    5.4303   -6.3245    4.5035 H   0  0  0  0  0  0  0  0  0  0  0  0
    2.2463   -6.3083    7.0174 H   0  0  0  0  0  0  0  0  0  0  0  0
    3.8207   -5.5957    7.5885 H   0  0  0  0  0  0  0  0  0  0  0  0
  1  2  2  0
  1 46  1  0
  1 47  1  0
  2  3  1  0
  2 48  1  0
  3 44  1  0
  3  4  1  6
  3  5  1  0
  4 49  1  0
  4 50  1  0
  4 51  1  0
  5  6  1  0
  5 52  1  0
  5 53  1  0
  6 45  1  0
  6  7  1  1
  6  8  1  0
  7 54  1  0
  7 55  1  0
  7 56  1  0
  8  9  1  0
  9 31  1  0
  9 10  1  0
  9 57  1  1
 10 11  2  0
 10 12  1  6
 12 13  1  0
 12 14  1  0
 12 58  1  6
 13 59  1  0
 14 31  1  0
 14 15  1  1
 14 16  1  0
 15 60  1  0
 15 61  1  0
 15 62  1  0
 16 17  1  0
 16 21  1  0
 16 63  1  6
 17 18  1  0
 18 19  1  0
 18 20  2  0
 19 64  1  0
 19 65  1  0
 19 66  1  0
 21 31  1  0
 21 22  1  1
 21 23  1  0
 22 67  1  0
 23 24  1  6
 23 25  1  0
 23 32  1  0
 24 68  1  0
 25 26  1  0
 25 30  1  0
 25 69  1  1
 26 27  1  0
 27 28  1  0
 27 29  2  0
 28 70  1  0
 28 71  1  0
 28 72  1  0
 31 30  1  6
 30 73  1  0
 30 74  1  0
 32 38  1  0
 32 33  1  0
 32 75  1  6
 33 34  2  0
 33 76  1  0
 34 35  1  0
 34 36  1  0
 35 77  1  0
 35 78  1  0
 35 79  1  0
 36 37  2  0
 36 38  1  0
 38 39  1  1
 38 40  1  0
 39 80  1  0
 40 43  1  0
 40 41  1  1
 40 42  1  0
 41 81  1  0
 41 82  1  0
 41 83  1  0
 42 43  1  0
 42 84  1  0
 42 85  1  0
 43 44  1  6
 43 45  1  0
M  END
>  <i_m_ct_stereo_status>  (23) 
1

>  <s_m_source_file>  (23) 
/var/tmp/pbs.5075288.sched01/tmpdioscf2v/0xa7vsnym.sdf

>  <i_m_source_file_index>  (23) 
56

>  <i_lp_mmshare_version>  (23) 
48012

>  <i_f3d_flags>  (23) 
0

>  <s_epik_input>  (23) 
W0NAQF0xMjNbQ0BASF00T1tDQEBdNShbQ0gzXSlbQ0gyXVtDQF0oW0NIM10pKFtDSF09W0NIMl0pT1tDQF02KE81KVtDQEBdKFtDSDNdKShbQ0gyXTYpW0NAXTcoW09IXSlbQ0BASF0oW0NIXT1DKFtDSDNdKUM3PU8pW0NAXShbT0hdKShbQ0BIXShbQ0gyXTMpT0MoPU8pW0NIM10pW0NAXTIoW09IXSlbQ0BASF0oW0NAXTEoW0NIM10pW0NAQEhdKFtTK100W08tXSlbT0hdKU9DKD1PKVtDSDNd

>  <s_epik_cmdline>  (23) 
J2VwaWtfcHl0aG9uJywgJy1waHQnLCAnMi4wJywgJy1waCcsICc3LjAnLCAnLXRuJywgJzgnLCAnLW1hJywgJzIwMCcsICctaW1hZScsICc8aW5maWxlLm1hZT4nLCAnLW9tYWUnLCAnPG91dGZpbGUubWFlPic=

>  <r_lp_tautomer_probability>  (23) 
1

>  <r_epik_Ionization_Penalty>  (23) 
1.34783e-05

>  <r_epik_Ionization_Penalty_Charging>  (23) 
0

>  <r_epik_Ionization_Penalty_Neutral>  (23) 
1.34783e-05

>  <r_epik_State_Penalty>  (23) 
-0

>  <r_epik_Charging_Adjusted_Penalty>  (23) 
0

>  <i_epik_Tot_Q>  (23) 
0

>  <i_epik_Tot_abs_Q>  (23) 
2

>  <s_epik_Chemistry_Notes>  (23) 
This compound has an ester and may undergo hydrolysis at high or low pH. This compound contains an acetal/aminal-like group ( X-CH(R)-Y where X, Y are N, S, or O) that may be acid/base labile, releasing an aldehyde.

>  <s_lp_Force_Field>  (23) 
OPLS3e

>  <r_lp_Energy>  (23) 
94.0346

>  <b_lp_Chiralities_Consistent>  (23) 
1

>  <s_lp_Variant>  (23) 
23:0-1

>  <s_i_glide_gridfile>  (23) 
pfpi4k_grid

>  <i_i_glide_lignum>  (23) 
56

>  <i_i_glide_rotatable_bonds>  (23) 
9

>  <r_i_docking_score>  (23) 
-3.08005

>  <r_i_glide_ligand_efficiency>  (23) 
-0.0684456

>  <r_i_glide_ligand_efficiency_sa>  (23) 
-0.243454

>  <r_i_glide_ligand_efficiency_ln>  (23) 
-0.640788

>  <r_i_glide_gscore>  (23) 
-3.08005

>  <r_i_glide_lipo>  (23) 
-0.143529

>  <r_i_glide_hbond>  (23) 
-0.01173

>  <r_i_glide_metal>  (23) 
-0

>  <r_i_glide_rewards>  (23) 
-1.3289

>  <r_i_glide_evdw>  (23) 
-31.5102

>  <r_i_glide_ecoul>  (23) 
-1.08967

>  <r_i_glide_erotb>  (23) 
0.149604

>  <r_i_glide_esite>  (23) 
-0.00653737

>  <r_i_glide_emodel>  (23) 
-45.398

>  <r_i_glide_energy>  (23) 
-32.5999

>  <r_i_glide_einternal>  (23) 
4.11643

>  <r_i_glide_intrahb_reward>  (23) 
-1

>  <i_i_glide_confnum>  (23) 
4

>  <i_i_glide_posenum>  (23) 
1

>  <r_i_glide_eff_state_penalty>  (23) 
0

>  <ligand_id>  (23) 
23

>  <original_smiles>  (23) 
C=CC1(C)CC2(C)OC3[S+]([O-])C(O)C4(C)C(OC(C)=O)C5(O)C(O)(C(OC(C)=O)CC345)C3C=C(C)C(=O)C3(O)C3(C)CC3(O1)O2

>  <smiles>  (23) 
[H]OC1([H])S(=O)C2([H])OC3(C([H])([H])[H])OC4(OC(C([H])=C([H])[H])(C([H])([H])[H])C3([H])[H])C([H])([H])C4(C([H])([H])[H])C3(O[H])C(=O)C(C([H])([H])[H])=C([H])C3([H])C3(O[H])C([H])(OC(=O)C([H])([H])[H])C([H])([H])C24C3(O[H])C([H])(OC(=O)C([H])([H])[H])C14C([H])([H])[H]

$$$$
23:0:1
     RDKit          3D

 85 91  0  0  1  0  0  0  0  0999 V2000
   -0.4868   -4.6147    8.3509 C   0  0  0  0  0  0  0  0  0  0  0  0
    0.6596   -4.0996    7.8679 C   0  0  0  0  0  0  0  0  0  0  0  0
    0.8407   -3.3315    6.5547 C   0  0  1  0  0  0  0  0  0  0  0  0
   -0.5027   -3.1023    5.8541 C   0  0  0  0  0  0  0  0  0  0  0  0
    1.5944   -1.9936    6.7503 C   0  0  0  0  0  0  0  0  0  0  0  0
    3.0512   -2.0194    6.2100 C   0  0  2  0  0  0  0  0  0  0  0  0
    3.9103   -0.9157    6.8538 C   0  0  0  0  0  0  0  0  0  0  0  0
    2.9767   -1.8661    4.8215 O   0  0  0  0  0  0  0  0  0  0  0  0
    4.1736   -1.7939    4.0745 C   0  0  2  0  0  0  0  0  0  0  0  0
    4.6400   -0.0409    3.6041 S   0  0  0  0  0  0  0  0  0  0  0  0
    6.1547    0.0653    3.6240 O   0  0  0  0  0  0  0  0  0  0  0  0
    4.0383   -0.1016    1.8120 C   0  0  1  0  0  0  0  0  0  0  0  0
    5.0584   -0.1879    0.8363 O   0  0  0  0  0  0  0  0  0  0  0  0
    3.1175   -1.3261    1.8932 C   0  0  1  0  0  0  0  0  0  0  0  0
    1.7744   -0.7498    2.4334 C   0  0  0  0  0  0  0  0  0  0  0  0
    2.8125   -2.5231    0.9512 C   0  0  1  0  0  0  0  0  0  0  0  0
    3.5809   -2.5856   -0.2547 O   0  0  0  0  0  0  0  0  0  0  0  0
    3.0188   -3.0407   -1.3981 C   0  0  0  0  0  0  0  0  0  0  0  0
    3.9753   -3.0022   -2.5791 C   0  0  0  0  0  0  0  0  0  0  0  0
    1.8718   -3.4732   -1.5172 O   0  0  0  0  0  0  0  0  0  0  0  0
    3.0873   -3.5253    2.1623 C   0  0  1  0  0  0  0  0  0  0  0  0
    1.9115   -3.8246    2.8858 O   0  0  0  0  0  0  0  0  0  0  0  0
    4.0085   -4.8117    2.0603 C   0  0  1  0  0  0  0  0  0  0  0  0
    4.1104   -5.1252    0.6798 O   0  0  0  0  0  0  0  0  0  0  0  0
    5.4259   -4.3270    2.4391 C   0  0  1  0  0  0  0  0  0  0  0  0
    6.5386   -5.0225    1.8137 O   0  0  0  0  0  0  0  0  0  0  0  0
    7.2296   -6.0488    2.3813 C   0  0  0  0  0  0  0  0  0  0  0  0
    8.2993   -6.6238    1.4762 C   0  0  0  0  0  0  0  0  0  0  0  0
    7.1198   -6.5322    3.4722 O   0  0  0  0  0  0  0  0  0  0  0  0
    5.3838   -2.8166    2.2025 C   0  0  0  0  0  0  0  0  0  0  0  0
    3.9631   -2.3611    2.6726 C   0  0  2  0  0  0  0  0  0  0  0  0
    3.5770   -6.1862    2.7376 C   0  0  2  0  0  0  0  0  0  0  0  0
    2.3617   -6.7669    2.0202 C   0  0  0  0  0  0  0  0  0  0  0  0
    1.3115   -7.0063    2.8109 C   0  0  0  0  0  0  0  0  0  0  0  0
   -0.0703   -7.5196    2.4632 C   0  0  0  0  0  0  0  0  0  0  0  0
    1.6926   -6.7064    4.1768 C   0  0  0  0  0  0  0  0  0  0  0  0
    0.9243   -6.7729    5.1407 O   0  0  0  0  0  0  0  0  0  0  0  0
    3.2077   -6.4120    4.2852 C   0  0  1  0  0  0  0  0  0  0  0  0
    3.7662   -7.6780    4.6117 O   0  0  0  0  0  0  0  0  0  0  0  0
    3.7034   -5.4767    5.4777 C   0  0  2  0  0  0  0  0  0  0  0  0
    5.2205   -5.5047    5.6032 C   0  0  0  0  0  0  0  0  0  0  0  0
    3.0889   -5.5829    6.8679 C   0  0  0  0  0  0  0  0  0  0  0  0
    2.8979   -4.3363    6.0499 C   0  0  2  0  0  0  0  0  0  0  0  0
    1.5744   -4.1111    5.6206 O   0  0  0  0  0  0  0  0  0  0  0  0
    3.6209   -3.2380    6.5493 O   0  0  0  0  0  0  0  0  0  0  0  0
   -1.4303   -4.5250    7.8338 H   0  0  0  0  0  0  0  0  0  0  0  0
   -0.4945   -5.1520    9.2891 H   0  0  0  0  0  0  0  0  0  0  0  0
    1.5506   -4.2449    8.4608 H   0  0  0  0  0  0  0  0  0  0  0  0
   -1.1596   -2.4913    6.4732 H   0  0  0  0  0  0  0  0  0  0  0  0
   -0.9873   -4.0594    5.6745 H   0  0  0  0  0  0  0  0  0  0  0  0
   -0.3729   -2.6011    4.8899 H   0  0  0  0  0  0  0  0  0  0  0  0
    1.0882   -1.1850    6.2306 H   0  0  0  0  0  0  0  0  0  0  0  0
    1.6047   -1.7317    7.8113 H   0  0  0  0  0  0  0  0  0  0  0  0
    4.9525   -0.9799    6.5270 H   0  0  0  0  0  0  0  0  0  0  0  0
    3.9069   -1.0494    7.9345 H   0  0  0  0  0  0  0  0  0  0  0  0
    3.5127    0.0748    6.6191 H   0  0  0  0  0  0  0  0  0  0  0  0
    4.9997   -2.2931    4.5957 H   0  0  0  0  0  0  0  0  0  0  0  0
    3.5075    0.8439    1.6228 H   0  0  0  0  0  0  0  0  0  0  0  0
    4.9978    0.5714    0.2651 H   0  0  0  0  0  0  0  0  0  0  0  0
    1.0752   -1.5141    2.7591 H   0  0  0  0  0  0  0  0  0  0  0  0
    1.2491   -0.1718    1.6705 H   0  0  0  0  0  0  0  0  0  0  0  0
    1.9067   -0.0805    3.2830 H   0  0  0  0  0  0  0  0  0  0  0  0
    1.7521   -2.5113    0.7318 H   0  0  0  0  0  0  0  0  0  0  0  0
    4.7982   -3.6908   -2.3950 H   0  0  0  0  0  0  0  0  0  0  0  0
    4.3662   -1.9906   -2.6906 H   0  0  0  0  0  0  0  0  0  0  0  0
    3.4606   -3.2953   -3.4967 H   0  0  0  0  0  0  0  0  0  0  0  0
    2.1662   -3.9504    3.7927 H   0  0  0  0  0  0  0  0  0  0  0  0
    4.2926   -4.3249    0.2078 H   0  0  0  0  0  0  0  0  0  0  0  0
    5.5133   -4.3756    3.5104 H   0  0  0  0  0  0  0  0  0  0  0  0
    7.8253   -7.1573    0.6321 H   0  0  0  0  0  0  0  0  0  0  0  0
    8.8153   -7.3396    2.1049 H   0  0  0  0  0  0  0  0  0  0  0  0
    9.0092   -5.8318    1.1675 H   0  0  0  0  0  0  0  0  0  0  0  0
    6.2131   -2.2874    2.6701 H   0  0  0  0  0  0  0  0  0  0  0  0
    5.5183   -2.6383    1.1457 H   0  0  0  0  0  0  0  0  0  0  0  0
    4.3798   -6.8742    2.4832 H   0  0  0  0  0  0  0  0  0  0  0  0
    2.3489   -6.9443    0.9559 H   0  0  0  0  0  0  0  0  0  0  0  0
   -0.2786   -8.4391    3.0184 H   0  0  0  0  0  0  0  0  0  0  0  0
   -0.1928   -7.7199    1.3941 H   0  0  0  0  0  0  0  0  0  0  0  0
   -0.8109   -6.7852    2.7732 H   0  0  0  0  0  0  0  0  0  0  0  0
    3.4675   -7.9182    5.4784 H   0  0  0  0  0  0  0  0  0  0  0  0
    5.5461   -6.0969    6.4732 H   0  0  0  0  0  0  0  0  0  0  0  0
    5.6417   -4.4784    5.6804 H   0  0  0  0  0  0  0  0  0  0  0  0
    5.4873   -5.9789    4.7374 H   0  0  0  0  0  0  0  0  0  0  0  0
    2.2943   -6.3013    6.9926 H   0  0  0  0  0  0  0  0  0  0  0  0
    3.8019   -5.5411    7.6831 H   0  0  0  0  0  0  0  0  0  0  0  0
  1  2  2  0
  1 46  1  0
  1 47  1  0
  2  3  1  0
  2 48  1  0
  3 44  1  0
  3  4  1  6
  3  5  1  0
  4 49  1  0
  4 50  1  0
  4 51  1  0
  5  6  1  0
  5 52  1  0
  5 53  1  0
  6 45  1  0
  6  7  1  1
  6  8  1  0
  7 54  1  0
  7 55  1  0
  7 56  1  0
  8  9  1  0
  9 31  1  0
  9 10  1  0
  9 57  1  1
 10 11  2  0
 10 12  1  6
 12 13  1  0
 12 14  1  0
 12 58  1  6
 13 59  1  0
 14 31  1  0
 14 15  1  1
 14 16  1  0
 15 60  1  0
 15 61  1  0
 15 62  1  0
 16 17  1  0
 16 21  1  0
 16 63  1  6
 17 18  1  0
 18 19  1  0
 18 20  2  0
 19 64  1  0
 19 65  1  0
 19 66  1  0
 21 31  1  0
 21 22  1  1
 21 23  1  0
 22 67  1  0
 23 24  1  6
 23 25  1  0
 23 32  1  0
 24 68  1  0
 25 26  1  0
 25 30  1  0
 25 69  1  1
 26 27  1  0
 27 28  1  0
 27 29  2  0
 28 70  1  0
 28 71  1  0
 28 72  1  0
 31 30  1  6
 30 73  1  0
 30 74  1  0
 32 38  1  0
 32 33  1  0
 32 75  1  6
 33 34  2  0
 33 76  1  0
 34 35  1  0
 34 36  1  0
 35 77  1  0
 35 78  1  0
 35 79  1  0
 36 37  2  0
 36 38  1  0
 38 39  1  1
 38 40  1  0
 39 80  1  0
 40 43  1  0
 40 41  1  1
 40 42  1  0
 41 81  1  0
 41 82  1  0
 41 83  1  0
 42 43  1  0
 42 84  1  0
 42 85  1  0
 43 44  1  6
 43 45  1  0
M  END
>  <i_m_ct_stereo_status>  (24) 
1

>  <s_m_source_file>  (24) 
/var/tmp/pbs.5075288.sched01/tmpdioscf2v/0xa7vsnym.sdf

>  <i_m_source_file_index>  (24) 
56

>  <i_lp_mmshare_version>  (24) 
48012

>  <i_f3d_flags>  (24) 
0

>  <s_epik_input>  (24) 
W0NAQF0xMjNbQ0BASF00T1tDQEBdNShbQ0gzXSlbQ0gyXVtDQF0oW0NIM10pKFtDSF09W0NIMl0pT1tDQF02KE81KVtDQEBdKFtDSDNdKShbQ0gyXTYpW0NAXTcoW09IXSlbQ0BASF0oW0NIXT1DKFtDSDNdKUM3PU8pW0NAXShbT0hdKShbQ0BIXShbQ0gyXTMpT0MoPU8pW0NIM10pW0NAXTIoW09IXSlbQ0BASF0oW0NAXTEoW0NIM10pW0NAQEhdKFtTK100W08tXSlbT0hdKU9DKD1PKVtDSDNd

>  <s_epik_cmdline>  (24) 
J2VwaWtfcHl0aG9uJywgJy1waHQnLCAnMi4wJywgJy1waCcsICc3LjAnLCAnLXRuJywgJzgnLCAnLW1hJywgJzIwMCcsICctaW1hZScsICc8aW5maWxlLm1hZT4nLCAnLW9tYWUnLCAnPG91dGZpbGUubWFlPic=

>  <r_lp_tautomer_probability>  (24) 
1

>  <r_epik_Ionization_Penalty>  (24) 
1.34783e-05

>  <r_epik_Ionization_Penalty_Charging>  (24) 
0

>  <r_epik_Ionization_Penalty_Neutral>  (24) 
1.34783e-05

>  <r_epik_State_Penalty>  (24) 
-0

>  <r_epik_Charging_Adjusted_Penalty>  (24) 
0

>  <i_epik_Tot_Q>  (24) 
0

>  <i_epik_Tot_abs_Q>  (24) 
2

>  <s_epik_Chemistry_Notes>  (24) 
This compound has an ester and may undergo hydrolysis at high or low pH. This compound contains an acetal/aminal-like group ( X-CH(R)-Y where X, Y are N, S, or O) that may be acid/base labile, releasing an aldehyde.

>  <s_lp_Force_Field>  (24) 
OPLS3e

>  <r_lp_Energy>  (24) 
94.0346

>  <b_lp_Chiralities_Consistent>  (24) 
1

>  <s_lp_Variant>  (24) 
23:0-1

>  <s_i_glide_gridfile>  (24) 
pfpi4k_grid

>  <i_i_glide_lignum>  (24) 
56

>  <i_i_glide_rotatable_bonds>  (24) 
9

>  <r_i_docking_score>  (24) 
-2.80853

>  <r_i_glide_ligand_efficiency>  (24) 
-0.0624118

>  <r_i_glide_ligand_efficiency_sa>  (24) 
-0.221992

>  <r_i_glide_ligand_efficiency_ln>  (24) 
-0.584299

>  <r_i_glide_gscore>  (24) 
-2.80853

>  <r_i_glide_lipo>  (24) 
-0.126697

>  <r_i_glide_hbond>  (24) 
-0.0040451

>  <r_i_glide_metal>  (24) 
-0

>  <r_i_glide_rewards>  (24) 
-1.10383

>  <r_i_glide_evdw>  (24) 
-32.2131

>  <r_i_glide_ecoul>  (24) 
-0.721103

>  <r_i_glide_erotb>  (24) 
0.149604

>  <r_i_glide_esite>  (24) 
-0.00473632

>  <r_i_glide_emodel>  (24) 
-43.7346

>  <r_i_glide_energy>  (24) 
-32.9342

>  <r_i_glide_einternal>  (24) 
3.75731

>  <r_i_glide_intrahb_reward>  (24) 
-1

>  <i_i_glide_confnum>  (24) 
4

>  <i_i_glide_posenum>  (24) 
19

>  <r_i_glide_eff_state_penalty>  (24) 
0

>  <ligand_id>  (24) 
23

>  <original_smiles>  (24) 
C=CC1(C)CC2(C)OC3[S+]([O-])C(O)C4(C)C(OC(C)=O)C5(O)C(O)(C(OC(C)=O)CC345)C3C=C(C)C(=O)C3(O)C3(C)CC3(O1)O2

>  <smiles>  (24) 
[H]OC1([H])S(=O)C2([H])OC3(C([H])([H])[H])OC4(OC(C([H])=C([H])[H])(C([H])([H])[H])C3([H])[H])C([H])([H])C4(C([H])([H])[H])C3(O[H])C(=O)C(C([H])([H])[H])=C([H])C3([H])C3(O[H])C([H])(OC(=O)C([H])([H])[H])C([H])([H])C24C3(O[H])C([H])(OC(=O)C([H])([H])[H])C14C([H])([H])[H]

$$$$
23:0:2
     RDKit          3D

 85 91  0  0  1  0  0  0  0  0999 V2000
   -0.4583   -4.7189    8.3491 C   0  0  0  0  0  0  0  0  0  0  0  0
    0.6753   -4.2077    7.8658 C   0  0  0  0  0  0  0  0  0  0  0  0
    0.8457   -3.4309    6.5524 C   0  0  1  0  0  0  0  0  0  0  0  0
   -0.5004   -3.1961    5.8517 C   0  0  0  0  0  0  0  0  0  0  0  0
    1.6184   -2.1059    6.7341 C   0  0  0  0  0  0  0  0  0  0  0  0
    3.0669   -2.1328    6.1781 C   0  0  2  0  0  0  0  0  0  0  0  0
    3.9381   -1.0360    6.8104 C   0  0  0  0  0  0  0  0  0  0  0  0
    2.9801   -1.9794    4.7921 O   0  0  0  0  0  0  0  0  0  0  0  0
    4.1721   -1.9147    4.0306 C   0  0  2  0  0  0  0  0  0  0  0  0
    4.6278   -0.1610    3.5462 S   0  0  0  0  0  0  0  0  0  0  0  0
    6.1454   -0.0701    3.5586 O   0  0  0  0  0  0  0  0  0  0  0  0
    4.0096   -0.2092    1.7623 C   0  0  1  0  0  0  0  0  0  0  0  0
    5.0164   -0.2950    0.7812 O   0  0  0  0  0  0  0  0  0  0  0  0
    3.0905   -1.4264    1.8570 C   0  0  1  0  0  0  0  0  0  0  0  0
    1.7584   -0.8440    2.4144 C   0  0  0  0  0  0  0  0  0  0  0  0
    2.7686   -2.6157    0.9073 C   0  0  1  0  0  0  0  0  0  0  0  0
    3.5221   -2.6566   -0.3164 O   0  0  0  0  0  0  0  0  0  0  0  0
    2.9555   -3.1435   -1.4352 C   0  0  0  0  0  0  0  0  0  0  0  0
    3.8750   -3.0680   -2.6342 C   0  0  0  0  0  0  0  0  0  0  0  0
    1.8359   -3.6584   -1.5115 O   0  0  0  0  0  0  0  0  0  0  0  0
    3.0575   -3.6239    2.1213 C   0  0  1  0  0  0  0  0  0  0  0  0
    1.8915   -3.9478    2.8385 O   0  0  0  0  0  0  0  0  0  0  0  0
    3.9622   -4.9091    2.0136 C   0  0  1  0  0  0  0  0  0  0  0  0
    4.0540   -5.2292    0.6360 O   0  0  0  0  0  0  0  0  0  0  0  0
    5.3835   -4.4373    2.3723 C   0  0  1  0  0  0  0  0  0  0  0  0
    6.4689   -5.1706    1.7253 O   0  0  0  0  0  0  0  0  0  0  0  0
    7.3103   -6.0021    2.4107 C   0  0  0  0  0  0  0  0  0  0  0  0
    8.2796   -6.7035    1.4256 C   0  0  0  0  0  0  0  0  0  0  0  0
    7.3862   -6.1617    3.6002 O   0  0  0  0  0  0  0  0  0  0  0  0
    5.3557   -2.9248    2.1493 C   0  0  0  0  0  0  0  0  0  0  0  0
    3.9382   -2.4679    2.6297 C   0  0  2  0  0  0  0  0  0  0  0  0
    3.5285   -6.2877    2.6923 C   0  0  2  0  0  0  0  0  0  0  0  0
    2.3037   -6.8636    1.9854 C   0  0  0  0  0  0  0  0  0  0  0  0
    1.2668   -7.0915    2.7742 C   0  0  0  0  0  0  0  0  0  0  0  0
   -0.1261   -7.6082    2.4394 C   0  0  0  0  0  0  0  0  0  0  0  0
    1.6572   -6.8036    4.1482 C   0  0  0  0  0  0  0  0  0  0  0  0
    0.9032   -6.8692    5.1082 O   0  0  0  0  0  0  0  0  0  0  0  0
    3.1770   -6.5415    4.2290 C   0  0  1  0  0  0  0  0  0  0  0  0
    3.7474   -7.8148    4.5285 O   0  0  0  0  0  0  0  0  0  0  0  0
    3.6898   -5.6152    5.4194 C   0  0  2  0  0  0  0  0  0  0  0  0
    5.2160   -5.6773    5.4863 C   0  0  0  0  0  0  0  0  0  0  0  0
    3.0794   -5.6718    6.8218 C   0  0  0  0  0  0  0  0  0  0  0  0
    2.8980   -4.4565    5.9948 C   0  0  2  0  0  0  0  0  0  0  0  0
    1.5486   -4.2232    5.6198 O   0  0  0  0  0  0  0  0  0  0  0  0
    3.6262   -3.3544    6.4991 O   0  0  0  0  0  0  0  0  0  0  0  0
   -1.4051   -4.6302    7.8368 H   0  0  0  0  0  0  0  0  0  0  0  0
   -0.4605   -5.2629    9.2820 H   0  0  0  0  0  0  0  0  0  0  0  0
    1.5864   -4.3534    8.4425 H   0  0  0  0  0  0  0  0  0  0  0  0
   -1.1477   -2.5852    6.4828 H   0  0  0  0  0  0  0  0  0  0  0  0
   -0.9824   -4.1515    5.6501 H   0  0  0  0  0  0  0  0  0  0  0  0
   -0.3710   -2.6871    4.8904 H   0  0  0  0  0  0  0  0  0  0  0  0
    1.1101   -1.2967    6.2236 H   0  0  0  0  0  0  0  0  0  0  0  0
    1.6401   -1.8561    7.7967 H   0  0  0  0  0  0  0  0  0  0  0  0
    4.9771   -1.1056    6.4752 H   0  0  0  0  0  0  0  0  0  0  0  0
    3.9454   -1.1763    7.8886 H   0  0  0  0  0  0  0  0  0  0  0  0
    3.5409   -0.0419    6.5849 H   0  0  0  0  0  0  0  0  0  0  0  0
    5.0068   -2.4240    4.5483 H   0  0  0  0  0  0  0  0  0  0  0  0
    3.4853    0.7395    1.5846 H   0  0  0  0  0  0  0  0  0  0  0  0
    4.9273    0.4366    0.1789 H   0  0  0  0  0  0  0  0  0  0  0  0
    1.0488   -1.5929    2.7446 H   0  0  0  0  0  0  0  0  0  0  0  0
    1.2285   -0.2558    1.6648 H   0  0  0  0  0  0  0  0  0  0  0  0
    1.9092   -0.1801    3.2625 H   0  0  0  0  0  0  0  0  0  0  0  0
    1.7014   -2.5893    0.7119 H   0  0  0  0  0  0  0  0  0  0  0  0
    4.7421   -3.7059   -2.4640 H   0  0  0  0  0  0  0  0  0  0  0  0
    4.2017   -2.0360   -2.7593 H   0  0  0  0  0  0  0  0  0  0  0  0
    3.3550   -3.4037   -3.5322 H   0  0  0  0  0  0  0  0  0  0  0  0
    1.4908   -3.1255    3.0991 H   0  0  0  0  0  0  0  0  0  0  0  0
    4.2334   -4.4308    0.1587 H   0  0  0  0  0  0  0  0  0  0  0  0
    5.4739   -4.4869    3.4370 H   0  0  0  0  0  0  0  0  0  0  0  0
    7.7384   -7.3575    0.6970 H   0  0  0  0  0  0  0  0  0  0  0  0
    8.8802   -7.3293    2.0898 H   0  0  0  0  0  0  0  0  0  0  0  0
    8.9265   -5.9364    0.9509 H   0  0  0  0  0  0  0  0  0  0  0  0
    6.2009   -2.4037    2.6015 H   0  0  0  0  0  0  0  0  0  0  0  0
    5.4684   -2.7465    1.0994 H   0  0  0  0  0  0  0  0  0  0  0  0
    4.3310   -6.9654    2.4147 H   0  0  0  0  0  0  0  0  0  0  0  0
    2.2811   -7.0368    0.9166 H   0  0  0  0  0  0  0  0  0  0  0  0
   -0.3287   -8.5259    2.9996 H   0  0  0  0  0  0  0  0  0  0  0  0
   -0.2596   -7.8039    1.3667 H   0  0  0  0  0  0  0  0  0  0  0  0
   -0.8550   -6.8716    2.7642 H   0  0  0  0  0  0  0  0  0  0  0  0
    3.4387   -8.4497    3.8987 H   0  0  0  0  0  0  0  0  0  0  0  0
    5.5250   -6.2351    6.3847 H   0  0  0  0  0  0  0  0  0  0  0  0
    5.6296   -4.6504    5.5517 H   0  0  0  0  0  0  0  0  0  0  0  0
    5.4885   -6.2059    4.5874 H   0  0  0  0  0  0  0  0  0  0  0  0
    2.2967   -6.4204    6.9426 H   0  0  0  0  0  0  0  0  0  0  0  0
    3.8289   -5.6585    7.6189 H   0  0  0  0  0  0  0  0  0  0  0  0
  1  2  2  0
  1 46  1  0
  1 47  1  0
  2  3  1  0
  2 48  1  0
  3 44  1  0
  3  4  1  6
  3  5  1  0
  4 49  1  0
  4 50  1  0
  4 51  1  0
  5  6  1  0
  5 52  1  0
  5 53  1  0
  6 45  1  0
  6  7  1  1
  6  8  1  0
  7 54  1  0
  7 55  1  0
  7 56  1  0
  8  9  1  0
  9 31  1  0
  9 10  1  0
  9 57  1  1
 10 11  2  0
 10 12  1  6
 12 13  1  0
 12 14  1  0
 12 58  1  6
 13 59  1  0
 14 31  1  0
 14 15  1  1
 14 16  1  0
 15 60  1  0
 15 61  1  0
 15 62  1  0
 16 17  1  0
 16 21  1  0
 16 63  1  6
 17 18  1  0
 18 19  1  0
 18 20  2  0
 19 64  1  0
 19 65  1  0
 19 66  1  0
 21 31  1  0
 21 22  1  1
 21 23  1  0
 22 67  1  0
 23 24  1  6
 23 25  1  0
 23 32  1  0
 24 68  1  0
 25 26  1  0
 25 30  1  0
 25 69  1  1
 26 27  1  0
 27 28  1  0
 27 29  2  0
 28 70  1  0
 28 71  1  0
 28 72  1  0
 31 30  1  6
 30 73  1  0
 30 74  1  0
 32 38  1  0
 32 33  1  0
 32 75  1  6
 33 34  2  0
 33 76  1  0
 34 35  1  0
 34 36  1  0
 35 77  1  0
 35 78  1  0
 35 79  1  0
 36 37  2  0
 36 38  1  0
 38 39  1  1
 38 40  1  0
 39 80  1  0
 40 43  1  0
 40 41  1  1
 40 42  1  0
 41 81  1  0
 41 82  1  0
 41 83  1  0
 42 43  1  0
 42 84  1  0
 42 85  1  0
 43 44  1  6
 43 45  1  0
M  END
>  <i_m_ct_stereo_status>  (25) 
1

>  <s_m_source_file>  (25) 
/var/tmp/pbs.5075288.sched01/tmpdioscf2v/0xa7vsnym.sdf

>  <i_m_source_file_index>  (25) 
56

>  <i_lp_mmshare_version>  (25) 
48012

>  <i_f3d_flags>  (25) 
0

>  <s_epik_input>  (25) 
W0NAQF0xMjNbQ0BASF00T1tDQEBdNShbQ0gzXSlbQ0gyXVtDQF0oW0NIM10pKFtDSF09W0NIMl0pT1tDQF02KE81KVtDQEBdKFtDSDNdKShbQ0gyXTYpW0NAXTcoW09IXSlbQ0BASF0oW0NIXT1DKFtDSDNdKUM3PU8pW0NAXShbT0hdKShbQ0BIXShbQ0gyXTMpT0MoPU8pW0NIM10pW0NAXTIoW09IXSlbQ0BASF0oW0NAXTEoW0NIM10pW0NAQEhdKFtTK100W08tXSlbT0hdKU9DKD1PKVtDSDNd

>  <s_epik_cmdline>  (25) 
J2VwaWtfcHl0aG9uJywgJy1waHQnLCAnMi4wJywgJy1waCcsICc3LjAnLCAnLXRuJywgJzgnLCAnLW1hJywgJzIwMCcsICctaW1hZScsICc8aW5maWxlLm1hZT4nLCAnLW9tYWUnLCAnPG91dGZpbGUubWFlPic=

>  <r_lp_tautomer_probability>  (25) 
1

>  <r_epik_Ionization_Penalty>  (25) 
1.34783e-05

>  <r_epik_Ionization_Penalty_Charging>  (25) 
0

>  <r_epik_Ionization_Penalty_Neutral>  (25) 
1.34783e-05

>  <r_epik_State_Penalty>  (25) 
-0

>  <r_epik_Charging_Adjusted_Penalty>  (25) 
0

>  <i_epik_Tot_Q>  (25) 
0

>  <i_epik_Tot_abs_Q>  (25) 
2

>  <s_epik_Chemistry_Notes>  (25) 
This compound has an ester and may undergo hydrolysis at high or low pH. This compound contains an acetal/aminal-like group ( X-CH(R)-Y where X, Y are N, S, or O) that may be acid/base labile, releasing an aldehyde.

>  <s_lp_Force_Field>  (25) 
OPLS3e

>  <r_lp_Energy>  (25) 
94.0346

>  <b_lp_Chiralities_Consistent>  (25) 
1

>  <s_lp_Variant>  (25) 
23:0-1

>  <s_i_glide_gridfile>  (25) 
pfpi4k_grid

>  <i_i_glide_lignum>  (25) 
56

>  <i_i_glide_rotatable_bonds>  (25) 
9

>  <r_i_docking_score>  (25) 
-2.62309

>  <r_i_glide_ligand_efficiency>  (25) 
-0.0582908

>  <r_i_glide_ligand_efficiency_sa>  (25) 
-0.207334

>  <r_i_glide_ligand_efficiency_ln>  (25) 
-0.545719

>  <r_i_glide_gscore>  (25) 
-2.62309

>  <r_i_glide_lipo>  (25) 
-0.137383

>  <r_i_glide_hbond>  (25) 
0

>  <r_i_glide_metal>  (25) 
-0

>  <r_i_glide_rewards>  (25) 
-0.66223

>  <r_i_glide_evdw>  (25) 
-31.9623

>  <r_i_glide_ecoul>  (25) 
-2.46398

>  <r_i_glide_erotb>  (25) 
0.149604

>  <r_i_glide_esite>  (25) 
-0.00536711

>  <r_i_glide_emodel>  (25) 
-39.491

>  <r_i_glide_energy>  (25) 
-34.4262

>  <r_i_glide_einternal>  (25) 
3.61477

>  <r_i_glide_intrahb_reward>  (25) 
-0.5

>  <i_i_glide_confnum>  (25) 
4

>  <i_i_glide_posenum>  (25) 
5

>  <r_i_glide_eff_state_penalty>  (25) 
0

>  <ligand_id>  (25) 
23

>  <original_smiles>  (25) 
C=CC1(C)CC2(C)OC3[S+]([O-])C(O)C4(C)C(OC(C)=O)C5(O)C(O)(C(OC(C)=O)CC345)C3C=C(C)C(=O)C3(O)C3(C)CC3(O1)O2

>  <smiles>  (25) 
[H]OC1([H])S(=O)C2([H])OC3(C([H])([H])[H])OC4(OC(C([H])=C([H])[H])(C([H])([H])[H])C3([H])[H])C([H])([H])C4(C([H])([H])[H])C3(O[H])C(=O)C(C([H])([H])[H])=C([H])C3([H])C3(O[H])C([H])(OC(=O)C([H])([H])[H])C([H])([H])C24C3(O[H])C([H])(OC(=O)C([H])([H])[H])C14C([H])([H])[H]

$$$$
25:0:0
     RDKit          3D

133143  0  0  1  0  0  0  0  0999 V2000
   -1.4515   -7.5608    4.4824 C   0  0  0  0  0  0  0  0  0  0  0  0
   -0.1722   -7.4952    5.0979 O   0  0  0  0  0  0  0  0  0  0  0  0
    0.9634   -7.7020    4.3262 C   0  0  1  0  0  0  0  0  0  0  0  0
    1.0763   -9.1920    4.0125 C   0  0  0  0  0  0  0  0  0  0  0  0
    0.8871   -7.0459    3.0967 O   0  0  0  0  0  0  0  0  0  0  0  0
    0.9444   -5.6289    3.1880 C   0  0  0  0  0  0  0  0  0  0  0  0
    2.3113   -5.2686    3.7918 C   0  0  2  0  0  0  0  0  0  0  0  0
    2.5316   -6.0065    5.1896 C   0  0  2  0  0  0  0  0  0  0  0  0
    2.1209   -7.3770    5.0540 O   0  0  0  0  0  0  0  0  0  0  0  0
    2.4411   -5.5528    6.7333 C   0  0  2  0  0  0  0  0  0  0  0  0
    3.6911   -6.1684    7.4421 C   0  0  0  0  0  0  0  0  0  0  0  0
    3.7251   -5.5432    8.8238 C   0  0  0  0  0  0  0  0  0  0  0  0
    2.4771   -4.6605    8.7888 C   0  0  2  0  0  0  0  0  0  0  0  0
    2.4907   -3.7221    9.9951 C   0  0  0  0  0  0  0  0  0  0  0  0
    1.3938   -5.5820    8.8474 O   0  0  0  0  0  0  0  0  0  0  0  0
    1.2914   -6.1811    7.5868 C   0  0  1  0  0  0  0  0  0  0  0  0
    0.0085   -6.0086    7.0963 O   0  0  0  0  0  0  0  0  0  0  0  0
   -0.6541   -4.7664    7.1190 C   0  0  1  0  0  0  0  0  0  0  0  0
   -1.2135   -4.3395    8.4802 C   0  0  0  0  0  0  0  0  0  0  0  0
    0.0786   -3.7057    6.3046 C   0  0  0  0  0  0  0  0  0  0  0  0
    1.4389   -3.0946    6.7901 C   0  0  1  0  0  0  0  0  0  0  0  0
    2.1900   -2.7422    5.6052 O   0  0  0  0  0  0  0  0  0  0  0  0
    2.3418   -1.3262    5.3991 C   0  0  2  0  0  0  0  0  0  0  0  0
    2.7272   -1.2887    3.9000 C   0  0  2  0  0  0  0  0  0  0  0  0
    2.3882   -2.5955    3.0494 C   0  0  0  0  0  0  0  0  0  0  0  0
    3.0824   -4.0264    3.1197 C   0  0  2  0  0  0  0  0  0  0  0  0
    2.9431   -4.4919    1.7500 O   0  0  0  0  0  0  0  0  0  0  0  0
    3.7056   -4.1963    0.6013 C   0  0  1  0  0  0  0  0  0  0  0  0
    4.0484   -2.8782    0.3957 O   0  0  0  0  0  0  0  0  0  0  0  0
    5.0870   -2.8287   -0.4970 C   0  0  0  0  0  0  0  0  0  0  0  0
    5.5608   -1.7203   -0.9732 N   0  0  0  0  0  0  0  0  0  0  0  0
    6.6262   -1.9952   -1.8432 O   0  0  0  0  0  0  0  0  0  0  0  0
    5.5648   -4.2200   -0.7628 C   0  0  0  0  0  0  0  0  0  0  0  0
    4.9807   -5.0260    0.3958 C   0  0  2  0  0  0  0  0  0  0  0  0
    4.7294   -6.3542   -0.0435 O   0  0  0  0  0  0  0  0  0  0  0  0
    5.9742   -5.0504    1.5776 C   0  0  0  0  0  0  0  0  0  0  0  0
    5.3364   -5.3510    2.8016 O   0  0  0  0  0  0  0  0  0  0  0  0
    4.8565   -3.9751    3.6706 S   0  0  0  0  0  0  0  0  0  0  0  0
    4.9546   -4.3212    5.1696 O   0  0  0  0  0  0  0  0  0  0  0  0
    4.0898   -0.5352    3.6773 C   0  0  0  0  0  0  0  0  0  0  0  0
    4.8121   -0.8038    2.3493 C   0  0  0  0  0  0  0  0  0  0  0  0
    3.7908    0.9750    3.6329 C   0  0  0  0  0  0  0  0  0  0  0  0
    5.0994   -0.8477    4.6958 O   0  0  0  0  0  0  0  0  0  0  0  0
    4.7572   -1.2385    6.0140 C   0  0  1  0  0  0  0  0  0  0  0  0
    5.7276   -0.7876    6.9397 O   0  0  0  0  0  0  0  0  0  0  0  0
    3.3839   -0.6888    6.3993 C   0  0  1  0  0  0  0  0  0  0  0  0
    3.4921    0.7288    6.4910 O   0  0  0  0  0  0  0  0  0  0  0  0
    2.6930   -1.0826    7.6918 C   0  0  0  0  0  0  0  0  0  0  0  0
    3.1135   -0.8582    8.8443 O   0  0  0  0  0  0  0  0  0  0  0  0
    1.3132   -1.6300    7.3130 C   0  0  2  0  0  0  0  0  0  0  0  0
    0.2340   -1.3664    8.3604 C   0  0  0  0  0  0  0  0  0  0  0  0
    0.9976   -0.8991    5.9520 C   0  0  1  0  0  0  0  0  0  0  0  0
    0.7747    0.5439    6.0313 O   0  0  0  0  0  0  0  0  0  0  0  0
   -0.4084    1.1221    5.5496 C   0  0  1  0  0  0  0  0  0  0  0  0
   -1.4317    0.9424    6.7295 C   0  0  0  0  0  0  0  0  0  0  0  0
   -0.2573    2.5294    5.3347 O   0  0  0  0  0  0  0  0  0  0  0  0
    0.8897    2.9221    4.6086 C   0  0  2  0  0  0  0  0  0  0  0  0
    2.0674    2.8593    5.3927 O   0  0  0  0  0  0  0  0  0  0  0  0
    2.5948    4.1537    5.7020 C   0  0  1  0  0  0  0  0  0  0  0  0
    3.8671    4.4013    4.8685 C   0  0  0  0  0  0  0  0  0  0  0  0
    1.4198    5.0934    5.4056 C   0  0  1  0  0  0  0  0  0  0  0  0
    1.8080    6.4102    5.0783 O   0  0  0  0  0  0  0  0  0  0  0  0
    0.7239    4.4150    4.2244 C   0  0  1  0  0  0  0  0  0  0  0  0
    1.3682    4.7432    2.9720 O   0  0  0  0  0  0  0  0  0  0  0  0
   -0.8983    0.4397    4.2239 C   0  0  2  0  0  0  0  0  0  0  0  0
   -1.6106    1.3762    3.2517 C   0  0  0  0  0  0  0  0  0  0  0  0
   -1.7959   -0.6394    4.4784 O   0  0  0  0  0  0  0  0  0  0  0  0
    2.4800   -4.1244    7.3342 C   0  0  2  0  0  0  0  0  0  0  0  0
   -2.1422   -7.1488    5.1881 H   0  0  0  0  0  0  0  0  0  0  0  0
   -1.7387   -8.5970    4.2387 H   0  0  0  0  0  0  0  0  0  0  0  0
   -1.5222   -6.9322    3.5958 H   0  0  0  0  0  0  0  0  0  0  0  0
    2.0219   -9.3956    3.5050 H   0  0  0  0  0  0  0  0  0  0  0  0
    0.2612   -9.5201    3.3591 H   0  0  0  0  0  0  0  0  0  0  0  0
    1.0420   -9.7817    4.9291 H   0  0  0  0  0  0  0  0  0  0  0  0
    0.8091   -5.2602    2.1716 H   0  0  0  0  0  0  0  0  0  0  0  0
    0.0940   -5.2553    3.7376 H   0  0  0  0  0  0  0  0  0  0  0  0
    2.9124   -6.0208    3.2481 H   0  0  0  0  0  0  0  0  0  0  0  0
    3.5978   -6.1912    5.1003 H   0  0  0  0  0  0  0  0  0  0  0  0
    3.6339   -7.2545    7.4849 H   0  0  0  0  0  0  0  0  0  0  0  0
    4.6214   -5.9213    6.9356 H   0  0  0  0  0  0  0  0  0  0  0  0
    3.6720   -6.2907    9.6176 H   0  0  0  0  0  0  0  0  0  0  0  0
    4.6292   -4.9533    8.9547 H   0  0  0  0  0  0  0  0  0  0  0  0
    3.3544   -3.0578    9.9928 H   0  0  0  0  0  0  0  0  0  0  0  0
    2.5085   -4.2878   10.9273 H   0  0  0  0  0  0  0  0  0  0  0  0
    1.6066   -3.1251   10.0619 H   0  0  0  0  0  0  0  0  0  0  0  0
    1.4119   -7.2577    7.6962 H   0  0  0  0  0  0  0  0  0  0  0  0
   -1.5525   -4.9818    6.5427 H   0  0  0  0  0  0  0  0  0  0  0  0
   -1.8912   -3.4988    8.3495 H   0  0  0  0  0  0  0  0  0  0  0  0
   -0.4428   -4.0505    9.1925 H   0  0  0  0  0  0  0  0  0  0  0  0
   -1.8102   -5.1291    8.9306 H   0  0  0  0  0  0  0  0  0  0  0  0
    0.2630   -4.1235    5.3274 H   0  0  0  0  0  0  0  0  0  0  0  0
   -0.6975   -2.9707    6.1184 H   0  0  0  0  0  0  0  0  0  0  0  0
    1.9928   -0.6176    3.4483 H   0  0  0  0  0  0  0  0  0  0  0  0
    1.3156   -2.7889    3.1592 H   0  0  0  0  0  0  0  0  0  0  0  0
    2.4564   -2.2526    2.0252 H   0  0  0  0  0  0  0  0  0  0  0  0
    3.0150   -4.4177   -0.2112 H   0  0  0  0  0  0  0  0  0  0  0  0
    6.6702   -2.9189   -1.9377 H   0  0  0  0  0  0  0  0  0  0  0  0
    5.1618   -4.5532   -1.7243 H   0  0  0  0  0  0  0  0  0  0  0  0
    6.6573   -4.2179   -0.8064 H   0  0  0  0  0  0  0  0  0  0  0  0
    4.1593   -6.3450   -0.8005 H   0  0  0  0  0  0  0  0  0  0  0  0
    6.7345   -5.8184    1.3917 H   0  0  0  0  0  0  0  0  0  0  0  0
    6.5281   -4.1168    1.6598 H   0  0  0  0  0  0  0  0  0  0  0  0
    4.1424   -0.6431    1.5065 H   0  0  0  0  0  0  0  0  0  0  0  0
    5.2377   -1.7909    2.2954 H   0  0  0  0  0  0  0  0  0  0  0  0
    5.6482   -0.1085    2.2322 H   0  0  0  0  0  0  0  0  0  0  0  0
    3.6194    1.3161    2.6184 H   0  0  0  0  0  0  0  0  0  0  0  0
    4.6237    1.5434    4.0440 H   0  0  0  0  0  0  0  0  0  0  0  0
    2.8997    1.2137    4.1856 H   0  0  0  0  0  0  0  0  0  0  0  0
    4.7437   -2.2975    6.0918 H   0  0  0  0  0  0  0  0  0  0  0  0
    5.5757    0.1265    7.0657 H   0  0  0  0  0  0  0  0  0  0  0  0
    3.7404    1.0838    5.6460 H   0  0  0  0  0  0  0  0  0  0  0  0
   -0.6568   -1.5872    7.8395 H   0  0  0  0  0  0  0  0  0  0  0  0
    0.1598   -0.3182    8.6108 H   0  0  0  0  0  0  0  0  0  0  0  0
    0.3111   -1.8657    9.3252 H   0  0  0  0  0  0  0  0  0  0  0  0
    0.2355   -1.3289    5.3180 H   0  0  0  0  0  0  0  0  0  0  0  0
   -1.1783    1.6823    7.5276 H   0  0  0  0  0  0  0  0  0  0  0  0
   -1.4787    0.0027    7.0358 H   0  0  0  0  0  0  0  0  0  0  0  0
   -2.4345    1.3181    6.3540 H   0  0  0  0  0  0  0  0  0  0  0  0
    1.0154    2.3004    3.7385 H   0  0  0  0  0  0  0  0  0  0  0  0
    2.8466    4.1764    6.7632 H   0  0  0  0  0  0  0  0  0  0  0  0
    4.2957    5.3714    5.0884 H   0  0  0  0  0  0  0  0  0  0  0  0
    3.7056    4.3614    3.7952 H   0  0  0  0  0  0  0  0  0  0  0  0
    4.6332    3.6584    5.0904 H   0  0  0  0  0  0  0  0  0  0  0  0
    0.7565    5.1176    6.2715 H   0  0  0  0  0  0  0  0  0  0  0  0
    2.2669    6.3630    4.2524 H   0  0  0  0  0  0  0  0  0  0  0  0
   -0.3321    4.6762    4.1705 H   0  0  0  0  0  0  0  0  0  0  0  0
    0.8071    4.5012    2.2313 H   0  0  0  0  0  0  0  0  0  0  0  0
   -0.0303    0.0282    3.7024 H   0  0  0  0  0  0  0  0  0  0  0  0
   -0.9725    2.2002    2.9074 H   0  0  0  0  0  0  0  0  0  0  0  0
   -2.5458    1.7881    3.6698 H   0  0  0  0  0  0  0  0  0  0  0  0
   -1.8546    0.8111    2.3542 H   0  0  0  0  0  0  0  0  0  0  0  0
   -1.3236   -1.3300    4.9091 H   0  0  0  0  0  0  0  0  0  0  0  0
    3.4751   -3.6948    7.1734 H   0  0  0  0  0  0  0  0  0  0  0  0
  1  2  1  0
  1 69  1  0
  1 70  1  0
  1 71  1  0
  3  2  1  1
  3  9  1  0
  3  4  1  0
  3  5  1  0
  4 72  1  0
  4 73  1  0
  4 74  1  0
  5  6  1  0
  6  7  1  0
  6 75  1  0
  6 76  1  0
  7 26  1  0
  7  8  1  0
  7 77  1  6
  8  9  1  0
  8 10  1  0
  8 78  1  6
 10 16  1  0
 10 68  1  0
 10 11  1  1
 11 12  1  0
 11 79  1  0
 11 80  1  0
 12 13  1  0
 12 81  1  0
 12 82  1  0
 13 68  1  0
 13 14  1  1
 13 15  1  0
 14 83  1  0
 14 84  1  0
 14 85  1  0
 15 16  1  0
 16 17  1  0
 16 86  1  1
 17 18  1  0
 18 19  1  0
 18 20  1  0
 18 87  1  6
 19 88  1  0
 19 89  1  0
 19 90  1  0
 21 20  1  6
 20 91  1  0
 20 92  1  0
 21 50  1  0
 21 22  1  0
 21 68  1  0
 23 22  1  1
 23 46  1  0
 23 52  1  0
 23 24  1  0
 24 25  1  0
 24 40  1  0
 24 93  1  6
 25 26  1  0
 25 94  1  0
 25 95  1  0
 26 38  1  0
 26 27  1  6
 27 28  1  0
 28 34  1  0
 28 29  1  0
 28 96  1  6
 29 30  1  0
 30 31  2  3
 30 33  1  0
 31 32  1  0
 32 97  1  0
 33 34  1  0
 33 98  1  0
 33 99  1  0
 34 35  1  6
 34 36  1  0
 35100  1  0
 36 37  1  0
 36101  1  0
 36102  1  0
 38 37  1  6
 38 39  2  0
 40 41  1  0
 40 42  1  0
 40 43  1  0
 41103  1  0
 41104  1  0
 41105  1  0
 42106  1  0
 42107  1  0
 42108  1  0
 43 44  1  0
 44 45  1  0
 44 46  1  0
 44109  1  6
 45110  1  0
 46 47  1  6
 46 48  1  0
 47111  1  0
 48 49  2  0
 48 50  1  0
 50 51  1  1
 50 52  1  0
 51112  1  0
 51113  1  0
 51114  1  0
 52 53  1  0
 52115  1  6
 54 53  1  1
 54 55  1  0
 54 56  1  0
 54 65  1  0
 55116  1  0
 55117  1  0
 55118  1  0
 56 57  1  0
 57 63  1  0
 57 58  1  0
 57119  1  6
 58 59  1  0
 59 60  1  0
 59 61  1  0
 59120  1  1
 60121  1  0
 60122  1  0
 60123  1  0
 61 62  1  0
 61 63  1  0
 61124  1  1
 62125  1  0
 63 64  1  0
 63126  1  6
 64127  1  0
 65 66  1  0
 65 67  1  0
 65128  1  6
 66129  1  0
 66130  1  0
 66131  1  0
 67132  1  0
 68133  1  6
M  END
>  <i_m_ct_stereo_status>  (26) 
1

>  <s_m_source_file>  (26) 
/var/tmp/pbs.5075288.sched01/tmpdioscf2v/0xa7vsnym.sdf

>  <i_m_source_file_index>  (26) 
59

>  <i_lp_mmshare_version>  (26) 
48012

>  <i_f3d_flags>  (26) 
0

>  <s_epik_input>  (26) 
W09IXVxOPUMoXE8xKVtDSDJdW0NAQF0oW09IXSkoW0NIMl1PW1MrXTJbTy1dKVtDQEhdMU9bQ0BdMihbQ0BASF0oW0NASF0zW0NAXTQ1NilbQ0gyXU9bQ0BdKE8zKShbQ0gzXSlPW0NIM10pW0NIMl1bQ0BIXTdbQ0BdODlbQ0BdKFtPSF0pKFtDQEhdKFtPSF0pT0M3KFtDSDNdKVtDSDNdKUMoPU8pW0NAXShbQ0gzXSkoW0NAQF0xKE84KVtDQEhdNltDQF0oW0NIM10pKFtDSDJdW0NIMl00KU9bQ0BIXTVPW0NAQEhdKFtDSDNdKVtDSDJdMSlbQ0BIXTlPW0NAXShbQ0gzXSkoW0NASF0oW0NIM10pW09IXSlPW0NAQEhdMU9bQ0BASF0oW0NIM10pW0NAQEhdKFtPSF0pW0NASF0xW09IXQ==

>  <s_epik_cmdline>  (26) 
J2VwaWtfcHl0aG9uJywgJy1waHQnLCAnMi4wJywgJy1waCcsICc3LjAnLCAnLXRuJywgJzgnLCAnLW1hJywgJzIwMCcsICctaW1hZScsICc8aW5maWxlLm1hZT4nLCAnLW9tYWUnLCAnPG91dGZpbGUubWFlPic=

>  <r_epik_Ionization_Penalty>  (26) 
0.000734279

>  <r_epik_Ionization_Penalty_Charging>  (26) 
0

>  <r_epik_Ionization_Penalty_Neutral>  (26) 
0.000734279

>  <r_epik_State_Penalty>  (26) 
0.000449524

>  <r_epik_Charging_Adjusted_Penalty>  (26) 
0.000449524

>  <i_epik_Tot_Q>  (26) 
0

>  <i_epik_Tot_abs_Q>  (26) 
2

>  <s_epik_Chemistry_Notes>  (26) 
This compound has an imine and may undergo hydrolysis. This compound contains an acetal/aminal-like group ( X-CH(R)-Y where X, Y are N, S, or O) that may be acid/base labile, releasing an aldehyde.

>  <s_lp_Force_Field>  (26) 
OPLS3e

>  <r_lp_Energy>  (26) 
173.277

>  <b_lp_Chiralities_Consistent>  (26) 
1

>  <s_lp_Variant>  (26) 
25:0-1

>  <s_i_glide_gridfile>  (26) 
pfpi4k_grid

>  <i_i_glide_lignum>  (26) 
59

>  <i_i_glide_rotatable_bonds>  (26) 
13

>  <r_i_docking_score>  (26) 
-3.00897

>  <r_i_glide_ligand_efficiency>  (26) 
-0.0442496

>  <r_i_glide_ligand_efficiency_sa>  (26) 
-0.180612

>  <r_i_glide_ligand_efficiency_ln>  (26) 
-0.576486

>  <r_i_glide_gscore>  (26) 
-3.00897

>  <r_i_glide_lipo>  (26) 
-0.297554

>  <r_i_glide_hbond>  (26) 
0

>  <r_i_glide_metal>  (26) 
-0

>  <r_i_glide_rewards>  (26) 
-0.0447007

>  <r_i_glide_evdw>  (26) 
-33.2985

>  <r_i_glide_ecoul>  (26) 
-10.9381

>  <r_i_glide_erotb>  (26) 
0.135689

>  <r_i_glide_esite>  (26) 
-0.146773

>  <r_i_glide_emodel>  (26) 
-43.1745

>  <r_i_glide_energy>  (26) 
-44.2366

>  <r_i_glide_einternal>  (26) 
7.7993

>  <r_i_glide_intrahb_reward>  (26) 
-0

>  <i_i_glide_confnum>  (26) 
2

>  <i_i_glide_posenum>  (26) 
23

>  <r_i_glide_eff_state_penalty>  (26) 
0

>  <ligand_id>  (26) 
25

>  <original_smiles>  (26) 
COC1(C)OCC2C(O1)C13CCC4(C)OC1OC(C)CC1(OC56C(CC27OC2OC(=NO)CC2(O)CO[S+]7[O-])C(C)(C)OC(O)C5(O)C(=O)C1(C)C6OC(C)(OC1OC(C)C(O)C1O)C(C)O)C43

>  <smiles>  (26) 
[H]ON=C1OC2([H])OC3(S(=O)OC([H])([H])C2(O[H])C1([H])[H])C([H])([H])C1([H])C(C([H])([H])[H])(C([H])([H])[H])OC([H])(O[H])C2(O[H])C(=O)C4(C([H])([H])[H])C([H])(OC(OC5([H])OC([H])(C([H])([H])[H])C([H])(O[H])C5([H])O[H])(C([H])([H])[H])C([H])(O[H])C([H])([H])[H])C21OC41C([H])([H])C([H])(C([H])([H])[H])OC2([H])OC4(C([H])([H])[H])C([H])([H])C([H])([H])C2(C2([H])OC(OC([H])([H])[H])(C([H])([H])[H])OC([H])([H])C23[H])C41[H]

$$$$
25:0:1
     RDKit          3D

133143  0  0  1  0  0  0  0  0999 V2000
    0.6778   -8.5555    5.2090 C   0  0  0  0  0  0  0  0  0  0  0  0
    1.8501   -7.7571    5.2419 O   0  0  0  0  0  0  0  0  0  0  0  0
    2.7109   -7.7557    4.1521 C   0  0  1  0  0  0  0  0  0  0  0  0
    3.1114   -9.2066    3.8222 C   0  0  0  0  0  0  0  0  0  0  0  0
    2.1002   -7.2412    3.0064 O   0  0  0  0  0  0  0  0  0  0  0  0
    1.8326   -5.8487    3.0470 C   0  0  0  0  0  0  0  0  0  0  0  0
    3.1945   -5.1215    3.2091 C   0  0  2  0  0  0  0  0  0  0  0  0
    3.9975   -5.6640    4.4757 C   0  0  2  0  0  0  0  0  0  0  0  0
    3.9179   -7.0999    4.4775 O   0  0  0  0  0  0  0  0  0  0  0  0
    4.2429   -5.1132    5.9791 C   0  0  2  0  0  0  0  0  0  0  0  0
    5.7578   -5.3721    6.2847 C   0  0  0  0  0  0  0  0  0  0  0  0
    6.0304   -4.6372    7.5922 C   0  0  0  0  0  0  0  0  0  0  0  0
    4.6490   -4.0684    7.9206 C   0  0  2  0  0  0  0  0  0  0  0  0
    4.7504   -3.0440    9.0531 C   0  0  0  0  0  0  0  0  0  0  0  0
    3.8978   -5.2091    8.3111 O   0  0  0  0  0  0  0  0  0  0  0  0
    3.5663   -5.9087    7.1495 C   0  0  1  0  0  0  0  0  0  0  0  0
    2.1963   -6.0871    7.0425 O   0  0  0  0  0  0  0  0  0  0  0  0
    1.2771   -5.0403    7.2580 C   0  0  1  0  0  0  0  0  0  0  0  0
    1.0326   -4.6246    8.7170 C   0  0  0  0  0  0  0  0  0  0  0  0
    1.4748   -3.9200    6.2517 C   0  0  0  0  0  0  0  0  0  0  0  0
    2.7260   -2.9728    6.3042 C   0  0  1  0  0  0  0  0  0  0  0  0
    3.0210   -2.5678    4.9569 O   0  0  0  0  0  0  0  0  0  0  0  0
    2.7933   -1.1686    4.6778 C   0  0  2  0  0  0  0  0  0  0  0  0
    2.6569   -1.1657    3.1254 C   0  0  2  0  0  0  0  0  0  0  0  0
    2.4284   -2.5773    2.4210 C   0  0  0  0  0  0  0  0  0  0  0  0
    3.4238   -3.8121    2.2951 C   0  0  2  0  0  0  0  0  0  0  0  0
    3.0263   -4.4101    1.0421 O   0  0  0  0  0  0  0  0  0  0  0  0
    3.3658   -4.0264   -0.2627 C   0  0  1  0  0  0  0  0  0  0  0  0
    3.3224   -2.6890   -0.5877 O   0  0  0  0  0  0  0  0  0  0  0  0
    4.0055   -2.4779   -1.7557 C   0  0  0  0  0  0  0  0  0  0  0  0
    3.9877   -1.3449   -2.3303 N   0  0  0  0  0  0  0  0  0  0  0  0
    4.6033   -1.4037   -3.6134 O   0  0  0  0  0  0  0  0  0  0  0  0
    4.6990   -3.7789   -2.1599 C   0  0  0  0  0  0  0  0  0  0  0  0
    4.6947   -4.5366   -0.8104 C   0  0  2  0  0  0  0  0  0  0  0  0
    4.6659   -5.9223   -0.9071 O   0  0  0  0  0  0  0  0  0  0  0  0
    5.9428   -4.2352    0.0232 C   0  0  0  0  0  0  0  0  0  0  0  0
    5.7591   -4.5750    1.3726 O   0  0  0  0  0  0  0  0  0  0  0  0
    5.2054   -3.2930    2.3404 S   0  0  0  0  0  0  0  0  0  0  0  0
    5.7463   -3.5017    3.7507 O   0  0  0  0  0  0  0  0  0  0  0  0
    3.6574   -0.1280    2.5086 C   0  0  0  0  0  0  0  0  0  0  0  0
    4.0234   -0.3311    1.0362 C   0  0  0  0  0  0  0  0  0  0  0  0
    2.9974    1.2700    2.5218 C   0  0  0  0  0  0  0  0  0  0  0  0
    4.9273   -0.0725    3.2085 O   0  0  0  0  0  0  0  0  0  0  0  0
    5.1005   -0.4386    4.5654 C   0  0  1  0  0  0  0  0  0  0  0  0
    6.1656    0.2520    5.1604 O   0  0  0  0  0  0  0  0  0  0  0  0
    3.8179   -0.2019    5.3311 C   0  0  1  0  0  0  0  0  0  0  0  0
    3.5533    1.1939    5.3567 O   0  0  0  0  0  0  0  0  0  0  0  0
    3.6237   -0.6518    6.7758 C   0  0  0  0  0  0  0  0  0  0  0  0
    4.2539   -0.2394    7.7538 O   0  0  0  0  0  0  0  0  0  0  0  0
    2.3773   -1.5368    6.8353 C   0  0  2  0  0  0  0  0  0  0  0  0
    1.5084   -1.3676    8.1140 C   0  0  0  0  0  0  0  0  0  0  0  0
    1.6201   -1.0274    5.5954 C   0  0  1  0  0  0  0  0  0  0  0  0
    1.0719    0.3136    5.7108 O   0  0  0  0  0  0  0  0  0  0  0  0
   -0.2738    0.6153    5.4080 C   0  0  1  0  0  0  0  0  0  0  0  0
   -1.0182    0.9322    6.7262 C   0  0  0  0  0  0  0  0  0  0  0  0
   -0.3986    1.7257    4.5260 O   0  0  0  0  0  0  0  0  0  0  0  0
    0.5139    2.7895    4.7009 C   0  0  2  0  0  0  0  0  0  0  0  0
    0.2145    3.6377    5.7740 O   0  0  0  0  0  0  0  0  0  0  0  0
   -0.1956    4.9265    5.3321 C   0  0  1  0  0  0  0  0  0  0  0  0
    0.8748    5.9960    5.6494 C   0  0  0  0  0  0  0  0  0  0  0  0
   -0.4715    4.7357    3.8391 C   0  0  1  0  0  0  0  0  0  0  0  0
   -0.3931    5.9270    3.1027 O   0  0  0  0  0  0  0  0  0  0  0  0
    0.5458    3.6808    3.4471 C   0  0  1  0  0  0  0  0  0  0  0  0
    1.8485    4.1928    3.1989 O   0  0  0  0  0  0  0  0  0  0  0  0
   -0.8843   -0.6080    4.6948 C   0  0  2  0  0  0  0  0  0  0  0  0
   -2.0869   -0.2679    3.9818 C   0  0  0  0  0  0  0  0  0  0  0  0
   -1.3069   -1.6388    5.5547 O   0  0  0  0  0  0  0  0  0  0  0  0
    4.1060   -3.6715    6.5231 C   0  0  2  0  0  0  0  0  0  0  0  0
    0.0481   -8.2799    6.0550 H   0  0  0  0  0  0  0  0  0  0  0  0
    0.9117   -9.6132    5.3220 H   0  0  0  0  0  0  0  0  0  0  0  0
    0.1044   -8.3975    4.2968 H   0  0  0  0  0  0  0  0  0  0  0  0
    3.8984   -9.2088    3.0696 H   0  0  0  0  0  0  0  0  0  0  0  0
    2.2625   -9.7611    3.4185 H   0  0  0  0  0  0  0  0  0  0  0  0
    3.4796   -9.7099    4.7174 H   0  0  0  0  0  0  0  0  0  0  0  0
    1.3596   -5.6215    2.0937 H   0  0  0  0  0  0  0  0  0  0  0  0
    1.0688   -5.6394    3.7878 H   0  0  0  0  0  0  0  0  0  0  0  0
    3.7590   -5.7677    2.5291 H   0  0  0  0  0  0  0  0  0  0  0  0
    5.0030   -5.6235    4.0673 H   0  0  0  0  0  0  0  0  0  0  0  0
    6.0096   -6.4308    6.3602 H   0  0  0  0  0  0  0  0  0  0  0  0
    6.4312   -4.9671    5.5320 H   0  0  0  0  0  0  0  0  0  0  0  0
    6.3975   -5.3008    8.3742 H   0  0  0  0  0  0  0  0  0  0  0  0
    6.7780   -3.8559    7.4502 H   0  0  0  0  0  0  0  0  0  0  0  0
    5.4023   -2.2103    8.7937 H   0  0  0  0  0  0  0  0  0  0  0  0
    5.1719   -3.5142    9.9411 H   0  0  0  0  0  0  0  0  0  0  0  0
    3.7848   -2.6554    9.3429 H   0  0  0  0  0  0  0  0  0  0  0  0
    3.9722   -6.9147    7.2414 H   0  0  0  0  0  0  0  0  0  0  0  0
    0.3334   -5.5088    6.9689 H   0  0  0  0  0  0  0  0  0  0  0  0
    0.1716   -3.9581    8.7979 H   0  0  0  0  0  0  0  0  0  0  0  0
    1.8859   -4.1142    9.1524 H   0  0  0  0  0  0  0  0  0  0  0  0
    0.8157   -5.4958    9.3336 H   0  0  0  0  0  0  0  0  0  0  0  0
    1.4719   -4.3709    5.2773 H   0  0  0  0  0  0  0  0  0  0  0  0
    0.5184   -3.4087    6.2861 H   0  0  0  0  0  0  0  0  0  0  0  0
    1.6833   -0.7125    2.9268 H   0  0  0  0  0  0  0  0  0  0  0  0
    1.5162   -2.9930    2.8376 H   0  0  0  0  0  0  0  0  0  0  0  0
    2.0997   -2.3188    1.4186 H   0  0  0  0  0  0  0  0  0  0  0  0
    2.5521   -4.4620   -0.8463 H   0  0  0  0  0  0  0  0  0  0  0  0
    4.8959   -2.3018   -3.6756 H   0  0  0  0  0  0  0  0  0  0  0  0
    4.0919   -4.2346   -2.9451 H   0  0  0  0  0  0  0  0  0  0  0  0
    5.7012   -3.6319   -2.5756 H   0  0  0  0  0  0  0  0  0  0  0  0
    4.0428   -6.1351   -1.6082 H   0  0  0  0  0  0  0  0  0  0  0  0
    6.7865   -4.8325   -0.3034 H   0  0  0  0  0  0  0  0  0  0  0  0
    6.2532   -3.1989   -0.1047 H   0  0  0  0  0  0  0  0  0  0  0  0
    3.1289   -0.4257    0.4197 H   0  0  0  0  0  0  0  0  0  0  0  0
    4.6457   -1.1992    0.8842 H   0  0  0  0  0  0  0  0  0  0  0  0
    4.5965    0.5138    0.6525 H   0  0  0  0  0  0  0  0  0  0  0  0
    2.4574    1.5238    1.6026 H   0  0  0  0  0  0  0  0  0  0  0  0
    3.6950    2.0600    2.7653 H   0  0  0  0  0  0  0  0  0  0  0  0
    2.2495    1.3347    3.2915 H   0  0  0  0  0  0  0  0  0  0  0  0
    5.3563   -1.4844    4.5987 H   0  0  0  0  0  0  0  0  0  0  0  0
    6.9379    0.0607    4.6558 H   0  0  0  0  0  0  0  0  0  0  0  0
    3.5978    1.5170    4.4698 H   0  0  0  0  0  0  0  0  0  0  0  0
    0.5012   -1.7694    7.9904 H   0  0  0  0  0  0  0  0  0  0  0  0
    1.3861   -0.3093    8.3672 H   0  0  0  0  0  0  0  0  0  0  0  0
    1.9361   -1.8349    8.9932 H   0  0  0  0  0  0  0  0  0  0  0  0
    0.9757   -1.7719    5.1971 H   0  0  0  0  0  0  0  0  0  0  0  0
   -0.7824    1.9233    7.0845 H   0  0  0  0  0  0  0  0  0  0  0  0
   -0.7021    0.2285    7.4872 H   0  0  0  0  0  0  0  0  0  0  0  0
   -2.1032    0.8499    6.6106 H   0  0  0  0  0  0  0  0  0  0  0  0
    1.5092    2.4285    4.9014 H   0  0  0  0  0  0  0  0  0  0  0  0
   -1.1051    5.1772    5.8686 H   0  0  0  0  0  0  0  0  0  0  0  0
    0.5543    6.9731    5.2868 H   0  0  0  0  0  0  0  0  0  0  0  0
    1.8303    5.7928    5.1683 H   0  0  0  0  0  0  0  0  0  0  0  0
    1.0608    6.0821    6.7186 H   0  0  0  0  0  0  0  0  0  0  0  0
   -1.4776    4.3365    3.6988 H   0  0  0  0  0  0  0  0  0  0  0  0
   -0.1152    5.7281    2.2124 H   0  0  0  0  0  0  0  0  0  0  0  0
    0.2576    3.1121    2.5645 H   0  0  0  0  0  0  0  0  0  0  0  0
    1.8051    4.7305    2.4184 H   0  0  0  0  0  0  0  0  0  0  0  0
   -0.2726   -0.9550    3.8637 H   0  0  0  0  0  0  0  0  0  0  0  0
   -1.9259    0.4671    3.2095 H   0  0  0  0  0  0  0  0  0  0  0  0
   -2.8982   -0.0254    4.6178 H   0  0  0  0  0  0  0  0  0  0  0  0
   -2.5349   -1.1092    3.5239 H   0  0  0  0  0  0  0  0  0  0  0  0
   -0.4823   -2.0180    5.8959 H   0  0  0  0  0  0  0  0  0  0  0  0
    4.8588   -3.0338    6.0641 H   0  0  0  0  0  0  0  0  0  0  0  0
  1  2  1  0
  1 69  1  0
  1 70  1  0
  1 71  1  0
  3  2  1  1
  3  9  1  0
  3  4  1  0
  3  5  1  0
  4 72  1  0
  4 73  1  0
  4 74  1  0
  5  6  1  0
  6  7  1  0
  6 75  1  0
  6 76  1  0
  7 26  1  0
  7  8  1  0
  7 77  1  6
  8  9  1  0
  8 10  1  0
  8 78  1  6
 10 16  1  0
 10 68  1  0
 10 11  1  1
 11 12  1  0
 11 79  1  0
 11 80  1  0
 12 13  1  0
 12 81  1  0
 12 82  1  0
 13 68  1  0
 13 14  1  1
 13 15  1  0
 14 83  1  0
 14 84  1  0
 14 85  1  0
 15 16  1  0
 16 17  1  0
 16 86  1  1
 17 18  1  0
 18 19  1  0
 18 20  1  0
 18 87  1  6
 19 88  1  0
 19 89  1  0
 19 90  1  0
 21 20  1  6
 20 91  1  0
 20 92  1  0
 21 50  1  0
 21 22  1  0
 21 68  1  0
 23 22  1  1
 23 46  1  0
 23 52  1  0
 23 24  1  0
 24 25  1  0
 24 40  1  0
 24 93  1  1
 25 26  1  0
 25 94  1  0
 25 95  1  0
 26 38  1  0
 26 27  1  6
 27 28  1  0
 28 34  1  0
 28 29  1  0
 28 96  1  6
 29 30  1  0
 30 31  2  3
 30 33  1  0
 31 32  1  0
 32 97  1  0
 33 34  1  0
 33 98  1  0
 33 99  1  0
 34 35  1  6
 34 36  1  0
 35100  1  0
 36 37  1  0
 36101  1  0
 36102  1  0
 38 37  1  6
 38 39  2  0
 40 41  1  0
 40 42  1  0
 40 43  1  0
 41103  1  0
 41104  1  0
 41105  1  0
 42106  1  0
 42107  1  0
 42108  1  0
 43 44  1  0
 44 45  1  0
 44 46  1  0
 44109  1  6
 45110  1  0
 46 47  1  1
 46 48  1  0
 47111  1  0
 48 49  2  0
 48 50  1  0
 50 51  1  1
 50 52  1  0
 51112  1  0
 51113  1  0
 51114  1  0
 52 53  1  0
 52115  1  6
 54 53  1  1
 54 55  1  0
 54 56  1  0
 54 65  1  0
 55116  1  0
 55117  1  0
 55118  1  0
 56 57  1  0
 57 63  1  0
 57 58  1  0
 57119  1  1
 58 59  1  0
 59 60  1  0
 59 61  1  0
 59120  1  1
 60121  1  0
 60122  1  0
 60123  1  0
 61 62  1  0
 61 63  1  0
 61124  1  1
 62125  1  0
 63 64  1  0
 63126  1  6
 64127  1  0
 65 66  1  0
 65 67  1  0
 65128  1  6
 66129  1  0
 66130  1  0
 66131  1  0
 67132  1  0
 68133  1  6
M  END
>  <i_m_ct_stereo_status>  (27) 
1

>  <s_m_source_file>  (27) 
/var/tmp/pbs.5075288.sched01/tmpdioscf2v/0xa7vsnym.sdf

>  <i_m_source_file_index>  (27) 
59

>  <i_lp_mmshare_version>  (27) 
48012

>  <i_f3d_flags>  (27) 
0

>  <s_epik_input>  (27) 
W09IXVxOPUMoXE8xKVtDSDJdW0NAQF0oW09IXSkoW0NIMl1PW1MrXTJbTy1dKVtDQEhdMU9bQ0BdMihbQ0BASF0oW0NASF0zW0NAXTQ1NilbQ0gyXU9bQ0BdKE8zKShbQ0gzXSlPW0NIM10pW0NIMl1bQ0BIXTdbQ0BdODlbQ0BdKFtPSF0pKFtDQEhdKFtPSF0pT0M3KFtDSDNdKVtDSDNdKUMoPU8pW0NAXShbQ0gzXSkoW0NAQF0xKE84KVtDQEhdNltDQF0oW0NIM10pKFtDSDJdW0NIMl00KU9bQ0BIXTVPW0NAQEhdKFtDSDNdKVtDSDJdMSlbQ0BIXTlPW0NAXShbQ0gzXSkoW0NASF0oW0NIM10pW09IXSlPW0NAQEhdMU9bQ0BASF0oW0NIM10pW0NAQEhdKFtPSF0pW0NASF0xW09IXQ==

>  <s_epik_cmdline>  (27) 
J2VwaWtfcHl0aG9uJywgJy1waHQnLCAnMi4wJywgJy1waCcsICc3LjAnLCAnLXRuJywgJzgnLCAnLW1hJywgJzIwMCcsICctaW1hZScsICc8aW5maWxlLm1hZT4nLCAnLW9tYWUnLCAnPG91dGZpbGUubWFlPic=

>  <r_epik_Ionization_Penalty>  (27) 
0.000734279

>  <r_epik_Ionization_Penalty_Charging>  (27) 
0

>  <r_epik_Ionization_Penalty_Neutral>  (27) 
0.000734279

>  <r_epik_State_Penalty>  (27) 
0.000449524

>  <r_epik_Charging_Adjusted_Penalty>  (27) 
0.000449524

>  <i_epik_Tot_Q>  (27) 
0

>  <i_epik_Tot_abs_Q>  (27) 
2

>  <s_epik_Chemistry_Notes>  (27) 
This compound has an imine and may undergo hydrolysis. This compound contains an acetal/aminal-like group ( X-CH(R)-Y where X, Y are N, S, or O) that may be acid/base labile, releasing an aldehyde.

>  <s_lp_Force_Field>  (27) 
OPLS3e

>  <r_lp_Energy>  (27) 
173.277

>  <b_lp_Chiralities_Consistent>  (27) 
1

>  <s_lp_Variant>  (27) 
25:0-1

>  <s_i_glide_gridfile>  (27) 
pfpi4k_grid

>  <i_i_glide_lignum>  (27) 
59

>  <i_i_glide_rotatable_bonds>  (27) 
13

>  <r_i_docking_score>  (27) 
-1.15875

>  <r_i_glide_ligand_efficiency>  (27) 
-0.0170405

>  <r_i_glide_ligand_efficiency_sa>  (27) 
-0.0695535

>  <r_i_glide_ligand_efficiency_ln>  (27) 
-0.222005

>  <r_i_glide_gscore>  (27) 
-1.15875

>  <r_i_glide_lipo>  (27) 
-0.176208

>  <r_i_glide_hbond>  (27) 
0

>  <r_i_glide_metal>  (27) 
-0

>  <r_i_glide_rewards>  (27) 
-0.162764

>  <r_i_glide_evdw>  (27) 
-12.3143

>  <r_i_glide_ecoul>  (27) 
-14.0696

>  <r_i_glide_erotb>  (27) 
0.135689

>  <r_i_glide_esite>  (27) 
-0.117169

>  <r_i_glide_emodel>  (27) 
-17.2511

>  <r_i_glide_energy>  (27) 
-26.3839

>  <r_i_glide_einternal>  (27) 
10.879

>  <r_i_glide_intrahb_reward>  (27) 
-0

>  <i_i_glide_confnum>  (27) 
2

>  <i_i_glide_posenum>  (27) 
35

>  <r_i_glide_eff_state_penalty>  (27) 
0

>  <ligand_id>  (27) 
25

>  <original_smiles>  (27) 
COC1(C)OCC2C(O1)C13CCC4(C)OC1OC(C)CC1(OC56C(CC27OC2OC(=NO)CC2(O)CO[S+]7[O-])C(C)(C)OC(O)C5(O)C(=O)C1(C)C6OC(C)(OC1OC(C)C(O)C1O)C(C)O)C43

>  <smiles>  (27) 
[H]ON=C1OC2([H])OC3(S(=O)OC([H])([H])C2(O[H])C1([H])[H])C([H])([H])C1([H])C(C([H])([H])[H])(C([H])([H])[H])OC([H])(O[H])C2(O[H])C(=O)C4(C([H])([H])[H])C([H])(OC(OC5([H])OC([H])(C([H])([H])[H])C([H])(O[H])C5([H])O[H])(C([H])([H])[H])C([H])(O[H])C([H])([H])[H])C21OC41C([H])([H])C([H])(C([H])([H])[H])OC2([H])OC4(C([H])([H])[H])C([H])([H])C([H])([H])C2(C2([H])OC(OC([H])([H])[H])(C([H])([H])[H])OC([H])([H])C23[H])C41[H]

$$$$
25:1:0
     RDKit          3D

133143  0  0  1  0  0  0  0  0999 V2000
   -0.5831   -8.7781    4.3181 C   0  0  0  0  0  0  0  0  0  0  0  0
    0.7002   -8.2722    4.6462 O   0  0  0  0  0  0  0  0  0  0  0  0
    1.7110   -8.3008    3.6910 C   0  0  1  0  0  0  0  0  0  0  0  0
    1.8732   -9.7369    3.1532 C   0  0  0  0  0  0  0  0  0  0  0  0
    1.3984   -7.5018    2.5900 O   0  0  0  0  0  0  0  0  0  0  0  0
    1.3900   -6.1098    2.8539 C   0  0  0  0  0  0  0  0  0  0  0  0
    2.8169   -5.7171    3.3246 C   0  0  2  0  0  0  0  0  0  0  0  0
    3.2984   -6.6163    4.5560 C   0  0  2  0  0  0  0  0  0  0  0  0
    2.9552   -7.9823    4.2729 O   0  0  0  0  0  0  0  0  0  0  0  0
    3.4109   -6.3795    6.1555 C   0  0  2  0  0  0  0  0  0  0  0  0
    4.7907   -6.9762    6.5877 C   0  0  0  0  0  0  0  0  0  0  0  0
    4.9858   -6.5287    8.0331 C   0  0  0  0  0  0  0  0  0  0  0  0
    3.6906   -5.7624    8.2968 C   0  0  2  0  0  0  0  0  0  0  0  0
    3.7926   -4.9749    9.6046 C   0  0  0  0  0  0  0  0  0  0  0  0
    2.6958   -6.7701    8.3684 O   0  0  0  0  0  0  0  0  0  0  0  0
    2.4380   -7.2074    7.0715 C   0  0  1  0  0  0  0  0  0  0  0  0
    1.0850   -7.0988    6.7942 O   0  0  0  0  0  0  0  0  0  0  0  0
    0.3475   -5.9261    7.0660 C   0  0  1  0  0  0  0  0  0  0  0  0
   -0.0454   -5.7114    8.5387 C   0  0  0  0  0  0  0  0  0  0  0  0
    0.8969   -4.7308    6.2973 C   0  0  0  0  0  0  0  0  0  0  0  0
    2.2521   -4.0572    6.6849 C   0  0  1  0  0  0  0  0  0  0  0  0
    2.8205   -3.4954    5.4964 O   0  0  0  0  0  0  0  0  0  0  0  0
    2.8460   -2.0540    5.4594 C   0  0  2  0  0  0  0  0  0  0  0  0
    2.9812   -1.7681    3.9429 C   0  0  2  0  0  0  0  0  0  0  0  0
    2.6375   -2.9744    2.9533 C   0  0  0  0  0  0  0  0  0  0  0  0
    3.4237   -4.3428    2.7268 C   0  0  2  0  0  0  0  0  0  0  0  0
    3.1371   -4.6052    1.3382 O   0  0  0  0  0  0  0  0  0  0  0  0
    3.7435   -4.1319    0.1608 C   0  0  1  0  0  0  0  0  0  0  0  0
    3.9633   -2.7782   -0.0077 O   0  0  0  0  0  0  0  0  0  0  0  0
    4.8330   -2.6060   -1.0603 C   0  0  0  0  0  0  0  0  0  0  0  0
    5.1580   -1.5115   -1.5905 N   0  0  0  0  0  0  0  0  0  0  0  0
    4.4510   -0.4650   -0.9344 O   0  0  0  0  0  0  0  0  0  0  0  0
    5.3697   -3.9494   -1.4830 C   0  0  0  0  0  0  0  0  0  0  0  0
    5.0112   -4.8538   -0.2953 C   0  0  2  0  0  0  0  0  0  0  0  0
    4.7151   -6.1603   -0.7194 O   0  0  0  0  0  0  0  0  0  0  0  0
    6.1660   -4.8901    0.7303 C   0  0  0  0  0  0  0  0  0  0  0  0
    5.7324   -5.4050    1.9707 O   0  0  0  0  0  0  0  0  0  0  0  0
    5.2414   -4.2163    3.0919 S   0  0  0  0  0  0  0  0  0  0  0  0
    5.5631   -4.7391    4.4921 O   0  0  0  0  0  0  0  0  0  0  0  0
    4.2304   -0.8574    3.6653 C   0  0  0  0  0  0  0  0  0  0  0  0
    4.7635   -0.9117    2.2232 C   0  0  0  0  0  0  0  0  0  0  0  0
    3.8482    0.6361    3.8787 C   0  0  0  0  0  0  0  0  0  0  0  0
    5.3788   -1.1887    4.4900 O   0  0  0  0  0  0  0  0  0  0  0  0
    5.2601   -1.7836    5.7718 C   0  0  1  0  0  0  0  0  0  0  0  0
    6.3318   -1.4190    6.6200 O   0  0  0  0  0  0  0  0  0  0  0  0
    3.9213   -1.4285    6.3984 C   0  0  1  0  0  0  0  0  0  0  0  0
    3.9046   -0.0328    6.6595 O   0  0  0  0  0  0  0  0  0  0  0  0
    3.4417   -2.0643    7.7102 C   0  0  0  0  0  0  0  0  0  0  0  0
    3.9870   -1.9534    8.8077 O   0  0  0  0  0  0  0  0  0  0  0  0
    2.0476   -2.6768    7.4229 C   0  0  2  0  0  0  0  0  0  0  0  0
    1.0979   -2.5934    8.6583 C   0  0  0  0  0  0  0  0  0  0  0  0
    1.5724   -1.8195    6.2017 C   0  0  1  0  0  0  0  0  0  0  0  0
    1.2477   -0.4278    6.4585 O   0  0  0  0  0  0  0  0  0  0  0  0
   -0.0761    0.0850    6.3636 C   0  0  1  0  0  0  0  0  0  0  0  0
   -0.5118    0.5246    7.8063 C   0  0  0  0  0  0  0  0  0  0  0  0
    0.0015    1.2901    5.5924 O   0  0  0  0  0  0  0  0  0  0  0  0
   -1.2143    1.8261    5.1564 C   0  0  2  0  0  0  0  0  0  0  0  0
   -1.5125    1.4526    3.8260 O   0  0  0  0  0  0  0  0  0  0  0  0
   -1.5017    2.5453    2.9254 C   0  0  1  0  0  0  0  0  0  0  0  0
   -2.9355    2.9761    2.4931 C   0  0  0  0  0  0  0  0  0  0  0  0
   -0.8015    3.6367    3.7137 C   0  0  1  0  0  0  0  0  0  0  0  0
   -1.0960    4.9527    3.2064 O   0  0  0  0  0  0  0  0  0  0  0  0
   -1.2134    3.3395    5.1490 C   0  0  1  0  0  0  0  0  0  0  0  0
   -2.5333    3.7355    5.4779 O   0  0  0  0  0  0  0  0  0  0  0  0
   -1.0134   -1.0140    5.6724 C   0  0  2  0  0  0  0  0  0  0  0  0
   -2.5051   -0.7099    5.4686 C   0  0  0  0  0  0  0  0  0  0  0  0
   -1.1515   -2.1428    6.4704 O   0  0  0  0  0  0  0  0  0  0  0  0
    3.4461   -5.0468    6.9415 C   0  0  2  0  0  0  0  0  0  0  0  0
   -1.2799   -8.5026    5.1104 H   0  0  0  0  0  0  0  0  0  0  0  0
   -0.5718   -9.8630    4.2662 H   0  0  0  0  0  0  0  0  0  0  0  0
   -0.9553   -8.3770    3.3765 H   0  0  0  0  0  0  0  0  0  0  0  0
    2.7520   -9.7920    2.5105 H   0  0  0  0  0  0  0  0  0  0  0  0
    1.0079  -10.0336    2.5591 H   0  0  0  0  0  0  0  0  0  0  0  0
    1.9995  -10.4384    3.9783 H   0  0  0  0  0  0  0  0  0  0  0  0
    1.1326   -5.6435    1.9067 H   0  0  0  0  0  0  0  0  0  0  0  0
    0.5683   -5.8541    3.5135 H   0  0  0  0  0  0  0  0  0  0  0  0
    3.3558   -6.3400    2.6078 H   0  0  0  0  0  0  0  0  0  0  0  0
    4.3468   -6.7069    4.2906 H   0  0  0  0  0  0  0  0  0  0  0  0
    4.8324   -8.0608    6.4933 H   0  0  0  0  0  0  0  0  0  0  0  0
    5.6267   -6.5969    6.0054 H   0  0  0  0  0  0  0  0  0  0  0  0
    5.1087   -7.3693    8.7132 H   0  0  0  0  0  0  0  0  0  0  0  0
    5.8674   -5.8918    8.1245 H   0  0  0  0  0  0  0  0  0  0  0  0
    4.6090   -4.2541    9.5864 H   0  0  0  0  0  0  0  0  0  0  0  0
    3.9792   -5.6538   10.4340 H   0  0  0  0  0  0  0  0  0  0  0  0
    2.8803   -4.4569    9.8458 H   0  0  0  0  0  0  0  0  0  0  0  0
    2.6406   -8.2760    7.0153 H   0  0  0  0  0  0  0  0  0  0  0  0
   -0.6090   -6.1476    6.5852 H   0  0  0  0  0  0  0  0  0  0  0  0
   -0.7822   -4.9136    8.6382 H   0  0  0  0  0  0  0  0  0  0  0  0
    0.8045   -5.4592    9.1656 H   0  0  0  0  0  0  0  0  0  0  0  0
   -0.5020   -6.6127    8.9462 H   0  0  0  0  0  0  0  0  0  0  0  0
    0.9831   -5.0362    5.2759 H   0  0  0  0  0  0  0  0  0  0  0  0
    0.0660   -4.0560    6.2787 H   0  0  0  0  0  0  0  0  0  0  0  0
    2.1319   -1.1196    3.7234 H   0  0  0  0  0  0  0  0  0  0  0  0
    1.6106   -3.2713    3.1586 H   0  0  0  0  0  0  0  0  0  0  0  0
    2.5279   -2.5067    1.9750 H   0  0  0  0  0  0  0  0  0  0  0  0
    2.9663   -4.3488   -0.5816 H   0  0  0  0  0  0  0  0  0  0  0  0
    3.6515   -0.8881   -0.6680 H   0  0  0  0  0  0  0  0  0  0  0  0
    4.8563   -4.2468   -2.3968 H   0  0  0  0  0  0  0  0  0  0  0  0
    6.4344   -3.8665   -1.7063 H   0  0  0  0  0  0  0  0  0  0  0  0
    4.0643   -6.1471   -1.4151 H   0  0  0  0  0  0  0  0  0  0  0  0
    6.9665   -5.5287    0.3551 H   0  0  0  0  0  0  0  0  0  0  0  0
    6.6248   -3.9056    0.8634 H   0  0  0  0  0  0  0  0  0  0  0  0
    3.9603   -0.7379    1.5057 H   0  0  0  0  0  0  0  0  0  0  0  0
    5.2396   -1.8527    1.9785 H   0  0  0  0  0  0  0  0  0  0  0  0
    5.5231   -0.1485    2.0533 H   0  0  0  0  0  0  0  0  0  0  0  0
    3.5056    1.1126    2.9563 H   0  0  0  0  0  0  0  0  0  0  0  0
    4.6981    1.2140    4.2429 H   0  0  0  0  0  0  0  0  0  0  0  0
    3.0158    0.7773    4.5717 H   0  0  0  0  0  0  0  0  0  0  0  0
    5.3252   -2.8528    5.6588 H   0  0  0  0  0  0  0  0  0  0  0  0
    7.0913   -1.8661    6.3046 H   0  0  0  0  0  0  0  0  0  0  0  0
    4.1714    0.4149    5.8718 H   0  0  0  0  0  0  0  0  0  0  0  0
    0.0556   -2.7742    8.3986 H   0  0  0  0  0  0  0  0  0  0  0  0
    1.1744   -1.6010    9.1080 H   0  0  0  0  0  0  0  0  0  0  0  0
    1.3385   -3.2758    9.4679 H   0  0  0  0  0  0  0  0  0  0  0  0
    0.8662   -2.2694    5.5234 H   0  0  0  0  0  0  0  0  0  0  0  0
   -0.0266    1.4647    8.0790 H   0  0  0  0  0  0  0  0  0  0  0  0
   -0.2194   -0.2164    8.5372 H   0  0  0  0  0  0  0  0  0  0  0  0
   -1.5864    0.6572    7.8734 H   0  0  0  0  0  0  0  0  0  0  0  0
   -2.0127    1.5311    5.8388 H   0  0  0  0  0  0  0  0  0  0  0  0
   -0.9474    2.2566    2.0385 H   0  0  0  0  0  0  0  0  0  0  0  0
   -2.9320    3.8165    1.8245 H   0  0  0  0  0  0  0  0  0  0  0  0
   -3.6237    3.2104    3.3113 H   0  0  0  0  0  0  0  0  0  0  0  0
   -3.4674    2.3156    1.8622 H   0  0  0  0  0  0  0  0  0  0  0  0
    0.2770    3.4819    3.6156 H   0  0  0  0  0  0  0  0  0  0  0  0
   -0.7891    4.9917    2.3449 H   0  0  0  0  0  0  0  0  0  0  0  0
   -0.5245    3.7501    5.9083 H   0  0  0  0  0  0  0  0  0  0  0  0
   -3.0988    3.3706    4.8080 H   0  0  0  0  0  0  0  0  0  0  0  0
   -0.5326   -1.3047    4.7232 H   0  0  0  0  0  0  0  0  0  0  0  0
   -2.6756   -0.0036    4.6714 H   0  0  0  0  0  0  0  0  0  0  0  0
   -3.0008   -0.3806    6.3756 H   0  0  0  0  0  0  0  0  0  0  0  0
   -2.9789   -1.5882    5.0952 H   0  0  0  0  0  0  0  0  0  0  0  0
   -0.2632   -2.4964    6.6938 H   0  0  0  0  0  0  0  0  0  0  0  0
    4.3601   -4.5017    6.7085 H   0  0  0  0  0  0  0  0  0  0  0  0
  1  2  1  0
  1 69  1  0
  1 70  1  0
  1 71  1  0
  3  2  1  1
  3  9  1  0
  3  4  1  0
  3  5  1  0
  4 72  1  0
  4 73  1  0
  4 74  1  0
  5  6  1  0
  6  7  1  0
  6 75  1  0
  6 76  1  0
  7 26  1  0
  7  8  1  0
  7 77  1  6
  8  9  1  0
  8 10  1  0
  8 78  1  6
 10 16  1  0
 10 68  1  0
 10 11  1  1
 11 12  1  0
 11 79  1  0
 11 80  1  0
 12 13  1  0
 12 81  1  0
 12 82  1  0
 13 68  1  0
 13 14  1  1
 13 15  1  0
 14 83  1  0
 14 84  1  0
 14 85  1  0
 15 16  1  0
 16 17  1  0
 16 86  1  1
 17 18  1  0
 18 19  1  0
 18 20  1  0
 18 87  1  6
 19 88  1  0
 19 89  1  0
 19 90  1  0
 21 20  1  6
 20 91  1  0
 20 92  1  0
 21 50  1  0
 21 22  1  0
 21 68  1  0
 23 22  1  6
 23 46  1  0
 23 52  1  0
 23 24  1  0
 24 25  1  0
 24 40  1  0
 24 93  1  6
 25 26  1  0
 25 94  1  0
 25 95  1  0
 26 38  1  0
 26 27  1  6
 27 28  1  0
 28 34  1  0
 28 29  1  0
 28 96  1  6
 29 30  1  0
 30 31  2  3
 30 33  1  0
 31 32  1  0
 32 97  1  0
 33 34  1  0
 33 98  1  0
 33 99  1  0
 34 35  1  6
 34 36  1  0
 35100  1  0
 36 37  1  0
 36101  1  0
 36102  1  0
 38 37  1  6
 38 39  2  0
 40 41  1  0
 40 42  1  0
 40 43  1  0
 41103  1  0
 41104  1  0
 41105  1  0
 42106  1  0
 42107  1  0
 42108  1  0
 43 44  1  0
 44 45  1  0
 44 46  1  0
 44109  1  6
 45110  1  0
 46 47  1  1
 46 48  1  0
 47111  1  0
 48 49  2  0
 48 50  1  0
 50 51  1  1
 50 52  1  0
 51112  1  0
 51113  1  0
 51114  1  0
 52 53  1  0
 52115  1  6
 54 53  1  1
 54 55  1  0
 54 56  1  0
 54 65  1  0
 55116  1  0
 55117  1  0
 55118  1  0
 56 57  1  0
 57 63  1  0
 57 58  1  0
 57119  1  1
 58 59  1  0
 59 60  1  0
 59 61  1  0
 59120  1  6
 60121  1  0
 60122  1  0
 60123  1  0
 61 62  1  0
 61 63  1  0
 61124  1  1
 62125  1  0
 63 64  1  0
 63126  1  1
 64127  1  0
 65 66  1  0
 65 67  1  0
 65128  1  6
 66129  1  0
 66130  1  0
 66131  1  0
 67132  1  0
 68133  1  6
M  END
>  <i_m_ct_stereo_status>  (28) 
1

>  <s_m_source_file>  (28) 
/var/tmp/pbs.5075288.sched01/tmpdioscf2v/0xa7vsnym.sdf

>  <i_m_source_file_index>  (28) 
60

>  <i_lp_mmshare_version>  (28) 
48012

>  <i_f3d_flags>  (28) 
0

>  <s_epik_input>  (28) 
W09IXVxOPUMoXE8xKVtDSDJdW0NAQF0oW09IXSkoW0NIMl1PW1MrXTJbTy1dKVtDQEhdMU9bQ0BdMihbQ0BASF0oW0NASF0zW0NAXTQ1NilbQ0gyXU9bQ0BdKE8zKShbQ0gzXSlPW0NIM10pW0NIMl1bQ0BIXTdbQ0BdODlbQ0BdKFtPSF0pKFtDQEhdKFtPSF0pT0M3KFtDSDNdKVtDSDNdKUMoPU8pW0NAXShbQ0gzXSkoW0NAQF0xKE84KVtDQEhdNltDQF0oW0NIM10pKFtDSDJdW0NIMl00KU9bQ0BIXTVPW0NAQEhdKFtDSDNdKVtDSDJdMSlbQ0BIXTlPW0NAXShbQ0gzXSkoW0NASF0oW0NIM10pW09IXSlPW0NAQEhdMU9bQ0BASF0oW0NIM10pW0NAQEhdKFtPSF0pW0NASF0xW09IXQ==

>  <s_epik_cmdline>  (28) 
J2VwaWtfcHl0aG9uJywgJy1waHQnLCAnMi4wJywgJy1waCcsICc3LjAnLCAnLXRuJywgJzgnLCAnLW1hJywgJzIwMCcsICctaW1hZScsICc8aW5maWxlLm1hZT4nLCAnLW9tYWUnLCAnPG91dGZpbGUubWFlPic=

>  <r_epik_Ionization_Penalty>  (28) 
0.000734279

>  <r_epik_Ionization_Penalty_Charging>  (28) 
0

>  <r_epik_Ionization_Penalty_Neutral>  (28) 
0.000734279

>  <r_epik_State_Penalty>  (28) 
0.000449524

>  <r_epik_Charging_Adjusted_Penalty>  (28) 
0.000449524

>  <i_epik_Tot_Q>  (28) 
0

>  <i_epik_Tot_abs_Q>  (28) 
2

>  <s_epik_Chemistry_Notes>  (28) 
This compound has an imine and may undergo hydrolysis. This compound contains an acetal/aminal-like group ( X-CH(R)-Y where X, Y are N, S, or O) that may be acid/base labile, releasing an aldehyde.

>  <s_lp_Force_Field>  (28) 
OPLS3e

>  <r_lp_Energy>  (28) 
170.294

>  <b_lp_Chiralities_Consistent>  (28) 
1

>  <s_lp_Variant>  (28) 
25:0-2

>  <s_i_glide_gridfile>  (28) 
pfpi4k_grid

>  <i_i_glide_lignum>  (28) 
60

>  <i_i_glide_rotatable_bonds>  (28) 
13

>  <r_i_docking_score>  (28) 
-2.73783

>  <r_i_glide_ligand_efficiency>  (28) 
-0.0402622

>  <r_i_glide_ligand_efficiency_sa>  (28) 
-0.164337

>  <r_i_glide_ligand_efficiency_ln>  (28) 
-0.524538

>  <r_i_glide_gscore>  (28) 
-2.73783

>  <r_i_glide_lipo>  (28) 
-0.264821

>  <r_i_glide_hbond>  (28) 
0

>  <r_i_glide_metal>  (28) 
-0

>  <r_i_glide_rewards>  (28) 
-0.0517348

>  <r_i_glide_evdw>  (28) 
-27.4815

>  <r_i_glide_ecoul>  (28) 
-13.3749

>  <r_i_glide_erotb>  (28) 
0.135689

>  <r_i_glide_esite>  (28) 
-0.14539

>  <r_i_glide_emodel>  (28) 
-37.347

>  <r_i_glide_energy>  (28) 
-40.8564

>  <r_i_glide_einternal>  (28) 
12.4766

>  <r_i_glide_intrahb_reward>  (28) 
-0

>  <i_i_glide_confnum>  (28) 
3

>  <i_i_glide_posenum>  (28) 
8

>  <r_i_glide_eff_state_penalty>  (28) 
0

>  <ligand_id>  (28) 
25

>  <original_smiles>  (28) 
COC1(C)OCC2C(O1)C13CCC4(C)OC1OC(C)CC1(OC56C(CC27OC2OC(=NO)CC2(O)CO[S+]7[O-])C(C)(C)OC(O)C5(O)C(=O)C1(C)C6OC(C)(OC1OC(C)C(O)C1O)C(C)O)C43

>  <smiles>  (28) 
[H]ON=C1OC2([H])OC3(S(=O)OC([H])([H])C2(O[H])C1([H])[H])C([H])([H])C1([H])C(C([H])([H])[H])(C([H])([H])[H])OC([H])(O[H])C2(O[H])C(=O)C4(C([H])([H])[H])C([H])(OC(OC5([H])OC([H])(C([H])([H])[H])C([H])(O[H])C5([H])O[H])(C([H])([H])[H])C([H])(O[H])C([H])([H])[H])C21OC41C([H])([H])C([H])(C([H])([H])[H])OC2([H])OC4(C([H])([H])[H])C([H])([H])C([H])([H])C2(C2([H])OC(OC([H])([H])[H])(C([H])([H])[H])OC([H])([H])C23[H])C41[H]

$$$$
25:1:1
     RDKit          3D

133143  0  0  1  0  0  0  0  0999 V2000
   -1.0741   -8.5401    3.9375 C   0  0  0  0  0  0  0  0  0  0  0  0
    0.2530   -8.2628    4.3582 O   0  0  0  0  0  0  0  0  0  0  0  0
    1.2896   -8.3514    3.4346 C   0  0  1  0  0  0  0  0  0  0  0  0
    1.3826   -9.7926    2.9035 C   0  0  0  0  0  0  0  0  0  0  0  0
    1.0595   -7.5352    2.3261 O   0  0  0  0  0  0  0  0  0  0  0  0
    1.1250   -6.1430    2.5924 C   0  0  0  0  0  0  0  0  0  0  0  0
    2.5511   -5.8267    3.1203 C   0  0  2  0  0  0  0  0  0  0  0  0
    2.9470   -6.7605    4.3539 C   0  0  2  0  0  0  0  0  0  0  0  0
    2.5369   -8.1057    4.0481 O   0  0  0  0  0  0  0  0  0  0  0  0
    3.0100   -6.5289    5.9579 C   0  0  2  0  0  0  0  0  0  0  0  0
    4.3441   -7.2052    6.4416 C   0  0  0  0  0  0  0  0  0  0  0  0
    4.5098   -6.7656    7.8944 C   0  0  0  0  0  0  0  0  0  0  0  0
    3.2503   -5.9163    8.1059 C   0  0  2  0  0  0  0  0  0  0  0  0
    3.3453   -5.1382    9.4213 C   0  0  0  0  0  0  0  0  0  0  0  0
    2.1910   -6.8592    8.1443 O   0  0  0  0  0  0  0  0  0  0  0  0
    1.9526   -7.2904    6.8396 C   0  0  1  0  0  0  0  0  0  0  0  0
    0.6184   -7.0969    6.5113 O   0  0  0  0  0  0  0  0  0  0  0  0
   -0.0657   -5.8862    6.7550 C   0  0  1  0  0  0  0  0  0  0  0  0
   -0.4868   -5.6451    8.2148 C   0  0  0  0  0  0  0  0  0  0  0  0
    0.5758   -4.7279    6.0123 C   0  0  0  0  0  0  0  0  0  0  0  0
    1.9529   -4.1368    6.4539 C   0  0  1  0  0  0  0  0  0  0  0  0
    2.5667   -3.6101    5.2705 O   0  0  0  0  0  0  0  0  0  0  0  0
    2.7157   -2.1736    5.2422 C   0  0  2  0  0  0  0  0  0  0  0  0
    2.9232   -1.9055    3.7253 C   0  0  2  0  0  0  0  0  0  0  0  0
    2.5503   -3.0889    2.7191 C   0  0  0  0  0  0  0  0  0  0  0  0
    3.2691   -4.5034    2.5292 C   0  0  2  0  0  0  0  0  0  0  0  0
    3.0339   -4.7737    1.1298 O   0  0  0  0  0  0  0  0  0  0  0  0
    3.6991   -4.3102   -0.0189 C   0  0  1  0  0  0  0  0  0  0  0  0
    4.0115   -2.9668   -0.1677 O   0  0  0  0  0  0  0  0  0  0  0  0
    4.9112   -2.8418   -1.1976 C   0  0  0  0  0  0  0  0  0  0  0  0
    5.3036   -1.7572   -1.7265 N   0  0  0  0  0  0  0  0  0  0  0  0
    4.6297   -0.6585   -1.1260 O   0  0  0  0  0  0  0  0  0  0  0  0
    5.3752   -4.2226   -1.6068 C   0  0  0  0  0  0  0  0  0  0  0  0
    4.9380   -5.0943   -0.4087 C   0  0  2  0  0  0  0  0  0  0  0  0
    4.5974   -6.4067   -0.6778 O   0  0  0  0  0  0  0  0  0  0  0  0
    6.0590   -5.2012    0.6471 C   0  0  0  0  0  0  0  0  0  0  0  0
    5.5513   -5.6911    1.8668 O   0  0  0  0  0  0  0  0  0  0  0  0
    5.0810   -4.4799    2.9725 S   0  0  0  0  0  0  0  0  0  0  0  0
    5.3076   -5.0223    4.3793 O   0  0  0  0  0  0  0  0  0  0  0  0
    4.2311   -1.0633    3.4994 C   0  0  0  0  0  0  0  0  0  0  0  0
    4.8181   -1.1584    2.0813 C   0  0  0  0  0  0  0  0  0  0  0  0
    3.9327    0.4495    3.7131 C   0  0  0  0  0  0  0  0  0  0  0  0
    5.3207   -1.4517    4.3687 O   0  0  0  0  0  0  0  0  0  0  0  0
    5.1247   -2.0428    5.6394 C   0  0  1  0  0  0  0  0  0  0  0  0
    6.1679   -1.7265    6.5251 O   0  0  0  0  0  0  0  0  0  0  0  0
    3.7932   -1.6149    6.2236 C   0  0  1  0  0  0  0  0  0  0  0  0
    3.8601   -0.2230    6.4956 O   0  0  0  0  0  0  0  0  0  0  0  0
    3.2246   -2.2160    7.5043 C   0  0  0  0  0  0  0  0  0  0  0  0
    3.7192   -2.1250    8.6307 O   0  0  0  0  0  0  0  0  0  0  0  0
    1.8168   -2.7484    7.1820 C   0  0  2  0  0  0  0  0  0  0  0  0
    0.8512   -2.6159    8.3940 C   0  0  0  0  0  0  0  0  0  0  0  0
    1.4453   -1.8519    5.9583 C   0  0  1  0  0  0  0  0  0  0  0  0
    1.1911   -0.4438    6.2085 O   0  0  0  0  0  0  0  0  0  0  0  0
   -0.1206    0.1153    6.2137 C   0  0  1  0  0  0  0  0  0  0  0  0
   -0.4539    0.5271    7.6761 C   0  0  0  0  0  0  0  0  0  0  0  0
   -0.0682    1.3171    5.4428 O   0  0  0  0  0  0  0  0  0  0  0  0
   -1.3030    1.8666    5.0409 C   0  0  2  0  0  0  0  0  0  0  0  0
   -1.5977    1.5162    3.7013 O   0  0  0  0  0  0  0  0  0  0  0  0
   -1.5891    2.6190    2.8255 C   0  0  1  0  0  0  0  0  0  0  0  0
   -3.0186    2.9864    2.3703 C   0  0  0  0  0  0  0  0  0  0  0  0
   -0.9203    3.7019    3.6671 C   0  0  1  0  0  0  0  0  0  0  0  0
   -1.2797    5.0142    3.2772 O   0  0  0  0  0  0  0  0  0  0  0  0
   -1.3442    3.3662    5.0828 C   0  0  1  0  0  0  0  0  0  0  0  0
   -2.6720    3.7745    5.3507 O   0  0  0  0  0  0  0  0  0  0  0  0
   -1.1084   -0.9471    5.5730 C   0  0  2  0  0  0  0  0  0  0  0  0
   -2.5794   -0.6378    5.4482 C   0  0  0  0  0  0  0  0  0  0  0  0
   -1.2581   -2.0665    6.3931 O   0  0  0  0  0  0  0  0  0  0  0  0
    3.0831   -5.1923    6.7429 C   0  0  2  0  0  0  0  0  0  0  0  0
   -1.7665   -8.2321    4.7234 H   0  0  0  0  0  0  0  0  0  0  0  0
   -1.2190   -9.6014    3.7602 H   0  0  0  0  0  0  0  0  0  0  0  0
   -1.3419   -8.0011    3.0311 H   0  0  0  0  0  0  0  0  0  0  0  0
    2.2824   -9.8978    2.2956 H   0  0  0  0  0  0  0  0  0  0  0  0
    0.5247  -10.0352    2.2770 H   0  0  0  0  0  0  0  0  0  0  0  0
    1.4385  -10.4986    3.7320 H   0  0  0  0  0  0  0  0  0  0  0  0
    0.9452   -5.6785    1.6273 H   0  0  0  0  0  0  0  0  0  0  0  0
    0.2860   -5.8292    3.2053 H   0  0  0  0  0  0  0  0  0  0  0  0
    3.0677   -6.4871    2.4198 H   0  0  0  0  0  0  0  0  0  0  0  0
    3.9984   -6.9114    4.1208 H   0  0  0  0  0  0  0  0  0  0  0  0
    4.3332   -8.2923    6.3499 H   0  0  0  0  0  0  0  0  0  0  0  0
    5.2242   -6.8752    5.8908 H   0  0  0  0  0  0  0  0  0  0  0  0
    4.5590   -7.6114    8.5816 H   0  0  0  0  0  0  0  0  0  0  0  0
    5.4240   -6.1829    8.0234 H   0  0  0  0  0  0  0  0  0  0  0  0
    4.2017   -4.4676    9.4374 H   0  0  0  0  0  0  0  0  0  0  0  0
    3.4600   -5.8246   10.2587 H   0  0  0  0  0  0  0  0  0  0  0  0
    2.4558   -4.5694    9.6284 H   0  0  0  0  0  0  0  0  0  0  0  0
    2.0924   -8.3706    6.7948 H   0  0  0  0  0  0  0  0  0  0  0  0
   -1.0130   -6.0573    6.2378 H   0  0  0  0  0  0  0  0  0  0  0  0
   -1.1844   -4.8075    8.2963 H   0  0  0  0  0  0  0  0  0  0  0  0
    0.3582   -5.4409    8.8701 H   0  0  0  0  0  0  0  0  0  0  0  0
   -0.9998   -6.5233    8.5992 H   0  0  0  0  0  0  0  0  0  0  0  0
    0.6786   -5.0420    4.9930 H   0  0  0  0  0  0  0  0  0  0  0  0
   -0.2111   -4.0049    5.9460 H   0  0  0  0  0  0  0  0  0  0  0  0
    2.1208   -1.2083    3.4777 H   0  0  0  0  0  0  0  0  0  0  0  0
    1.5005   -3.3205    2.8930 H   0  0  0  0  0  0  0  0  0  0  0  0
    2.4958   -2.6111    1.7412 H   0  0  0  0  0  0  0  0  0  0  0  0
    2.9325   -4.4953   -0.7842 H   0  0  0  0  0  0  0  0  0  0  0  0
    4.0053   -1.0688   -0.5478 H   0  0  0  0  0  0  0  0  0  0  0  0
    4.8768   -4.4941   -2.5388 H   0  0  0  0  0  0  0  0  0  0  0  0
    6.4421   -4.2181   -1.7904 H   0  0  0  0  0  0  0  0  0  0  0  0
    4.0495   -6.3691   -1.5256 H   0  0  0  0  0  0  0  0  0  0  0  0
    6.8315   -5.8898    0.2969 H   0  0  0  0  0  0  0  0  0  0  0  0
    6.5615   -4.2453    0.7890 H   0  0  0  0  0  0  0  0  0  0  0  0
    4.0530   -0.9431    1.3394 H   0  0  0  0  0  0  0  0  0  0  0  0
    5.2516   -2.1248    1.8548 H   0  0  0  0  0  0  0  0  0  0  0  0
    5.6246   -0.4406    1.9360 H   0  0  0  0  0  0  0  0  0  0  0  0
    3.6579    0.9451    2.7828 H   0  0  0  0  0  0  0  0  0  0  0  0
    4.7999    0.9779    4.1109 H   0  0  0  0  0  0  0  0  0  0  0  0
    3.0866    0.6377    4.3740 H   0  0  0  0  0  0  0  0  0  0  0  0
    5.1273   -3.1068    5.5006 H   0  0  0  0  0  0  0  0  0  0  0  0
    6.0027   -0.8483    6.8383 H   0  0  0  0  0  0  0  0  0  0  0  0
    4.0096    0.2268    5.6780 H   0  0  0  0  0  0  0  0  0  0  0  0
   -0.1866   -2.7650    8.1789 H   0  0  0  0  0  0  0  0  0  0  0  0
    0.9902   -1.6518    8.8605 H   0  0  0  0  0  0  0  0  0  0  0  0
    1.0029   -3.3186    9.1904 H   0  0  0  0  0  0  0  0  0  0  0  0
    0.7590   -2.2959    5.2720 H   0  0  0  0  0  0  0  0  0  0  0  0
    0.0686    1.4438    7.9553 H   0  0  0  0  0  0  0  0  0  0  0  0
   -0.1621   -0.2128    8.3824 H   0  0  0  0  0  0  0  0  0  0  0  0
   -1.5232    0.6485    7.8223 H   0  0  0  0  0  0  0  0  0  0  0  0
   -2.0540    1.5954    5.7774 H   0  0  0  0  0  0  0  0  0  0  0  0
   -0.9920    2.3620    1.9550 H   0  0  0  0  0  0  0  0  0  0  0  0
   -2.9952    3.8759    1.7469 H   0  0  0  0  0  0  0  0  0  0  0  0
   -3.6985    3.2230    3.1856 H   0  0  0  0  0  0  0  0  0  0  0  0
   -3.4727    2.2036    1.7663 H   0  0  0  0  0  0  0  0  0  0  0  0
    0.1624    3.5805    3.5913 H   0  0  0  0  0  0  0  0  0  0  0  0
   -0.9300    5.1257    2.3879 H   0  0  0  0  0  0  0  0  0  0  0  0
   -0.7060    3.7434    5.8635 H   0  0  0  0  0  0  0  0  0  0  0  0
   -3.2382    3.3225    4.7553 H   0  0  0  0  0  0  0  0  0  0  0  0
   -0.7266   -1.2205    4.5856 H   0  0  0  0  0  0  0  0  0  0  0  0
   -2.7682    0.0607    4.6837 H   0  0  0  0  0  0  0  0  0  0  0  0
   -2.9973   -0.2726    6.3852 H   0  0  0  0  0  0  0  0  0  0  0  0
   -3.1167   -1.4610    5.0065 H   0  0  0  0  0  0  0  0  0  0  0  0
   -0.3702   -2.3902    6.5760 H   0  0  0  0  0  0  0  0  0  0  0  0
    4.0328   -4.7000    6.5453 H   0  0  0  0  0  0  0  0  0  0  0  0
  1  2  1  0
  1 69  1  0
  1 70  1  0
  1 71  1  0
  3  2  1  1
  3  9  1  0
  3  4  1  0
  3  5  1  0
  4 72  1  0
  4 73  1  0
  4 74  1  0
  5  6  1  0
  6  7  1  0
  6 75  1  0
  6 76  1  0
  7 26  1  0
  7  8  1  0
  7 77  1  6
  8  9  1  0
  8 10  1  0
  8 78  1  6
 10 16  1  0
 10 68  1  0
 10 11  1  1
 11 12  1  0
 11 79  1  0
 11 80  1  0
 12 13  1  0
 12 81  1  0
 12 82  1  0
 13 68  1  0
 13 14  1  1
 13 15  1  0
 14 83  1  0
 14 84  1  0
 14 85  1  0
 15 16  1  0
 16 17  1  0
 16 86  1  1
 17 18  1  0
 18 19  1  0
 18 20  1  0
 18 87  1  6
 19 88  1  0
 19 89  1  0
 19 90  1  0
 21 20  1  6
 20 91  1  0
 20 92  1  0
 21 50  1  0
 21 22  1  0
 21 68  1  0
 23 22  1  6
 23 46  1  0
 23 52  1  0
 23 24  1  0
 24 25  1  0
 24 40  1  0
 24 93  1  6
 25 26  1  0
 25 94  1  0
 25 95  1  0
 26 38  1  0
 26 27  1  6
 27 28  1  0
 28 34  1  0
 28 29  1  0
 28 96  1  6
 29 30  1  0
 30 31  2  3
 30 33  1  0
 31 32  1  0
 32 97  1  0
 33 34  1  0
 33 98  1  0
 33 99  1  0
 34 35  1  6
 34 36  1  0
 35100  1  0
 36 37  1  0
 36101  1  0
 36102  1  0
 38 37  1  6
 38 39  2  0
 40 41  1  0
 40 42  1  0
 40 43  1  0
 41103  1  0
 41104  1  0
 41105  1  0
 42106  1  0
 42107  1  0
 42108  1  0
 43 44  1  0
 44 45  1  0
 44 46  1  0
 44109  1  6
 45110  1  0
 46 47  1  1
 46 48  1  0
 47111  1  0
 48 49  2  0
 48 50  1  0
 50 51  1  1
 50 52  1  0
 51112  1  0
 51113  1  0
 51114  1  0
 52 53  1  0
 52115  1  6
 54 53  1  1
 54 55  1  0
 54 56  1  0
 54 65  1  0
 55116  1  0
 55117  1  0
 55118  1  0
 56 57  1  0
 57 63  1  0
 57 58  1  0
 57119  1  1
 58 59  1  0
 59 60  1  0
 59 61  1  0
 59120  1  6
 60121  1  0
 60122  1  0
 60123  1  0
 61 62  1  0
 61 63  1  0
 61124  1  1
 62125  1  0
 63 64  1  0
 63126  1  1
 64127  1  0
 65 66  1  0
 65 67  1  0
 65128  1  6
 66129  1  0
 66130  1  0
 66131  1  0
 67132  1  0
 68133  1  6
M  END
>  <i_m_ct_stereo_status>  (29) 
1

>  <s_m_source_file>  (29) 
/var/tmp/pbs.5075288.sched01/tmpdioscf2v/0xa7vsnym.sdf

>  <i_m_source_file_index>  (29) 
60

>  <i_lp_mmshare_version>  (29) 
48012

>  <i_f3d_flags>  (29) 
0

>  <s_epik_input>  (29) 
W09IXVxOPUMoXE8xKVtDSDJdW0NAQF0oW09IXSkoW0NIMl1PW1MrXTJbTy1dKVtDQEhdMU9bQ0BdMihbQ0BASF0oW0NASF0zW0NAXTQ1NilbQ0gyXU9bQ0BdKE8zKShbQ0gzXSlPW0NIM10pW0NIMl1bQ0BIXTdbQ0BdODlbQ0BdKFtPSF0pKFtDQEhdKFtPSF0pT0M3KFtDSDNdKVtDSDNdKUMoPU8pW0NAXShbQ0gzXSkoW0NAQF0xKE84KVtDQEhdNltDQF0oW0NIM10pKFtDSDJdW0NIMl00KU9bQ0BIXTVPW0NAQEhdKFtDSDNdKVtDSDJdMSlbQ0BIXTlPW0NAXShbQ0gzXSkoW0NASF0oW0NIM10pW09IXSlPW0NAQEhdMU9bQ0BASF0oW0NIM10pW0NAQEhdKFtPSF0pW0NASF0xW09IXQ==

>  <s_epik_cmdline>  (29) 
J2VwaWtfcHl0aG9uJywgJy1waHQnLCAnMi4wJywgJy1waCcsICc3LjAnLCAnLXRuJywgJzgnLCAnLW1hJywgJzIwMCcsICctaW1hZScsICc8aW5maWxlLm1hZT4nLCAnLW9tYWUnLCAnPG91dGZpbGUubWFlPic=

>  <r_epik_Ionization_Penalty>  (29) 
0.000734279

>  <r_epik_Ionization_Penalty_Charging>  (29) 
0

>  <r_epik_Ionization_Penalty_Neutral>  (29) 
0.000734279

>  <r_epik_State_Penalty>  (29) 
0.000449524

>  <r_epik_Charging_Adjusted_Penalty>  (29) 
0.000449524

>  <i_epik_Tot_Q>  (29) 
0

>  <i_epik_Tot_abs_Q>  (29) 
2

>  <s_epik_Chemistry_Notes>  (29) 
This compound has an imine and may undergo hydrolysis. This compound contains an acetal/aminal-like group ( X-CH(R)-Y where X, Y are N, S, or O) that may be acid/base labile, releasing an aldehyde.

>  <s_lp_Force_Field>  (29) 
OPLS3e

>  <r_lp_Energy>  (29) 
170.294

>  <b_lp_Chiralities_Consistent>  (29) 
1

>  <s_lp_Variant>  (29) 
25:0-2

>  <s_i_glide_gridfile>  (29) 
pfpi4k_grid

>  <i_i_glide_lignum>  (29) 
60

>  <i_i_glide_rotatable_bonds>  (29) 
13

>  <r_i_docking_score>  (29) 
-1.87799

>  <r_i_glide_ligand_efficiency>  (29) 
-0.0276176

>  <r_i_glide_ligand_efficiency_sa>  (29) 
-0.112725

>  <r_i_glide_ligand_efficiency_ln>  (29) 
-0.359803

>  <r_i_glide_gscore>  (29) 
-1.87799

>  <r_i_glide_lipo>  (29) 
-0.347643

>  <r_i_glide_hbond>  (29) 
0

>  <r_i_glide_metal>  (29) 
-0

>  <r_i_glide_rewards>  (29) 
-0.0530701

>  <r_i_glide_evdw>  (29) 
-24.4567

>  <r_i_glide_ecoul>  (29) 
-15.8656

>  <r_i_glide_erotb>  (29) 
0.135689

>  <r_i_glide_esite>  (29) 
-0.153865

>  <r_i_glide_emodel>  (29) 
-33.2068

>  <r_i_glide_energy>  (29) 
-40.3224

>  <r_i_glide_einternal>  (29) 
12.0927

>  <r_i_glide_intrahb_reward>  (29) 
-0

>  <i_i_glide_confnum>  (29) 
3

>  <i_i_glide_posenum>  (29) 
5

>  <r_i_glide_eff_state_penalty>  (29) 
0

>  <ligand_id>  (29) 
25

>  <original_smiles>  (29) 
COC1(C)OCC2C(O1)C13CCC4(C)OC1OC(C)CC1(OC56C(CC27OC2OC(=NO)CC2(O)CO[S+]7[O-])C(C)(C)OC(O)C5(O)C(=O)C1(C)C6OC(C)(OC1OC(C)C(O)C1O)C(C)O)C43

>  <smiles>  (29) 
[H]ON=C1OC2([H])OC3(S(=O)OC([H])([H])C2(O[H])C1([H])[H])C([H])([H])C1([H])C(C([H])([H])[H])(C([H])([H])[H])OC([H])(O[H])C2(O[H])C(=O)C4(C([H])([H])[H])C([H])(OC(OC5([H])OC([H])(C([H])([H])[H])C([H])(O[H])C5([H])O[H])(C([H])([H])[H])C([H])(O[H])C([H])([H])[H])C21OC41C([H])([H])C([H])(C([H])([H])[H])OC2([H])OC4(C([H])([H])[H])C([H])([H])C([H])([H])C2(C2([H])OC(OC([H])([H])[H])(C([H])([H])[H])OC([H])([H])C23[H])C41[H]

$$$$
26:0:0
     RDKit          3D

 92 98  0  0  1  0  0  0  0  0999 V2000
    3.5164  -10.5076    4.1219 C   0  0  0  0  0  0  0  0  0  0  0  0
    4.5732   -9.9180    4.7000 C   0  0  0  0  0  0  0  0  0  0  0  0
    5.3347   -8.6818    4.2015 C   0  0  1  0  0  0  0  0  0  0  0  0
    6.5610   -9.1744    3.3955 C   0  0  0  0  0  0  0  0  0  0  0  0
    4.4908   -7.7066    3.3353 C   0  0  0  0  0  0  0  0  0  0  0  0
    3.3801   -6.8225    4.0287 C   0  0  1  0  0  0  0  0  0  0  0  0
    2.3462   -7.7599    4.3067 O   0  0  0  0  0  0  0  0  0  0  0  0
    3.8211   -6.2574    5.4613 C   0  0  2  0  0  0  0  0  0  0  0  0
    2.6598   -6.1351    6.2783 O   0  0  0  0  0  0  0  0  0  0  0  0
    4.5008   -4.8405    5.4292 C   0  0  0  0  0  0  0  0  0  0  0  0
    3.6074   -3.5718    5.6134 C   0  0  0  0  0  0  0  0  0  0  0  0
    3.6267   -2.3850    4.5844 C   0  0  2  0  0  0  0  0  0  0  0  0
    3.0653   -1.0062    5.3666 C   0  0  2  0  0  0  0  0  0  0  0  0
    3.0727   -1.0782    6.9219 C   0  0  0  0  0  0  0  0  0  0  0  0
    1.7075   -0.3303    4.9611 C   0  0  0  0  0  0  0  0  0  0  0  0
    1.9232    0.8266    3.9054 C   0  0  0  0  0  0  0  0  0  0  0  0
    3.3805    0.7899    3.3976 C   0  0  1  0  0  0  0  0  0  0  0  0
    4.1348    0.4952    5.0865 S   0  0  0  0  0  0  0  0  0  0  0  0
    5.6294    0.1412    5.1476 O   0  0  0  0  0  0  0  0  0  0  0  0
    3.7438   -0.4051    2.4307 C   0  0  1  0  0  0  0  0  0  0  0  0
    5.0474   -0.7262    2.8250 O   0  0  0  0  0  0  0  0  0  0  0  0
    2.6111   -1.4779    2.4358 C   0  0  0  0  0  0  0  0  0  0  0  0
    3.0293   -2.7562    3.0784 C   0  0  2  0  0  0  0  0  0  0  0  0
    1.7300   -3.5696    3.3462 C   0  0  0  0  0  0  0  0  0  0  0  0
    2.0226   -4.8644    3.8126 O   0  0  0  0  0  0  0  0  0  0  0  0
    2.7827   -5.7478    3.0016 C   0  0  2  0  0  0  0  0  0  0  0  0
    1.6833   -6.3658    2.0746 C   0  0  0  0  0  0  0  0  0  0  0  0
    3.9152   -4.9970    2.1613 C   0  0  1  0  0  0  0  0  0  0  0  0
    4.0941   -5.7988    1.0070 O   0  0  0  0  0  0  0  0  0  0  0  0
    3.7356   -3.4748    1.7819 C   0  0  1  0  0  0  0  0  0  0  0  0
    2.7489   -3.6298    0.7547 O   0  0  0  0  0  0  0  0  0  0  0  0
    4.9495   -2.6589    0.9650 C   0  0  1  0  0  0  0  0  0  0  0  0
    5.7494   -3.4106   -0.2214 C   0  0  0  0  0  0  0  0  0  0  0  0
    6.9329   -2.6928   -0.9672 C   0  0  0  0  0  0  0  0  0  0  0  0
    6.5059   -4.6890    0.2498 C   0  0  0  0  0  0  0  0  0  0  0  0
    4.8371   -3.6745   -1.2865 O   0  0  0  0  0  0  0  0  0  0  0  0
    4.0296   -2.7040   -1.8200 C   0  0  0  0  0  0  0  0  0  0  0  0
    3.3843   -2.8782   -2.8574 O   0  0  0  0  0  0  0  0  0  0  0  0
    3.9053   -1.3512   -1.0873 C   0  0  0  0  0  0  0  0  0  0  0  0
    4.5918   -1.1670    0.3067 C   0  0  2  0  0  0  0  0  0  0  0  0
    5.8049   -0.4759    0.1003 O   0  0  0  0  0  0  0  0  0  0  0  0
    3.8144   -0.1952    1.0624 O   0  0  0  0  0  0  0  0  0  0  0  0
    4.7599   -7.2177    6.2088 C   0  0  0  0  0  0  0  0  0  0  0  0
    4.6824   -7.5314    7.5201 C   0  0  0  0  0  0  0  0  0  0  0  0
    5.8024   -7.8915    5.4303 C   0  0  0  0  0  0  0  0  0  0  0  0
    6.9926   -7.8316    5.7296 O   0  0  0  0  0  0  0  0  0  0  0  0
    3.1105  -10.1503    3.1821 H   0  0  0  0  0  0  0  0  0  0  0  0
    3.0339  -11.3648    4.5838 H   0  0  0  0  0  0  0  0  0  0  0  0
    4.9384  -10.3435    5.6267 H   0  0  0  0  0  0  0  0  0  0  0  0
    7.1807   -9.8487    3.9898 H   0  0  0  0  0  0  0  0  0  0  0  0
    7.1962   -8.3367    3.0961 H   0  0  0  0  0  0  0  0  0  0  0  0
    6.2645   -9.7071    2.4896 H   0  0  0  0  0  0  0  0  0  0  0  0
    5.2457   -7.0709    2.8907 H   0  0  0  0  0  0  0  0  0  0  0  0
    4.0575   -8.2430    2.4879 H   0  0  0  0  0  0  0  0  0  0  0  0
    2.7181   -8.5279    4.7203 H   0  0  0  0  0  0  0  0  0  0  0  0
    2.1953   -6.9622    6.2165 H   0  0  0  0  0  0  0  0  0  0  0  0
    5.1760   -4.8280    6.2876 H   0  0  0  0  0  0  0  0  0  0  0  0
    5.2174   -4.7234    4.6295 H   0  0  0  0  0  0  0  0  0  0  0  0
    2.5806   -3.7929    5.9010 H   0  0  0  0  0  0  0  0  0  0  0  0
    4.0324   -3.2231    6.5488 H   0  0  0  0  0  0  0  0  0  0  0  0
    4.7017   -2.2672    4.5086 H   0  0  0  0  0  0  0  0  0  0  0  0
    2.3975   -1.8391    7.3082 H   0  0  0  0  0  0  0  0  0  0  0  0
    2.7576   -0.1365    7.3677 H   0  0  0  0  0  0  0  0  0  0  0  0
    4.0731   -1.2550    7.3137 H   0  0  0  0  0  0  0  0  0  0  0  0
    0.9401   -1.0480    4.6866 H   0  0  0  0  0  0  0  0  0  0  0  0
    1.2575    0.1554    5.8266 H   0  0  0  0  0  0  0  0  0  0  0  0
    1.1801    0.8490    3.1024 H   0  0  0  0  0  0  0  0  0  0  0  0
    1.7902    1.7768    4.4306 H   0  0  0  0  0  0  0  0  0  0  0  0
    3.7156    1.7391    2.9797 H   0  0  0  0  0  0  0  0  0  0  0  0
    5.3096   -1.5068    2.3836 H   0  0  0  0  0  0  0  0  0  0  0  0
    1.6265   -1.1739    2.7411 H   0  0  0  0  0  0  0  0  0  0  0  0
    2.2178   -1.5522    1.4213 H   0  0  0  0  0  0  0  0  0  0  0  0
    1.1322   -3.0928    4.1193 H   0  0  0  0  0  0  0  0  0  0  0  0
    1.0686   -3.6325    2.4810 H   0  0  0  0  0  0  0  0  0  0  0  0
    2.0270   -7.2494    1.5358 H   0  0  0  0  0  0  0  0  0  0  0  0
    1.3468   -5.6523    1.3273 H   0  0  0  0  0  0  0  0  0  0  0  0
    0.7905   -6.6635    2.6370 H   0  0  0  0  0  0  0  0  0  0  0  0
    4.8430   -5.0257    2.6952 H   0  0  0  0  0  0  0  0  0  0  0  0
    4.2848   -6.6847    1.2696 H   0  0  0  0  0  0  0  0  0  0  0  0
    2.5462   -2.7947    0.3599 H   0  0  0  0  0  0  0  0  0  0  0  0
    5.7657   -2.5738    1.6798 H   0  0  0  0  0  0  0  0  0  0  0  0
    7.6736   -2.2863   -0.2748 H   0  0  0  0  0  0  0  0  0  0  0  0
    6.6168   -1.8967   -1.6417 H   0  0  0  0  0  0  0  0  0  0  0  0
    7.4641   -3.3699   -1.6391 H   0  0  0  0  0  0  0  0  0  0  0  0
    6.4456   -4.8527    1.3199 H   0  0  0  0  0  0  0  0  0  0  0  0
    7.5825   -4.6735    0.0680 H   0  0  0  0  0  0  0  0  0  0  0  0
    6.1428   -5.5684   -0.2875 H   0  0  0  0  0  0  0  0  0  0  0  0
    4.2984   -0.5882   -1.7562 H   0  0  0  0  0  0  0  0  0  0  0  0
    2.8482   -1.1615   -0.9647 H   0  0  0  0  0  0  0  0  0  0  0  0
    5.5730    0.3770   -0.2350 H   0  0  0  0  0  0  0  0  0  0  0  0
    3.9452   -7.1017    8.1783 H   0  0  0  0  0  0  0  0  0  0  0  0
    5.3727   -8.2265    7.9623 H   0  0  0  0  0  0  0  0  0  0  0  0
  1  2  2  0
  1 47  1  0
  1 48  1  0
  2  3  1  0
  2 49  1  0
  3 45  1  0
  3  4  1  6
  3  5  1  0
  4 50  1  0
  4 51  1  0
  4 52  1  0
  5  6  1  0
  5 53  1  0
  5 54  1  0
  6 26  1  0
  6  7  1  1
  6  8  1  0
  7 55  1  0
  8  9  1  1
  8 10  1  0
  8 43  1  0
  9 56  1  0
 10 11  1  0
 10 57  1  0
 10 58  1  0
 11 12  1  0
 11 59  1  0
 11 60  1  0
 12 23  1  0
 12 13  1  0
 12 61  1  6
 18 13  1  6
 13 14  1  1
 13 15  1  0
 14 62  1  0
 14 63  1  0
 14 64  1  0
 15 16  1  0
 15 65  1  0
 15 66  1  0
 16 17  1  0
 16 67  1  0
 16 68  1  0
 17 18  1  0
 17 20  1  0
 17 69  1  6
 18 19  2  0
 20 42  1  0
 20 21  1  1
 20 22  1  0
 21 70  1  0
 23 22  1  6
 22 71  1  0
 22 72  1  0
 23 30  1  0
 23 24  1  0
 24 25  1  0
 24 73  1  0
 24 74  1  0
 25 26  1  0
 26 27  1  6
 26 28  1  0
 27 75  1  0
 27 76  1  0
 27 77  1  0
 28 29  1  0
 28 30  1  0
 28 78  1  1
 29 79  1  0
 30 31  1  6
 30 32  1  0
 31 80  1  0
 32 40  1  0
 32 33  1  0
 32 81  1  1
 33 34  1  0
 33 35  1  0
 33 36  1  0
 34 82  1  0
 34 83  1  0
 34 84  1  0
 35 85  1  0
 35 86  1  0
 35 87  1  0
 36 37  1  0
 37 38  2  0
 37 39  1  0
 39 40  1  0
 39 88  1  0
 39 89  1  0
 40 41  1  6
 40 42  1  0
 41 90  1  0
 43 44  2  0
 43 45  1  0
 44 91  1  0
 44 92  1  0
 45 46  2  0
M  END
>  <i_m_ct_stereo_status>  (30) 
1

>  <s_m_source_file>  (30) 
/var/tmp/pbs.5075288.sched01/tmpdioscf2v/0xa7vsnym.sdf

>  <i_m_source_file_index>  (30) 
61

>  <i_lp_mmshare_version>  (30) 
48012

>  <i_f3d_flags>  (30) 
0

>  <s_epik_input>  (30) 
W0NIMl09W0NIXVtDQEBdKFtDSDNdKShbQ0gyXTEpQyg9TylDKD1bQ0gyXSlbQ0BAXShbT0hdKShbQ0gyXVtDSDJdMilbQ0BAXTEoW09IXSlbQ0BAXShbQ0gzXSkoT1tDSDJdMylbQ0BASF0oW09IXSlbQ0BdNChbT0hdKVtDQEBIXShDKFtDSDNdKShbQ0gzXSlPQyg9TylbQ0gyXTUpW0NAXTUoW09IXSlPW0NAXShbT0hdKShbQ0gyXTYpW0NASF0oW1MrXTdbTy1dKVtDSDJdW0NIMl1bQ0BdNyhbQ0BASF0yQzM0NilbQ0gzXQ==

>  <s_epik_cmdline>  (30) 
J2VwaWtfcHl0aG9uJywgJy1waHQnLCAnMi4wJywgJy1waCcsICc3LjAnLCAnLXRuJywgJzgnLCAnLW1hJywgJzIwMCcsICctaW1hZScsICc8aW5maWxlLm1hZT4nLCAnLW9tYWUnLCAnPG91dGZpbGUubWFlPic=

>  <r_lp_tautomer_probability>  (30) 
1

>  <r_epik_Ionization_Penalty>  (30) 
7.41708e-06

>  <r_epik_Ionization_Penalty_Charging>  (30) 
0

>  <r_epik_Ionization_Penalty_Neutral>  (30) 
7.41708e-06

>  <r_epik_State_Penalty>  (30) 
-0

>  <r_epik_Charging_Adjusted_Penalty>  (30) 
0

>  <i_epik_Tot_Q>  (30) 
0

>  <i_epik_Tot_abs_Q>  (30) 
2

>  <s_epik_Chemistry_Notes>  (30) 
This compound has an ester and may undergo hydrolysis at high or low pH.

>  <s_lp_Force_Field>  (30) 
OPLS3e

>  <r_lp_Energy>  (30) 
256

>  <b_lp_Chiralities_Consistent>  (30) 
1

>  <s_lp_Variant>  (30) 
26:0-1

>  <s_i_glide_gridfile>  (30) 
pfpi4k_grid

>  <i_i_glide_lignum>  (30) 
61

>  <i_i_glide_rotatable_bonds>  (30) 
7

>  <r_i_docking_score>  (30) 
-2.69307

>  <r_i_glide_ligand_efficiency>  (30) 
-0.058545

>  <r_i_glide_ligand_efficiency_sa>  (30) 
-0.20977

>  <r_i_glide_ligand_efficiency_ln>  (30) 
-0.557729

>  <r_i_glide_gscore>  (30) 
-2.69307

>  <r_i_glide_lipo>  (30) 
-0.241938

>  <r_i_glide_hbond>  (30) 
0

>  <r_i_glide_metal>  (30) 
-0

>  <r_i_glide_rewards>  (30) 
-0.0550392

>  <r_i_glide_evdw>  (30) 
-34.6576

>  <r_i_glide_ecoul>  (30) 
-4.61988

>  <r_i_glide_erotb>  (30) 
0.0479199

>  <r_i_glide_esite>  (30) 
-0.0181503

>  <r_i_glide_emodel>  (30) 
-44.2094

>  <r_i_glide_energy>  (30) 
-39.2775

>  <r_i_glide_einternal>  (30) 
3.32134

>  <r_i_glide_intrahb_reward>  (30) 
-0

>  <i_i_glide_confnum>  (30) 
3

>  <i_i_glide_posenum>  (30) 
35

>  <r_i_glide_eff_state_penalty>  (30) 
0

>  <ligand_id>  (30) 
26

>  <original_smiles>  (30) 
C=CC1(C)CC2(O)C(O)(CCC3C4(C)CCC([S+]4[O-])C4(O)CC35COC2(C)C(O)C5(O)C2C(C)(C)OC(=O)CC2(O)O4)C(=C)C1=O

>  <smiles>  (30) 
[H]OC1([H])C2(C([H])([H])[H])OC([H])([H])C34C([H])([H])C(O[H])(OC5(O[H])C([H])([H])C(=O)OC(C([H])([H])[H])(C([H])([H])[H])C5([H])C13O[H])C1([H])S(=O)C(C([H])([H])[H])(C([H])([H])C1([H])[H])C4([H])C([H])([H])C([H])([H])C1(O[H])C(=C([H])[H])C(=O)C(C([H])=C([H])[H])(C([H])([H])[H])C([H])([H])C12O[H]

$$$$
26:0:1
     RDKit          3D

 92 98  0  0  1  0  0  0  0  0999 V2000
    3.3375  -10.7054    3.7910 C   0  0  0  0  0  0  0  0  0  0  0  0
    4.3832  -10.1603    4.4273 C   0  0  0  0  0  0  0  0  0  0  0  0
    5.1833   -8.9184    4.0030 C   0  0  1  0  0  0  0  0  0  0  0  0
    6.4090   -9.3992    3.1908 C   0  0  0  0  0  0  0  0  0  0  0  0
    4.3740   -7.8816    3.1775 C   0  0  0  0  0  0  0  0  0  0  0  0
    3.2734   -7.0071    3.8980 C   0  0  1  0  0  0  0  0  0  0  0  0
    2.2146   -7.9372    4.1136 O   0  0  0  0  0  0  0  0  0  0  0  0
    3.7031   -6.5242    5.3628 C   0  0  2  0  0  0  0  0  0  0  0  0
    2.5343   -6.4130    6.1675 O   0  0  0  0  0  0  0  0  0  0  0  0
    4.4160   -5.1251    5.4117 C   0  0  0  0  0  0  0  0  0  0  0  0
    3.5489   -3.8479    5.6486 C   0  0  0  0  0  0  0  0  0  0  0  0
    3.6078   -2.6100    4.6821 C   0  0  2  0  0  0  0  0  0  0  0  0
    3.0754   -1.2546    5.5258 C   0  0  2  0  0  0  0  0  0  0  0  0
    3.0536   -1.4102    7.0725 C   0  0  0  0  0  0  0  0  0  0  0  0
    1.7348   -0.5336    5.1379 C   0  0  0  0  0  0  0  0  0  0  0  0
    1.9857    0.6703    4.1470 C   0  0  0  0  0  0  0  0  0  0  0  0
    3.4528    0.6413    3.6483 C   0  0  1  0  0  0  0  0  0  0  0  0
    4.1845    0.2321    5.3270 S   0  0  0  0  0  0  0  0  0  0  0  0
    5.6734   -0.1454    5.3458 O   0  0  0  0  0  0  0  0  0  0  0  0
    3.8010   -0.5305    2.6319 C   0  0  1  0  0  0  0  0  0  0  0  0
    5.0839   -0.9340    3.0314 O   0  0  0  0  0  0  0  0  0  0  0  0
    2.6444   -1.5661    2.5659 C   0  0  0  0  0  0  0  0  0  0  0  0
    3.0279   -2.8888    3.1510 C   0  0  2  0  0  0  0  0  0  0  0  0
    1.7086   -3.6825    3.3569 C   0  0  0  0  0  0  0  0  0  0  0  0
    1.9609   -5.0082    3.7623 O   0  0  0  0  0  0  0  0  0  0  0  0
    2.7163   -5.8678    2.9203 C   0  0  2  0  0  0  0  0  0  0  0  0
    1.6162   -6.4121    1.9459 C   0  0  0  0  0  0  0  0  0  0  0  0
    3.8784   -5.1025    2.1330 C   0  0  1  0  0  0  0  0  0  0  0  0
    4.0558   -5.8470    0.9416 O   0  0  0  0  0  0  0  0  0  0  0  0
    3.7400   -3.5560    1.8299 C   0  0  1  0  0  0  0  0  0  0  0  0
    2.7604   -3.6402    0.7859 O   0  0  0  0  0  0  0  0  0  0  0  0
    4.9813   -2.7289    1.0675 C   0  0  1  0  0  0  0  0  0  0  0  0
    5.7847   -3.4404   -0.1373 C   0  0  0  0  0  0  0  0  0  0  0  0
    6.9915   -2.7100   -0.8257 C   0  0  0  0  0  0  0  0  0  0  0  0
    6.5019   -4.7618    0.2805 C   0  0  0  0  0  0  0  0  0  0  0  0
    4.8818   -3.6282   -1.2251 O   0  0  0  0  0  0  0  0  0  0  0  0
    4.1021   -2.6127   -1.7217 C   0  0  0  0  0  0  0  0  0  0  0  0
    3.4773   -2.7183   -2.7689 O   0  0  0  0  0  0  0  0  0  0  0  0
    4.0040   -1.2929   -0.9214 C   0  0  0  0  0  0  0  0  0  0  0  0
    4.6729   -1.1945    0.4875 C   0  0  2  0  0  0  0  0  0  0  0  0
    5.8958   -0.5124    0.3284 O   0  0  0  0  0  0  0  0  0  0  0  0
    3.9020   -0.2396    1.2799 O   0  0  0  0  0  0  0  0  0  0  0  0
    4.6096   -7.5458    6.0744 C   0  0  0  0  0  0  0  0  0  0  0  0
    4.5033   -7.9203    7.3667 C   0  0  0  0  0  0  0  0  0  0  0  0
    5.6442   -8.2039    5.2758 C   0  0  0  0  0  0  0  0  0  0  0  0
    6.8371   -8.1872    5.5990 O   0  0  0  0  0  0  0  0  0  0  0  0
    2.9696  -10.3030    2.8514 H   0  0  0  0  0  0  0  0  0  0  0  0
    2.8259  -11.5722    4.1996 H   0  0  0  0  0  0  0  0  0  0  0  0
    4.7123  -10.6288    5.3479 H   0  0  0  0  0  0  0  0  0  0  0  0
    7.0026  -10.1168    3.7614 H   0  0  0  0  0  0  0  0  0  0  0  0
    7.0685   -8.5612    2.9445 H   0  0  0  0  0  0  0  0  0  0  0  0
    6.1128   -9.8780    2.2557 H   0  0  0  0  0  0  0  0  0  0  0  0
    5.1506   -7.2411    2.7756 H   0  0  0  0  0  0  0  0  0  0  0  0
    3.9408   -8.3634    2.2990 H   0  0  0  0  0  0  0  0  0  0  0  0
    2.5605   -8.7275    4.5041 H   0  0  0  0  0  0  0  0  0  0  0  0
    2.0521   -7.2306    6.0616 H   0  0  0  0  0  0  0  0  0  0  0  0
    5.0767   -5.1727    6.2782 H   0  0  0  0  0  0  0  0  0  0  0  0
    5.1483   -4.9833    4.6318 H   0  0  0  0  0  0  0  0  0  0  0  0
    2.5147   -4.0572    5.9099 H   0  0  0  0  0  0  0  0  0  0  0  0
    3.9679   -3.5578    6.6055 H   0  0  0  0  0  0  0  0  0  0  0  0
    4.6865   -2.5223    4.6335 H   0  0  0  0  0  0  0  0  0  0  0  0
    2.3552   -2.1736    7.4107 H   0  0  0  0  0  0  0  0  0  0  0  0
    2.7526   -0.4896    7.5642 H   0  0  0  0  0  0  0  0  0  0  0  0
    4.0400   -1.6324    7.4717 H   0  0  0  0  0  0  0  0  0  0  0  0
    0.9547   -1.2170    4.8176 H   0  0  0  0  0  0  0  0  0  0  0  0
    1.2836   -0.0847    6.0200 H   0  0  0  0  0  0  0  0  0  0  0  0
    1.2596    0.7481    3.3348 H   0  0  0  0  0  0  0  0  0  0  0  0
    1.8646    1.5964    4.7205 H   0  0  0  0  0  0  0  0  0  0  0  0
    3.8065    1.6046    3.2819 H   0  0  0  0  0  0  0  0  0  0  0  0
    5.6321   -0.1723    3.1252 H   0  0  0  0  0  0  0  0  0  0  0  0
    1.6653   -1.2560    2.8782 H   0  0  0  0  0  0  0  0  0  0  0  0
    2.2738   -1.5833    1.5435 H   0  0  0  0  0  0  0  0  0  0  0  0
    1.1082   -3.2336    4.1436 H   0  0  0  0  0  0  0  0  0  0  0  0
    1.0588   -3.6893    2.4844 H   0  0  0  0  0  0  0  0  0  0  0  0
    1.9488   -7.2789    1.3696 H   0  0  0  0  0  0  0  0  0  0  0  0
    1.3107   -5.6585    1.2274 H   0  0  0  0  0  0  0  0  0  0  0  0
    0.7077   -6.7161    2.4777 H   0  0  0  0  0  0  0  0  0  0  0  0
    4.7967   -5.1801    2.6777 H   0  0  0  0  0  0  0  0  0  0  0  0
    4.2123   -6.7542    1.1641 H   0  0  0  0  0  0  0  0  0  0  0  0
    2.5856   -2.7808    0.4280 H   0  0  0  0  0  0  0  0  0  0  0  0
    5.7869   -2.7024    1.8040 H   0  0  0  0  0  0  0  0  0  0  0  0
    7.7322   -2.3568   -0.1034 H   0  0  0  0  0  0  0  0  0  0  0  0
    6.6985   -1.8751   -1.4618 H   0  0  0  0  0  0  0  0  0  0  0  0
    7.5179   -3.3659   -1.5246 H   0  0  0  0  0  0  0  0  0  0  0  0
    6.4265   -4.9747    1.3408 H   0  0  0  0  0  0  0  0  0  0  0  0
    7.5804   -4.7640    0.1025 H   0  0  0  0  0  0  0  0  0  0  0  0
    6.1213   -5.6008   -0.3057 H   0  0  0  0  0  0  0  0  0  0  0  0
    4.4260   -0.5116   -1.5478 H   0  0  0  0  0  0  0  0  0  0  0  0
    2.9498   -1.0847   -0.8036 H   0  0  0  0  0  0  0  0  0  0  0  0
    5.6853    0.3419   -0.0101 H   0  0  0  0  0  0  0  0  0  0  0  0
    3.7639   -7.5092    8.0365 H   0  0  0  0  0  0  0  0  0  0  0  0
    5.1675   -8.6582    7.7834 H   0  0  0  0  0  0  0  0  0  0  0  0
  1  2  2  0
  1 47  1  0
  1 48  1  0
  2  3  1  0
  2 49  1  0
  3 45  1  0
  3  4  1  6
  3  5  1  0
  4 50  1  0
  4 51  1  0
  4 52  1  0
  5  6  1  0
  5 53  1  0
  5 54  1  0
  6 26  1  0
  6  7  1  1
  6  8  1  0
  7 55  1  0
  8  9  1  1
  8 10  1  0
  8 43  1  0
  9 56  1  0
 10 11  1  0
 10 57  1  0
 10 58  1  0
 11 12  1  0
 11 59  1  0
 11 60  1  0
 12 23  1  0
 12 13  1  0
 12 61  1  6
 18 13  1  6
 13 14  1  1
 13 15  1  0
 14 62  1  0
 14 63  1  0
 14 64  1  0
 15 16  1  0
 15 65  1  0
 15 66  1  0
 16 17  1  0
 16 67  1  0
 16 68  1  0
 17 18  1  0
 17 20  1  0
 17 69  1  6
 18 19  2  0
 20 42  1  0
 20 21  1  1
 20 22  1  0
 21 70  1  0
 23 22  1  6
 22 71  1  0
 22 72  1  0
 23 30  1  0
 23 24  1  0
 24 25  1  0
 24 73  1  0
 24 74  1  0
 25 26  1  0
 26 27  1  6
 26 28  1  0
 27 75  1  0
 27 76  1  0
 27 77  1  0
 28 29  1  0
 28 30  1  0
 28 78  1  1
 29 79  1  0
 30 31  1  6
 30 32  1  0
 31 80  1  0
 32 40  1  0
 32 33  1  0
 32 81  1  1
 33 34  1  0
 33 35  1  0
 33 36  1  0
 34 82  1  0
 34 83  1  0
 34 84  1  0
 35 85  1  0
 35 86  1  0
 35 87  1  0
 36 37  1  0
 37 38  2  0
 37 39  1  0
 39 40  1  0
 39 88  1  0
 39 89  1  0
 40 41  1  6
 40 42  1  0
 41 90  1  0
 43 44  2  0
 43 45  1  0
 44 91  1  0
 44 92  1  0
 45 46  2  0
M  END
>  <i_m_ct_stereo_status>  (31) 
1

>  <s_m_source_file>  (31) 
/var/tmp/pbs.5075288.sched01/tmpdioscf2v/0xa7vsnym.sdf

>  <i_m_source_file_index>  (31) 
61

>  <i_lp_mmshare_version>  (31) 
48012

>  <i_f3d_flags>  (31) 
0

>  <s_epik_input>  (31) 
W0NIMl09W0NIXVtDQEBdKFtDSDNdKShbQ0gyXTEpQyg9TylDKD1bQ0gyXSlbQ0BAXShbT0hdKShbQ0gyXVtDSDJdMilbQ0BAXTEoW09IXSlbQ0BAXShbQ0gzXSkoT1tDSDJdMylbQ0BASF0oW09IXSlbQ0BdNChbT0hdKVtDQEBIXShDKFtDSDNdKShbQ0gzXSlPQyg9TylbQ0gyXTUpW0NAXTUoW09IXSlPW0NAXShbT0hdKShbQ0gyXTYpW0NASF0oW1MrXTdbTy1dKVtDSDJdW0NIMl1bQ0BdNyhbQ0BASF0yQzM0NilbQ0gzXQ==

>  <s_epik_cmdline>  (31) 
J2VwaWtfcHl0aG9uJywgJy1waHQnLCAnMi4wJywgJy1waCcsICc3LjAnLCAnLXRuJywgJzgnLCAnLW1hJywgJzIwMCcsICctaW1hZScsICc8aW5maWxlLm1hZT4nLCAnLW9tYWUnLCAnPG91dGZpbGUubWFlPic=

>  <r_lp_tautomer_probability>  (31) 
1

>  <r_epik_Ionization_Penalty>  (31) 
7.41708e-06

>  <r_epik_Ionization_Penalty_Charging>  (31) 
0

>  <r_epik_Ionization_Penalty_Neutral>  (31) 
7.41708e-06

>  <r_epik_State_Penalty>  (31) 
-0

>  <r_epik_Charging_Adjusted_Penalty>  (31) 
0

>  <i_epik_Tot_Q>  (31) 
0

>  <i_epik_Tot_abs_Q>  (31) 
2

>  <s_epik_Chemistry_Notes>  (31) 
This compound has an ester and may undergo hydrolysis at high or low pH.

>  <s_lp_Force_Field>  (31) 
OPLS3e

>  <r_lp_Energy>  (31) 
256

>  <b_lp_Chiralities_Consistent>  (31) 
1

>  <s_lp_Variant>  (31) 
26:0-1

>  <s_i_glide_gridfile>  (31) 
pfpi4k_grid

>  <i_i_glide_lignum>  (31) 
61

>  <i_i_glide_rotatable_bonds>  (31) 
7

>  <r_i_docking_score>  (31) 
-2.56099

>  <r_i_glide_ligand_efficiency>  (31) 
-0.0556738

>  <r_i_glide_ligand_efficiency_sa>  (31) 
-0.199482

>  <r_i_glide_ligand_efficiency_ln>  (31) 
-0.530376

>  <r_i_glide_gscore>  (31) 
-2.56099

>  <r_i_glide_lipo>  (31) 
-0.237327

>  <r_i_glide_hbond>  (31) 
0

>  <r_i_glide_metal>  (31) 
-0

>  <r_i_glide_rewards>  (31) 
-0.0793872

>  <r_i_glide_evdw>  (31) 
-35.7068

>  <r_i_glide_ecoul>  (31) 
-3.24764

>  <r_i_glide_erotb>  (31) 
0.0479199

>  <r_i_glide_esite>  (31) 
-0.0197139

>  <r_i_glide_emodel>  (31) 
-43.5335

>  <r_i_glide_energy>  (31) 
-38.9544

>  <r_i_glide_einternal>  (31) 
3.15092

>  <r_i_glide_intrahb_reward>  (31) 
-0

>  <i_i_glide_confnum>  (31) 
5

>  <i_i_glide_posenum>  (31) 
8

>  <r_i_glide_eff_state_penalty>  (31) 
0

>  <ligand_id>  (31) 
26

>  <original_smiles>  (31) 
C=CC1(C)CC2(O)C(O)(CCC3C4(C)CCC([S+]4[O-])C4(O)CC35COC2(C)C(O)C5(O)C2C(C)(C)OC(=O)CC2(O)O4)C(=C)C1=O

>  <smiles>  (31) 
[H]OC1([H])C2(C([H])([H])[H])OC([H])([H])C34C([H])([H])C(O[H])(OC5(O[H])C([H])([H])C(=O)OC(C([H])([H])[H])(C([H])([H])[H])C5([H])C13O[H])C1([H])S(=O)C(C([H])([H])[H])(C([H])([H])C1([H])[H])C4([H])C([H])([H])C([H])([H])C1(O[H])C(=C([H])[H])C(=O)C(C([H])=C([H])[H])(C([H])([H])[H])C([H])([H])C12O[H]

$$$$
26:0:2
     RDKit          3D

 92 98  0  0  1  0  0  0  0  0999 V2000
    3.1499  -10.7588    3.9106 C   0  0  0  0  0  0  0  0  0  0  0  0
    4.2023  -10.2518    4.5771 C   0  0  0  0  0  0  0  0  0  0  0  0
    5.0559   -9.0442    4.1780 C   0  0  1  0  0  0  0  0  0  0  0  0
    6.2905   -9.5767    3.4167 C   0  0  0  0  0  0  0  0  0  0  0  0
    4.3278   -7.9727    3.3229 C   0  0  0  0  0  0  0  0  0  0  0  0
    3.2365   -7.0555    3.9984 C   0  0  1  0  0  0  0  0  0  0  0  0
    2.1289   -7.9312    4.1743 O   0  0  0  0  0  0  0  0  0  0  0  0
    3.6232   -6.5838    5.4760 C   0  0  2  0  0  0  0  0  0  0  0  0
    2.4331   -6.4228    6.2346 O   0  0  0  0  0  0  0  0  0  0  0  0
    4.3925   -5.2166    5.5497 C   0  0  0  0  0  0  0  0  0  0  0  0
    3.5664   -3.9057    5.7432 C   0  0  0  0  0  0  0  0  0  0  0  0
    3.7186   -2.6731    4.7779 C   0  0  2  0  0  0  0  0  0  0  0  0
    3.1996   -1.3046    5.5931 C   0  0  2  0  0  0  0  0  0  0  0  0
    3.1069   -1.4515    7.1403 C   0  0  0  0  0  0  0  0  0  0  0  0
    1.9059   -0.5344    5.1502 C   0  0  0  0  0  0  0  0  0  0  0  0
    2.2429    0.6542    4.1675 C   0  0  0  0  0  0  0  0  0  0  0  0
    3.7197    0.5639    3.7303 C   0  0  1  0  0  0  0  0  0  0  0  0
    4.3870    0.1282    5.4310 S   0  0  0  0  0  0  0  0  0  0  0  0
    5.8400   -0.3274    5.4925 O   0  0  0  0  0  0  0  0  0  0  0  0
    4.0706   -0.6102    2.7308 C   0  0  1  0  0  0  0  0  0  0  0  0
    5.3332   -1.0379    3.1697 O   0  0  0  0  0  0  0  0  0  0  0  0
    2.8761   -1.6094    2.6230 C   0  0  0  0  0  0  0  0  0  0  0  0
    3.1832   -2.9356    3.2287 C   0  0  2  0  0  0  0  0  0  0  0  0
    1.8269   -3.6800    3.3897 C   0  0  0  0  0  0  0  0  0  0  0  0
    2.0090   -5.0140    3.8070 O   0  0  0  0  0  0  0  0  0  0  0  0
    2.7608   -5.9028    2.9959 C   0  0  2  0  0  0  0  0  0  0  0  0
    1.6837   -6.4155    1.9808 C   0  0  0  0  0  0  0  0  0  0  0  0
    3.9831   -5.1794    2.2532 C   0  0  1  0  0  0  0  0  0  0  0  0
    4.1763   -5.9293    1.0688 O   0  0  0  0  0  0  0  0  0  0  0  0
    3.9113   -3.6347    1.9383 C   0  0  1  0  0  0  0  0  0  0  0  0
    2.9740   -3.6941    0.8575 O   0  0  0  0  0  0  0  0  0  0  0  0
    5.2167   -2.8799    1.2311 C   0  0  1  0  0  0  0  0  0  0  0  0
    6.0340   -3.6133    0.0457 C   0  0  0  0  0  0  0  0  0  0  0  0
    7.3067   -2.9354   -0.5793 C   0  0  0  0  0  0  0  0  0  0  0  0
    6.6936   -4.9599    0.4907 C   0  0  0  0  0  0  0  0  0  0  0  0
    5.1674   -3.7512   -1.0760 O   0  0  0  0  0  0  0  0  0  0  0  0
    4.4493   -2.7147   -1.5936 C   0  0  0  0  0  0  0  0  0  0  0  0
    3.8771   -2.7923   -2.6701 O   0  0  0  0  0  0  0  0  0  0  0  0
    4.3472   -1.4096   -0.7907 C   0  0  0  0  0  0  0  0  0  0  0  0
    4.9821   -1.3225    0.6267 C   0  0  2  0  0  0  0  0  0  0  0  0
    6.2289   -0.6937    0.4877 O   0  0  0  0  0  0  0  0  0  0  0  0
    4.2323   -0.3329    1.3902 O   0  0  0  0  0  0  0  0  0  0  0  0
    4.4603   -7.6352    6.2193 C   0  0  0  0  0  0  0  0  0  0  0  0
    4.2878   -7.9980    7.5081 C   0  0  0  0  0  0  0  0  0  0  0  0
    5.5001   -8.3426    5.4651 C   0  0  0  0  0  0  0  0  0  0  0  0
    6.6793   -8.3791    5.8287 O   0  0  0  0  0  0  0  0  0  0  0  0
    2.8336  -10.3368    2.9643 H   0  0  0  0  0  0  0  0  0  0  0  0
    2.6022  -11.6111    4.3035 H   0  0  0  0  0  0  0  0  0  0  0  0
    4.4978  -10.7397    5.4960 H   0  0  0  0  0  0  0  0  0  0  0  0
    6.8274  -10.3144    4.0167 H   0  0  0  0  0  0  0  0  0  0  0  0
    6.9915   -8.7674    3.1980 H   0  0  0  0  0  0  0  0  0  0  0  0
    6.0127  -10.0508    2.4730 H   0  0  0  0  0  0  0  0  0  0  0  0
    5.1471   -7.3621    2.9589 H   0  0  0  0  0  0  0  0  0  0  0  0
    3.9123   -8.4294    2.4226 H   0  0  0  0  0  0  0  0  0  0  0  0
    2.4204   -8.7486    4.5622 H   0  0  0  0  0  0  0  0  0  0  0  0
    1.9317   -7.2273    6.0982 H   0  0  0  0  0  0  0  0  0  0  0  0
    5.0096   -5.2803    6.4491 H   0  0  0  0  0  0  0  0  0  0  0  0
    5.1631   -5.1029    4.8000 H   0  0  0  0  0  0  0  0  0  0  0  0
    2.5125   -4.0723    5.9623 H   0  0  0  0  0  0  0  0  0  0  0  0
    3.9544   -3.6261    6.7151 H   0  0  0  0  0  0  0  0  0  0  0  0
    4.8020   -2.6142    4.7584 H   0  0  0  0  0  0  0  0  0  0  0  0
    2.3631   -2.1835    7.4566 H   0  0  0  0  0  0  0  0  0  0  0  0
    2.8240   -0.5126    7.6115 H   0  0  0  0  0  0  0  0  0  0  0  0
    4.0680   -1.7086    7.5796 H   0  0  0  0  0  0  0  0  0  0  0  0
    1.1058   -1.1867    4.8087 H   0  0  0  0  0  0  0  0  0  0  0  0
    1.4450   -0.0545    6.0119 H   0  0  0  0  0  0  0  0  0  0  0  0
    1.5569    0.7586    3.3216 H   0  0  0  0  0  0  0  0  0  0  0  0
    2.1409    1.5854    4.7323 H   0  0  0  0  0  0  0  0  0  0  0  0
    4.1384    1.5152    3.4016 H   0  0  0  0  0  0  0  0  0  0  0  0
    5.8304   -0.2695    3.4486 H   0  0  0  0  0  0  0  0  0  0  0  0
    1.8967   -1.2689    2.8903 H   0  0  0  0  0  0  0  0  0  0  0  0
    2.5434   -1.6149    1.5910 H   0  0  0  0  0  0  0  0  0  0  0  0
    1.2144   -3.1973    4.1448 H   0  0  0  0  0  0  0  0  0  0  0  0
    1.2147   -3.6686    2.4959 H   0  0  0  0  0  0  0  0  0  0  0  0
    2.0098   -7.2940    1.4218 H   0  0  0  0  0  0  0  0  0  0  0  0
    1.4298   -5.6515    1.2529 H   0  0  0  0  0  0  0  0  0  0  0  0
    0.7460   -6.6836    2.4810 H   0  0  0  0  0  0  0  0  0  0  0  0
    4.8762   -5.2907    2.8362 H   0  0  0  0  0  0  0  0  0  0  0  0
    4.2834   -6.8435    1.2952 H   0  0  0  0  0  0  0  0  0  0  0  0
    2.8077   -2.8268    0.5092 H   0  0  0  0  0  0  0  0  0  0  0  0
    5.9815   -2.8771    1.9945 H   0  0  0  0  0  0  0  0  0  0  0  0
    8.0372   -2.6088    0.1693 H   0  0  0  0  0  0  0  0  0  0  0  0
    7.0714   -2.0958   -1.2336 H   0  0  0  0  0  0  0  0  0  0  0  0
    7.8337   -3.6125   -1.2586 H   0  0  0  0  0  0  0  0  0  0  0  0
    6.5751   -5.1607    1.5556 H   0  0  0  0  0  0  0  0  0  0  0  0
    7.7789   -5.0058    0.3589 H   0  0  0  0  0  0  0  0  0  0  0  0
    6.2933   -5.7892   -0.0892 H   0  0  0  0  0  0  0  0  0  0  0  0
    4.8252   -0.6348   -1.4035 H   0  0  0  0  0  0  0  0  0  0  0  0
    3.2860   -1.1572   -0.7242 H   0  0  0  0  0  0  0  0  0  0  0  0
    6.6303   -0.6183    1.3495 H   0  0  0  0  0  0  0  0  0  0  0  0
    3.5417   -7.5558    8.1492 H   0  0  0  0  0  0  0  0  0  0  0  0
    4.9021   -8.7625    7.9492 H   0  0  0  0  0  0  0  0  0  0  0  0
  1  2  2  0
  1 47  1  0
  1 48  1  0
  2  3  1  0
  2 49  1  0
  3 45  1  0
  3  4  1  6
  3  5  1  0
  4 50  1  0
  4 51  1  0
  4 52  1  0
  5  6  1  0
  5 53  1  0
  5 54  1  0
  6 26  1  0
  6  7  1  1
  6  8  1  0
  7 55  1  0
  8  9  1  1
  8 10  1  0
  8 43  1  0
  9 56  1  0
 10 11  1  0
 10 57  1  0
 10 58  1  0
 11 12  1  0
 11 59  1  0
 11 60  1  0
 12 23  1  0
 12 13  1  0
 12 61  1  6
 18 13  1  6
 13 14  1  1
 13 15  1  0
 14 62  1  0
 14 63  1  0
 14 64  1  0
 15 16  1  0
 15 65  1  0
 15 66  1  0
 16 17  1  0
 16 67  1  0
 16 68  1  0
 17 18  1  0
 17 20  1  0
 17 69  1  6
 18 19  2  0
 20 42  1  0
 20 21  1  1
 20 22  1  0
 21 70  1  0
 23 22  1  6
 22 71  1  0
 22 72  1  0
 23 30  1  0
 23 24  1  0
 24 25  1  0
 24 73  1  0
 24 74  1  0
 25 26  1  0
 26 27  1  6
 26 28  1  0
 27 75  1  0
 27 76  1  0
 27 77  1  0
 28 29  1  0
 28 30  1  0
 28 78  1  1
 29 79  1  0
 30 31  1  6
 30 32  1  0
 31 80  1  0
 32 40  1  0
 32 33  1  0
 32 81  1  1
 33 34  1  0
 33 35  1  0
 33 36  1  0
 34 82  1  0
 34 83  1  0
 34 84  1  0
 35 85  1  0
 35 86  1  0
 35 87  1  0
 36 37  1  0
 37 38  2  0
 37 39  1  0
 39 40  1  0
 39 88  1  0
 39 89  1  0
 40 41  1  6
 40 42  1  0
 41 90  1  0
 43 44  2  0
 43 45  1  0
 44 91  1  0
 44 92  1  0
 45 46  2  0
M  END
>  <i_m_ct_stereo_status>  (32) 
1

>  <s_m_source_file>  (32) 
/var/tmp/pbs.5075288.sched01/tmpdioscf2v/0xa7vsnym.sdf

>  <i_m_source_file_index>  (32) 
61

>  <i_lp_mmshare_version>  (32) 
48012

>  <i_f3d_flags>  (32) 
0

>  <s_epik_input>  (32) 
W0NIMl09W0NIXVtDQEBdKFtDSDNdKShbQ0gyXTEpQyg9TylDKD1bQ0gyXSlbQ0BAXShbT0hdKShbQ0gyXVtDSDJdMilbQ0BAXTEoW09IXSlbQ0BAXShbQ0gzXSkoT1tDSDJdMylbQ0BASF0oW09IXSlbQ0BdNChbT0hdKVtDQEBIXShDKFtDSDNdKShbQ0gzXSlPQyg9TylbQ0gyXTUpW0NAXTUoW09IXSlPW0NAXShbT0hdKShbQ0gyXTYpW0NASF0oW1MrXTdbTy1dKVtDSDJdW0NIMl1bQ0BdNyhbQ0BASF0yQzM0NilbQ0gzXQ==

>  <s_epik_cmdline>  (32) 
J2VwaWtfcHl0aG9uJywgJy1waHQnLCAnMi4wJywgJy1waCcsICc3LjAnLCAnLXRuJywgJzgnLCAnLW1hJywgJzIwMCcsICctaW1hZScsICc8aW5maWxlLm1hZT4nLCAnLW9tYWUnLCAnPG91dGZpbGUubWFlPic=

>  <r_lp_tautomer_probability>  (32) 
1

>  <r_epik_Ionization_Penalty>  (32) 
7.41708e-06

>  <r_epik_Ionization_Penalty_Charging>  (32) 
0

>  <r_epik_Ionization_Penalty_Neutral>  (32) 
7.41708e-06

>  <r_epik_State_Penalty>  (32) 
-0

>  <r_epik_Charging_Adjusted_Penalty>  (32) 
0

>  <i_epik_Tot_Q>  (32) 
0

>  <i_epik_Tot_abs_Q>  (32) 
2

>  <s_epik_Chemistry_Notes>  (32) 
This compound has an ester and may undergo hydrolysis at high or low pH.

>  <s_lp_Force_Field>  (32) 
OPLS3e

>  <r_lp_Energy>  (32) 
256

>  <b_lp_Chiralities_Consistent>  (32) 
1

>  <s_lp_Variant>  (32) 
26:0-1

>  <s_i_glide_gridfile>  (32) 
pfpi4k_grid

>  <i_i_glide_lignum>  (32) 
61

>  <i_i_glide_rotatable_bonds>  (32) 
7

>  <r_i_docking_score>  (32) 
-2.47264

>  <r_i_glide_ligand_efficiency>  (32) 
-0.053753

>  <r_i_glide_ligand_efficiency_sa>  (32) 
-0.1926

>  <r_i_glide_ligand_efficiency_ln>  (32) 
-0.512077

>  <r_i_glide_gscore>  (32) 
-2.47264

>  <r_i_glide_lipo>  (32) 
-0.290865

>  <r_i_glide_hbond>  (32) 
0

>  <r_i_glide_metal>  (32) 
-0

>  <r_i_glide_rewards>  (32) 
-0.140426

>  <r_i_glide_evdw>  (32) 
-35.8708

>  <r_i_glide_ecoul>  (32) 
-1.86145

>  <r_i_glide_erotb>  (32) 
0.0479199

>  <r_i_glide_esite>  (32) 
-0.0165073

>  <r_i_glide_emodel>  (32) 
-41.9989

>  <r_i_glide_energy>  (32) 
-37.7323

>  <r_i_glide_einternal>  (32) 
3.01515

>  <r_i_glide_intrahb_reward>  (32) 
-0

>  <i_i_glide_confnum>  (32) 
3

>  <i_i_glide_posenum>  (32) 
2

>  <r_i_glide_eff_state_penalty>  (32) 
0

>  <ligand_id>  (32) 
26

>  <original_smiles>  (32) 
C=CC1(C)CC2(O)C(O)(CCC3C4(C)CCC([S+]4[O-])C4(O)CC35COC2(C)C(O)C5(O)C2C(C)(C)OC(=O)CC2(O)O4)C(=C)C1=O

>  <smiles>  (32) 
[H]OC1([H])C2(C([H])([H])[H])OC([H])([H])C34C([H])([H])C(O[H])(OC5(O[H])C([H])([H])C(=O)OC(C([H])([H])[H])(C([H])([H])[H])C5([H])C13O[H])C1([H])S(=O)C(C([H])([H])[H])(C([H])([H])C1([H])[H])C4([H])C([H])([H])C([H])([H])C1(O[H])C(=C([H])[H])C(=O)C(C([H])=C([H])[H])(C([H])([H])[H])C([H])([H])C12O[H]

$$$$
26:1:0
     RDKit          3D

 92 98  0  0  1  0  0  0  0  0999 V2000
    2.0311    2.4997    7.8083 C   0  0  0  0  0  0  0  0  0  0  0  0
    1.3156    2.6137    6.6713 C   0  0  0  0  0  0  0  0  0  0  0  0
    0.6822    1.5138    5.7942 C   0  0  1  0  0  0  0  0  0  0  0  0
   -0.2080    2.2384    4.7541 C   0  0  0  0  0  0  0  0  0  0  0  0
    1.7235    0.6346    5.0638 C   0  0  0  0  0  0  0  0  0  0  0  0
    2.5311   -0.4284    5.9250 C   0  0  1  0  0  0  0  0  0  0  0  0
    3.6360    0.3109    6.4263 O   0  0  0  0  0  0  0  0  0  0  0  0
    1.6953   -1.1184    7.1633 C   0  0  2  0  0  0  0  0  0  0  0  0
    2.5626   -1.1872    8.2955 O   0  0  0  0  0  0  0  0  0  0  0  0
    1.1544   -2.6240    7.0331 C   0  0  0  0  0  0  0  0  0  0  0  0
    2.0909   -3.8708    6.6819 C   0  0  0  0  0  0  0  0  0  0  0  0
    2.3638   -4.6435    5.2615 C   0  0  2  0  0  0  0  0  0  0  0  0
    3.1614   -6.0155    5.5496 C   0  0  2  0  0  0  0  0  0  0  0  0
    3.0979   -6.5319    7.0081 C   0  0  0  0  0  0  0  0  0  0  0  0
    4.6449   -6.0838    5.0970 C   0  0  0  0  0  0  0  0  0  0  0  0
    4.7855   -6.7095    3.7078 C   0  0  0  0  0  0  0  0  0  0  0  0
    3.4137   -7.1218    3.1305 C   0  0  1  0  0  0  0  0  0  0  0  0
    2.3991   -7.4375    4.6347 S   0  0  0  0  0  0  0  0  0  0  0  0
    0.8924   -7.2222    4.4125 O   0  0  0  0  0  0  0  0  0  0  0  0
    2.8013   -6.0573    2.1536 C   0  0  1  0  0  0  0  0  0  0  0  0
    1.9682   -6.8290    1.2705 O   0  0  0  0  0  0  0  0  0  0  0  0
    1.8810   -4.9603    2.7316 C   0  0  0  0  0  0  0  0  0  0  0  0
    2.5031   -3.9562    3.7322 C   0  0  1  0  0  0  0  0  0  0  0  0
    1.3913   -2.9292    3.7818 C   0  0  0  0  0  0  0  0  0  0  0  0
    1.7941   -1.9984    4.7360 O   0  0  0  0  0  0  0  0  0  0  0  0
    3.1372   -1.5582    5.0055 C   0  0  2  0  0  0  0  0  0  0  0  0
    4.2865   -2.2362    5.8402 C   0  0  0  0  0  0  0  0  0  0  0  0
    3.6264   -1.5356    3.5637 C   0  0  1  0  0  0  0  0  0  0  0  0
    4.8210   -0.7721    3.5333 O   0  0  0  0  0  0  0  0  0  0  0  0
    3.6868   -3.0472    2.9978 C   0  0  1  0  0  0  0  0  0  0  0  0
    4.9398   -3.6154    3.2793 O   0  0  0  0  0  0  0  0  0  0  0  0
    3.6507   -2.9945    1.3713 C   0  0  1  0  0  0  0  0  0  0  0  0
    4.6069   -1.9819    0.5766 C   0  0  0  0  0  0  0  0  0  0  0  0
    4.0284   -0.5453    0.4852 C   0  0  0  0  0  0  0  0  0  0  0  0
    6.1112   -1.9247    1.0025 C   0  0  0  0  0  0  0  0  0  0  0  0
    4.6587   -2.2385   -0.8209 O   0  0  0  0  0  0  0  0  0  0  0  0
    4.9883   -3.4005   -1.3410 C   0  0  0  0  0  0  0  0  0  0  0  0
    5.3368   -3.6040   -2.5095 O   0  0  0  0  0  0  0  0  0  0  0  0
    4.9033   -4.5600   -0.3442 C   0  0  0  0  0  0  0  0  0  0  0  0
    3.6842   -4.4147    0.6083 C   0  0  2  0  0  0  0  0  0  0  0  0
    2.5297   -4.5533   -0.2546 O   0  0  0  0  0  0  0  0  0  0  0  0
    3.8968   -5.4989    1.4753 O   0  0  0  0  0  0  0  0  0  0  0  0
    0.4892   -0.2866    7.6226 C   0  0  0  0  0  0  0  0  0  0  0  0
    0.0701   -0.1738    8.9000 C   0  0  0  0  0  0  0  0  0  0  0  0
   -0.1939    0.5676    6.6420 C   0  0  0  0  0  0  0  0  0  0  0  0
   -1.4170    0.5000    6.4807 O   0  0  0  0  0  0  0  0  0  0  0  0
    2.2337    1.5410    8.2720 H   0  0  0  0  0  0  0  0  0  0  0  0
    2.4306    3.3709    8.3033 H   0  0  0  0  0  0  0  0  0  0  0  0
    1.1887    3.6192    6.2989 H   0  0  0  0  0  0  0  0  0  0  0  0
   -0.9722    2.8545    5.2462 H   0  0  0  0  0  0  0  0  0  0  0  0
   -0.7368    1.5506    4.0958 H   0  0  0  0  0  0  0  0  0  0  0  0
    0.3742    2.9072    4.1225 H   0  0  0  0  0  0  0  0  0  0  0  0
    1.1746    0.1537    4.2649 H   0  0  0  0  0  0  0  0  0  0  0  0
    2.4155    1.2919    4.5345 H   0  0  0  0  0  0  0  0  0  0  0  0
    3.9912    0.8433    5.7526 H   0  0  0  0  0  0  0  0  0  0  0  0
    3.0357   -0.3728    8.3161 H   0  0  0  0  0  0  0  0  0  0  0  0
    0.7331   -2.8548    8.0156 H   0  0  0  0  0  0  0  0  0  0  0  0
    0.2721   -2.6456    6.3946 H   0  0  0  0  0  0  0  0  0  0  0  0
    2.9891   -3.8174    7.2823 H   0  0  0  0  0  0  0  0  0  0  0  0
    1.5200   -4.6175    7.2416 H   0  0  0  0  0  0  0  0  0  0  0  0
    1.3497   -5.0273    5.1949 H   0  0  0  0  0  0  0  0  0  0  0  0
    3.6117   -5.8745    7.7177 H   0  0  0  0  0  0  0  0  0  0  0  0
    3.5758   -7.5035    7.1026 H   0  0  0  0  0  0  0  0  0  0  0  0
    2.0695   -6.6756    7.3460 H   0  0  0  0  0  0  0  0  0  0  0  0
    5.1664   -5.1373    5.1833 H   0  0  0  0  0  0  0  0  0  0  0  0
    5.2011   -6.7247    5.7751 H   0  0  0  0  0  0  0  0  0  0  0  0
    5.4318   -6.1496    3.0437 H   0  0  0  0  0  0  0  0  0  0  0  0
    5.3421   -7.6542    3.8528 H   0  0  0  0  0  0  0  0  0  0  0  0
    3.5545   -8.0433    2.5874 H   0  0  0  0  0  0  0  0  0  0  0  0
    2.4356   -7.5966    1.0475 H   0  0  0  0  0  0  0  0  0  0  0  0
    1.4357   -4.4250    1.9023 H   0  0  0  0  0  0  0  0  0  0  0  0
    0.9794   -5.4180    3.1255 H   0  0  0  0  0  0  0  0  0  0  0  0
    1.2051   -2.4242    2.8333 H   0  0  0  0  0  0  0  0  0  0  0  0
    0.4261   -3.3371    4.1021 H   0  0  0  0  0  0  0  0  0  0  0  0
    5.2504   -1.7728    5.6634 H   0  0  0  0  0  0  0  0  0  0  0  0
    4.4308   -3.2796    5.6307 H   0  0  0  0  0  0  0  0  0  0  0  0
    4.2064   -2.1551    6.9229 H   0  0  0  0  0  0  0  0  0  0  0  0
    2.9100   -0.9653    2.9758 H   0  0  0  0  0  0  0  0  0  0  0  0
    4.6181    0.1184    3.7190 H   0  0  0  0  0  0  0  0  0  0  0  0
    4.9578   -4.4712    2.8895 H   0  0  0  0  0  0  0  0  0  0  0  0
    2.6536   -2.6161    1.1453 H   0  0  0  0  0  0  0  0  0  0  0  0
    4.0552    0.0393    1.4001 H   0  0  0  0  0  0  0  0  0  0  0  0
    2.9807   -0.5968    0.1666 H   0  0  0  0  0  0  0  0  0  0  0  0
    4.5571    0.0461   -0.2516 H   0  0  0  0  0  0  0  0  0  0  0  0
    6.3375   -1.2726    1.8390 H   0  0  0  0  0  0  0  0  0  0  0  0
    6.7364   -1.5608    0.2001 H   0  0  0  0  0  0  0  0  0  0  0  0
    6.4909   -2.9095    1.2781 H   0  0  0  0  0  0  0  0  0  0  0  0
    4.8047   -5.4839   -0.9077 H   0  0  0  0  0  0  0  0  0  0  0  0
    5.8223   -4.6137    0.2335 H   0  0  0  0  0  0  0  0  0  0  0  0
    2.7707   -5.1101   -0.9733 H   0  0  0  0  0  0  0  0  0  0  0  0
    0.5309   -0.7113    9.7149 H   0  0  0  0  0  0  0  0  0  0  0  0
   -0.7513    0.4757    9.1630 H   0  0  0  0  0  0  0  0  0  0  0  0
  1  2  2  0
  1 47  1  0
  1 48  1  0
  2  3  1  0
  2 49  1  0
  3 45  1  0
  3  4  1  6
  3  5  1  0
  4 50  1  0
  4 51  1  0
  4 52  1  0
  5  6  1  0
  5 53  1  0
  5 54  1  0
  6 26  1  0
  6  7  1  1
  6  8  1  0
  7 55  1  0
  8  9  1  1
  8 10  1  0
  8 43  1  0
  9 56  1  0
 10 11  1  0
 10 57  1  0
 10 58  1  0
 11 12  1  0
 11 59  1  0
 11 60  1  0
 12 23  1  0
 12 13  1  0
 12 61  1  6
 18 13  1  1
 13 14  1  1
 13 15  1  0
 14 62  1  0
 14 63  1  0
 14 64  1  0
 15 16  1  0
 15 65  1  0
 15 66  1  0
 16 17  1  0
 16 67  1  0
 16 68  1  0
 17 18  1  0
 17 20  1  0
 17 69  1  6
 18 19  2  0
 20 42  1  0
 20 21  1  6
 20 22  1  0
 21 70  1  0
 23 22  1  6
 22 71  1  0
 22 72  1  0
 23 30  1  0
 23 24  1  0
 24 25  1  0
 24 73  1  0
 24 74  1  0
 25 26  1  0
 26 27  1  1
 26 28  1  0
 27 75  1  0
 27 76  1  0
 27 77  1  0
 28 29  1  0
 28 30  1  0
 28 78  1  6
 29 79  1  0
 30 31  1  6
 30 32  1  0
 31 80  1  0
 32 40  1  0
 32 33  1  0
 32 81  1  1
 33 34  1  0
 33 35  1  0
 33 36  1  0
 34 82  1  0
 34 83  1  0
 34 84  1  0
 35 85  1  0
 35 86  1  0
 35 87  1  0
 36 37  1  0
 37 38  2  0
 37 39  1  0
 39 40  1  0
 39 88  1  0
 39 89  1  0
 40 41  1  6
 40 42  1  0
 41 90  1  0
 43 44  2  0
 43 45  1  0
 44 91  1  0
 44 92  1  0
 45 46  2  0
M  END
>  <i_m_ct_stereo_status>  (33) 
1

>  <s_m_source_file>  (33) 
/var/tmp/pbs.5075288.sched01/tmpdioscf2v/0xa7vsnym.sdf

>  <i_m_source_file_index>  (33) 
62

>  <i_lp_mmshare_version>  (33) 
48012

>  <i_f3d_flags>  (33) 
0

>  <s_epik_input>  (33) 
W0NIMl09W0NIXVtDQEBdKFtDSDNdKShbQ0gyXTEpQyg9TylDKD1bQ0gyXSlbQ0BAXShbT0hdKShbQ0gyXVtDSDJdMilbQ0BAXTEoW09IXSlbQ0BAXShbQ0gzXSkoT1tDSDJdMylbQ0BASF0oW09IXSlbQ0BdNChbT0hdKVtDQEBIXShDKFtDSDNdKShbQ0gzXSlPQyg9TylbQ0gyXTUpW0NAXTUoW09IXSlPW0NAXShbT0hdKShbQ0gyXTYpW0NASF0oW1MrXTdbTy1dKVtDSDJdW0NIMl1bQ0BdNyhbQ0BASF0yQzM0NilbQ0gzXQ==

>  <s_epik_cmdline>  (33) 
J2VwaWtfcHl0aG9uJywgJy1waHQnLCAnMi4wJywgJy1waCcsICc3LjAnLCAnLXRuJywgJzgnLCAnLW1hJywgJzIwMCcsICctaW1hZScsICc8aW5maWxlLm1hZT4nLCAnLW9tYWUnLCAnPG91dGZpbGUubWFlPic=

>  <r_lp_tautomer_probability>  (33) 
1

>  <r_epik_Ionization_Penalty>  (33) 
7.41708e-06

>  <r_epik_Ionization_Penalty_Charging>  (33) 
0

>  <r_epik_Ionization_Penalty_Neutral>  (33) 
7.41708e-06

>  <r_epik_State_Penalty>  (33) 
-0

>  <r_epik_Charging_Adjusted_Penalty>  (33) 
0

>  <i_epik_Tot_Q>  (33) 
0

>  <i_epik_Tot_abs_Q>  (33) 
2

>  <s_epik_Chemistry_Notes>  (33) 
This compound has an ester and may undergo hydrolysis at high or low pH.

>  <s_lp_Force_Field>  (33) 
OPLS3e

>  <r_lp_Energy>  (33) 
232.792

>  <b_lp_Chiralities_Consistent>  (33) 
1

>  <s_lp_Variant>  (33) 
26:0-2

>  <s_i_glide_gridfile>  (33) 
pfpi4k_grid

>  <i_i_glide_lignum>  (33) 
62

>  <i_i_glide_rotatable_bonds>  (33) 
7

>  <r_i_docking_score>  (33) 
-3.78238

>  <r_i_glide_ligand_efficiency>  (33) 
-0.0822256

>  <r_i_glide_ligand_efficiency_sa>  (33) 
-0.294618

>  <r_i_glide_ligand_efficiency_ln>  (33) 
-0.783321

>  <r_i_glide_gscore>  (33) 
-3.78238

>  <r_i_glide_lipo>  (33) 
-0.25544

>  <r_i_glide_hbond>  (33) 
-0.132838

>  <r_i_glide_metal>  (33) 
-0

>  <r_i_glide_rewards>  (33) 
-0.583436

>  <r_i_glide_evdw>  (33) 
-32.615

>  <r_i_glide_ecoul>  (33) 
-7.98246

>  <r_i_glide_erotb>  (33) 
0.0479199

>  <r_i_glide_esite>  (33) 
-0.030465

>  <r_i_glide_emodel>  (33) 
-52.9614

>  <r_i_glide_energy>  (33) 
-40.5975

>  <r_i_glide_einternal>  (33) 
3.84534

>  <r_i_glide_intrahb_reward>  (33) 
-0.5

>  <i_i_glide_confnum>  (33) 
1

>  <i_i_glide_posenum>  (33) 
19

>  <r_i_glide_eff_state_penalty>  (33) 
0

>  <ligand_id>  (33) 
26

>  <original_smiles>  (33) 
C=CC1(C)CC2(O)C(O)(CCC3C4(C)CCC([S+]4[O-])C4(O)CC35COC2(C)C(O)C5(O)C2C(C)(C)OC(=O)CC2(O)O4)C(=C)C1=O

>  <smiles>  (33) 
[H]OC1([H])C2(C([H])([H])[H])OC([H])([H])C34C([H])([H])C(O[H])(OC5(O[H])C([H])([H])C(=O)OC(C([H])([H])[H])(C([H])([H])[H])C5([H])C13O[H])C1([H])S(=O)C(C([H])([H])[H])(C([H])([H])C1([H])[H])C4([H])C([H])([H])C([H])([H])C1(O[H])C(=C([H])[H])C(=O)C(C([H])=C([H])[H])(C([H])([H])[H])C([H])([H])C12O[H]

$$$$
26:1:1
     RDKit          3D

 92 98  0  0  1  0  0  0  0  0999 V2000
    1.1264    3.9285    6.7675 C   0  0  0  0  0  0  0  0  0  0  0  0
    1.3873    2.6155    6.6794 C   0  0  0  0  0  0  0  0  0  0  0  0
    0.7061    1.5816    5.7553 C   0  0  1  0  0  0  0  0  0  0  0  0
   -0.1741    2.3058    4.6994 C   0  0  0  0  0  0  0  0  0  0  0  0
    1.7452    0.6900    5.0380 C   0  0  0  0  0  0  0  0  0  0  0  0
    2.5373   -0.3774    5.8974 C   0  0  1  0  0  0  0  0  0  0  0  0
    3.5937    0.4003    6.4491 O   0  0  0  0  0  0  0  0  0  0  0  0
    1.7014   -1.0622    7.1466 C   0  0  2  0  0  0  0  0  0  0  0  0
    2.5651   -1.1646    8.2700 O   0  0  0  0  0  0  0  0  0  0  0  0
    1.1339   -2.5666    7.0025 C   0  0  0  0  0  0  0  0  0  0  0  0
    2.0538   -3.8306    6.6492 C   0  0  0  0  0  0  0  0  0  0  0  0
    2.3357   -4.5987    5.2270 C   0  0  2  0  0  0  0  0  0  0  0  0
    3.1116   -5.9860    5.5077 C   0  0  2  0  0  0  0  0  0  0  0  0
    3.0267   -6.5116    6.9663 C   0  0  0  0  0  0  0  0  0  0  0  0
    4.5919   -6.0695    5.0683 C   0  0  0  0  0  0  0  0  0  0  0  0
    4.7387   -6.6959    3.6745 C   0  0  0  0  0  0  0  0  0  0  0  0
    3.3702   -7.0720    3.0795 C   0  0  1  0  0  0  0  0  0  0  0  0
    2.3314   -7.3923    4.5710 S   0  0  0  0  0  0  0  0  0  0  0  0
    0.8354   -7.1505    4.3427 O   0  0  0  0  0  0  0  0  0  0  0  0
    2.7671   -6.0137    2.0972 C   0  0  1  0  0  0  0  0  0  0  0  0
    1.9333   -6.7489    1.2207 O   0  0  0  0  0  0  0  0  0  0  0  0
    1.8729   -4.8966    2.6856 C   0  0  0  0  0  0  0  0  0  0  0  0
    2.4932   -3.9096    3.7002 C   0  0  1  0  0  0  0  0  0  0  0  0
    1.3959   -2.8688    3.7496 C   0  0  0  0  0  0  0  0  0  0  0  0
    1.8073   -1.9489    4.7114 O   0  0  0  0  0  0  0  0  0  0  0  0
    3.1447   -1.5134    5.0005 C   0  0  2  0  0  0  0  0  0  0  0  0
    4.2817   -2.2130    5.8447 C   0  0  0  0  0  0  0  0  0  0  0  0
    3.6556   -1.4991    3.5550 C   0  0  1  0  0  0  0  0  0  0  0  0
    4.8649   -0.7790    3.5438 O   0  0  0  0  0  0  0  0  0  0  0  0
    3.7038   -3.0066    2.9899 C   0  0  1  0  0  0  0  0  0  0  0  0
    4.9558   -3.5753    3.2863 O   0  0  0  0  0  0  0  0  0  0  0  0
    3.6710   -2.9593    1.3581 C   0  0  1  0  0  0  0  0  0  0  0  0
    4.6526   -1.9369    0.5758 C   0  0  0  0  0  0  0  0  0  0  0  0
    4.0798   -0.4987    0.4941 C   0  0  0  0  0  0  0  0  0  0  0  0
    6.1511   -1.9119    1.0147 C   0  0  0  0  0  0  0  0  0  0  0  0
    4.7044   -2.1833   -0.8322 O   0  0  0  0  0  0  0  0  0  0  0  0
    5.0320   -3.3725   -1.3507 C   0  0  0  0  0  0  0  0  0  0  0  0
    5.3821   -3.5414   -2.5186 O   0  0  0  0  0  0  0  0  0  0  0  0
    4.9169   -4.5162   -0.3618 C   0  0  0  0  0  0  0  0  0  0  0  0
    3.6930   -4.3658    0.5673 C   0  0  2  0  0  0  0  0  0  0  0  0
    2.5543   -4.4697   -0.2971 O   0  0  0  0  0  0  0  0  0  0  0  0
    3.8636   -5.4616    1.4247 O   0  0  0  0  0  0  0  0  0  0  0  0
    0.5249   -0.1884    7.6062 C   0  0  0  0  0  0  0  0  0  0  0  0
    0.0870   -0.0966    8.8813 C   0  0  0  0  0  0  0  0  0  0  0  0
   -0.1598    0.6493    6.6102 C   0  0  0  0  0  0  0  0  0  0  0  0
   -1.3815    0.5874    6.4594 O   0  0  0  0  0  0  0  0  0  0  0  0
    0.3570    4.4172    6.1767 H   0  0  0  0  0  0  0  0  0  0  0  0
    1.6955    4.5581    7.4426 H   0  0  0  0  0  0  0  0  0  0  0  0
    2.1704    2.2343    7.3249 H   0  0  0  0  0  0  0  0  0  0  0  0
   -0.9618    2.8962    5.1691 H   0  0  0  0  0  0  0  0  0  0  0  0
   -0.6780    1.6105    4.0308 H   0  0  0  0  0  0  0  0  0  0  0  0
    0.4122    2.9802    4.0779 H   0  0  0  0  0  0  0  0  0  0  0  0
    1.2034    0.2059    4.2307 H   0  0  0  0  0  0  0  0  0  0  0  0
    2.4586    1.3287    4.5140 H   0  0  0  0  0  0  0  0  0  0  0  0
    4.0923    0.7729    5.7277 H   0  0  0  0  0  0  0  0  0  0  0  0
    3.0168   -0.3276    8.3404 H   0  0  0  0  0  0  0  0  0  0  0  0
    0.7020   -2.7935    7.9800 H   0  0  0  0  0  0  0  0  0  0  0  0
    0.2572   -2.5688    6.3583 H   0  0  0  0  0  0  0  0  0  0  0  0
    2.9502   -3.7948    7.2549 H   0  0  0  0  0  0  0  0  0  0  0  0
    1.4714   -4.5697    7.1966 H   0  0  0  0  0  0  0  0  0  0  0  0
    1.3141   -4.9726    5.1479 H   0  0  0  0  0  0  0  0  0  0  0  0
    3.5437   -5.8672    7.6794 H   0  0  0  0  0  0  0  0  0  0  0  0
    3.4931   -7.4920    7.0549 H   0  0  0  0  0  0  0  0  0  0  0  0
    1.9951   -6.6452    7.2922 H   0  0  0  0  0  0  0  0  0  0  0  0
    5.1230   -5.1322    5.1589 H   0  0  0  0  0  0  0  0  0  0  0  0
    5.1383   -6.7228    5.7450 H   0  0  0  0  0  0  0  0  0  0  0  0
    5.3812   -6.1077    3.0206 H   0  0  0  0  0  0  0  0  0  0  0  0
    5.2922   -7.6355    3.8125 H   0  0  0  0  0  0  0  0  0  0  0  0
    3.5027   -8.0065    2.5350 H   0  0  0  0  0  0  0  0  0  0  0  0
    2.4030   -7.5228    0.9750 H   0  0  0  0  0  0  0  0  0  0  0  0
    1.4315   -4.3488    1.8566 H   0  0  0  0  0  0  0  0  0  0  0  0
    0.9613   -5.3443    3.0673 H   0  0  0  0  0  0  0  0  0  0  0  0
    1.2278   -2.3549    2.8038 H   0  0  0  0  0  0  0  0  0  0  0  0
    0.4251   -3.2650    4.0593 H   0  0  0  0  0  0  0  0  0  0  0  0
    5.2559   -1.7611    5.6810 H   0  0  0  0  0  0  0  0  0  0  0  0
    4.4076   -3.2544    5.6253 H   0  0  0  0  0  0  0  0  0  0  0  0
    4.1914   -2.1390    6.9212 H   0  0  0  0  0  0  0  0  0  0  0  0
    2.9502   -0.9104    2.9698 H   0  0  0  0  0  0  0  0  0  0  0  0
    5.1152   -0.6337    2.6429 H   0  0  0  0  0  0  0  0  0  0  0  0
    5.6244   -3.0386    2.8880 H   0  0  0  0  0  0  0  0  0  0  0  0
    2.6827   -2.5604    1.1234 H   0  0  0  0  0  0  0  0  0  0  0  0
    4.1058    0.0851    1.4060 H   0  0  0  0  0  0  0  0  0  0  0  0
    3.0399   -0.5332    0.1588 H   0  0  0  0  0  0  0  0  0  0  0  0
    4.6297    0.0940   -0.2394 H   0  0  0  0  0  0  0  0  0  0  0  0
    6.4021   -1.2628    1.8436 H   0  0  0  0  0  0  0  0  0  0  0  0
    6.7802   -1.5464    0.2062 H   0  0  0  0  0  0  0  0  0  0  0  0
    6.5223   -2.9007    1.2673 H   0  0  0  0  0  0  0  0  0  0  0  0
    4.8134   -5.4368   -0.9352 H   0  0  0  0  0  0  0  0  0  0  0  0
    5.8287   -4.5860    0.2246 H   0  0  0  0  0  0  0  0  0  0  0  0
    2.7768   -5.0478   -1.0102 H   0  0  0  0  0  0  0  0  0  0  0  0
    0.5215   -0.6689    9.6880 H   0  0  0  0  0  0  0  0  0  0  0  0
   -0.7360    0.5510    9.1442 H   0  0  0  0  0  0  0  0  0  0  0  0
  1  2  2  0
  1 47  1  0
  1 48  1  0
  2  3  1  0
  2 49  1  0
  3 45  1  0
  3  4  1  6
  3  5  1  0
  4 50  1  0
  4 51  1  0
  4 52  1  0
  5  6  1  0
  5 53  1  0
  5 54  1  0
  6 26  1  0
  6  7  1  1
  6  8  1  0
  7 55  1  0
  8  9  1  1
  8 10  1  0
  8 43  1  0
  9 56  1  0
 10 11  1  0
 10 57  1  0
 10 58  1  0
 11 12  1  0
 11 59  1  0
 11 60  1  0
 12 23  1  0
 12 13  1  0
 12 61  1  6
 18 13  1  1
 13 14  1  1
 13 15  1  0
 14 62  1  0
 14 63  1  0
 14 64  1  0
 15 16  1  0
 15 65  1  0
 15 66  1  0
 16 17  1  0
 16 67  1  0
 16 68  1  0
 17 18  1  0
 17 20  1  0
 17 69  1  6
 18 19  2  0
 20 42  1  0
 20 21  1  6
 20 22  1  0
 21 70  1  0
 23 22  1  6
 22 71  1  0
 22 72  1  0
 23 30  1  0
 23 24  1  0
 24 25  1  0
 24 73  1  0
 24 74  1  0
 25 26  1  0
 26 27  1  1
 26 28  1  0
 27 75  1  0
 27 76  1  0
 27 77  1  0
 28 29  1  0
 28 30  1  0
 28 78  1  6
 29 79  1  0
 30 31  1  6
 30 32  1  0
 31 80  1  0
 32 40  1  0
 32 33  1  0
 32 81  1  1
 33 34  1  0
 33 35  1  0
 33 36  1  0
 34 82  1  0
 34 83  1  0
 34 84  1  0
 35 85  1  0
 35 86  1  0
 35 87  1  0
 36 37  1  0
 37 38  2  0
 37 39  1  0
 39 40  1  0
 39 88  1  0
 39 89  1  0
 40 41  1  6
 40 42  1  0
 41 90  1  0
 43 44  2  0
 43 45  1  0
 44 91  1  0
 44 92  1  0
 45 46  2  0
M  END
>  <i_m_ct_stereo_status>  (34) 
1

>  <s_m_source_file>  (34) 
/var/tmp/pbs.5075288.sched01/tmpdioscf2v/0xa7vsnym.sdf

>  <i_m_source_file_index>  (34) 
62

>  <i_lp_mmshare_version>  (34) 
48012

>  <i_f3d_flags>  (34) 
0

>  <s_epik_input>  (34) 
W0NIMl09W0NIXVtDQEBdKFtDSDNdKShbQ0gyXTEpQyg9TylDKD1bQ0gyXSlbQ0BAXShbT0hdKShbQ0gyXVtDSDJdMilbQ0BAXTEoW09IXSlbQ0BAXShbQ0gzXSkoT1tDSDJdMylbQ0BASF0oW09IXSlbQ0BdNChbT0hdKVtDQEBIXShDKFtDSDNdKShbQ0gzXSlPQyg9TylbQ0gyXTUpW0NAXTUoW09IXSlPW0NAXShbT0hdKShbQ0gyXTYpW0NASF0oW1MrXTdbTy1dKVtDSDJdW0NIMl1bQ0BdNyhbQ0BASF0yQzM0NilbQ0gzXQ==

>  <s_epik_cmdline>  (34) 
J2VwaWtfcHl0aG9uJywgJy1waHQnLCAnMi4wJywgJy1waCcsICc3LjAnLCAnLXRuJywgJzgnLCAnLW1hJywgJzIwMCcsICctaW1hZScsICc8aW5maWxlLm1hZT4nLCAnLW9tYWUnLCAnPG91dGZpbGUubWFlPic=

>  <r_lp_tautomer_probability>  (34) 
1

>  <r_epik_Ionization_Penalty>  (34) 
7.41708e-06

>  <r_epik_Ionization_Penalty_Charging>  (34) 
0

>  <r_epik_Ionization_Penalty_Neutral>  (34) 
7.41708e-06

>  <r_epik_State_Penalty>  (34) 
-0

>  <r_epik_Charging_Adjusted_Penalty>  (34) 
0

>  <i_epik_Tot_Q>  (34) 
0

>  <i_epik_Tot_abs_Q>  (34) 
2

>  <s_epik_Chemistry_Notes>  (34) 
This compound has an ester and may undergo hydrolysis at high or low pH.

>  <s_lp_Force_Field>  (34) 
OPLS3e

>  <r_lp_Energy>  (34) 
232.792

>  <b_lp_Chiralities_Consistent>  (34) 
1

>  <s_lp_Variant>  (34) 
26:0-2

>  <s_i_glide_gridfile>  (34) 
pfpi4k_grid

>  <i_i_glide_lignum>  (34) 
62

>  <i_i_glide_rotatable_bonds>  (34) 
7

>  <r_i_docking_score>  (34) 
-3.24549

>  <r_i_glide_ligand_efficiency>  (34) 
-0.0705541

>  <r_i_glide_ligand_efficiency_sa>  (34) 
-0.252799

>  <r_i_glide_ligand_efficiency_ln>  (34) 
-0.672133

>  <r_i_glide_gscore>  (34) 
-3.24549

>  <r_i_glide_lipo>  (34) 
-0.292095

>  <r_i_glide_hbond>  (34) 
-0.10061

>  <r_i_glide_metal>  (34) 
-0

>  <r_i_glide_rewards>  (34) 
-0.0975012

>  <r_i_glide_evdw>  (34) 
-32.8366

>  <r_i_glide_ecoul>  (34) 
-7.55779

>  <r_i_glide_erotb>  (34) 
0.0479199

>  <r_i_glide_esite>  (34) 
-0.0277045

>  <r_i_glide_emodel>  (34) 
-48.0411

>  <r_i_glide_energy>  (34) 
-40.3944

>  <r_i_glide_einternal>  (34) 
0.794595

>  <r_i_glide_intrahb_reward>  (34) 
-0

>  <i_i_glide_confnum>  (34) 
1

>  <i_i_glide_posenum>  (34) 
15

>  <r_i_glide_eff_state_penalty>  (34) 
0

>  <ligand_id>  (34) 
26

>  <original_smiles>  (34) 
C=CC1(C)CC2(O)C(O)(CCC3C4(C)CCC([S+]4[O-])C4(O)CC35COC2(C)C(O)C5(O)C2C(C)(C)OC(=O)CC2(O)O4)C(=C)C1=O

>  <smiles>  (34) 
[H]OC1([H])C2(C([H])([H])[H])OC([H])([H])C34C([H])([H])C(O[H])(OC5(O[H])C([H])([H])C(=O)OC(C([H])([H])[H])(C([H])([H])[H])C5([H])C13O[H])C1([H])S(=O)C(C([H])([H])[H])(C([H])([H])C1([H])[H])C4([H])C([H])([H])C([H])([H])C1(O[H])C(=C([H])[H])C(=O)C(C([H])=C([H])[H])(C([H])([H])[H])C([H])([H])C12O[H]

$$$$
26:1:2
     RDKit          3D

 92 98  0  0  1  0  0  0  0  0999 V2000
    1.9126    3.6528    6.1013 C   0  0  0  0  0  0  0  0  0  0  0  0
    0.7313    3.0212    6.2122 C   0  0  0  0  0  0  0  0  0  0  0  0
    0.2404    1.8340    5.3680 C   0  0  1  0  0  0  0  0  0  0  0  0
   -0.6373    2.4187    4.2360 C   0  0  0  0  0  0  0  0  0  0  0  0
    1.3795    0.9639    4.7812 C   0  0  0  0  0  0  0  0  0  0  0  0
    2.2017    0.0544    5.7858 C   0  0  1  0  0  0  0  0  0  0  0  0
    3.1692    0.9377    6.3386 O   0  0  0  0  0  0  0  0  0  0  0  0
    1.3560   -0.5873    7.0466 C   0  0  2  0  0  0  0  0  0  0  0  0
    2.1469   -0.5196    8.2259 O   0  0  0  0  0  0  0  0  0  0  0  0
    0.9161   -2.1377    7.0092 C   0  0  0  0  0  0  0  0  0  0  0  0
    1.9570   -3.3425    6.8185 C   0  0  0  0  0  0  0  0  0  0  0  0
    2.3864   -4.2038    5.4854 C   0  0  2  0  0  0  0  0  0  0  0  0
    3.2594   -5.4831    5.9318 C   0  0  2  0  0  0  0  0  0  0  0  0
    3.1328   -5.8868    7.4256 C   0  0  0  0  0  0  0  0  0  0  0  0
    4.7647   -5.4746    5.5779 C   0  0  0  0  0  0  0  0  0  0  0  0
    5.0434   -6.2023    4.2562 C   0  0  0  0  0  0  0  0  0  0  0  0
    3.7463   -6.7455    3.6271 C   0  0  1  0  0  0  0  0  0  0  0  0
    2.6575   -7.0303    5.0892 S   0  0  0  0  0  0  0  0  0  0  0  0
    1.1608   -6.9503    4.7750 O   0  0  0  0  0  0  0  0  0  0  0  0
    3.1198   -5.8386    2.5289 C   0  0  1  0  0  0  0  0  0  0  0  0
    2.4494   -6.7164    1.6463 O   0  0  0  0  0  0  0  0  0  0  0  0
    2.0857   -4.7612    2.9616 C   0  0  0  0  0  0  0  0  0  0  0  0
    2.5673   -3.6382    3.9135 C   0  0  1  0  0  0  0  0  0  0  0  0
    1.3904   -2.6929    3.8132 C   0  0  0  0  0  0  0  0  0  0  0  0
    1.6711   -1.6631    4.7096 O   0  0  0  0  0  0  0  0  0  0  0  0
    2.9510   -1.0924    5.0232 C   0  0  2  0  0  0  0  0  0  0  0  0
    4.0879   -1.6161    5.9828 C   0  0  0  0  0  0  0  0  0  0  0  0
    3.5334   -1.1492    3.6098 C   0  0  1  0  0  0  0  0  0  0  0  0
    4.6733   -0.3236    3.5793 O   0  0  0  0  0  0  0  0  0  0  0  0
    3.7392   -2.6965    3.1919 C   0  0  1  0  0  0  0  0  0  0  0  0
    5.0178   -3.1075    3.6018 O   0  0  0  0  0  0  0  0  0  0  0  0
    3.8090   -2.7842    1.5685 C   0  0  1  0  0  0  0  0  0  0  0  0
    4.7421   -1.7625    0.7520 C   0  0  0  0  0  0  0  0  0  0  0  0
    4.0548   -0.4023    0.4974 C   0  0  0  0  0  0  0  0  0  0  0  0
    6.2051   -1.5603    1.2584 C   0  0  0  0  0  0  0  0  0  0  0  0
    4.8873   -2.1228   -0.6268 O   0  0  0  0  0  0  0  0  0  0  0  0
    5.3478   -3.3044   -1.0219 C   0  0  0  0  0  0  0  0  0  0  0  0
    5.7952   -3.5189   -2.1461 O   0  0  0  0  0  0  0  0  0  0  0  0
    5.2702   -4.3735    0.0520 C   0  0  0  0  0  0  0  0  0  0  0  0
    3.9997   -4.2459    0.9240 C   0  0  2  0  0  0  0  0  0  0  0  0
    2.9163   -4.5424    0.0514 O   0  0  0  0  0  0  0  0  0  0  0  0
    4.2067   -5.2288    1.8927 O   0  0  0  0  0  0  0  0  0  0  0  0
    0.0884    0.2212    7.3639 C   0  0  0  0  0  0  0  0  0  0  0  0
   -0.4399    0.3884    8.5962 C   0  0  0  0  0  0  0  0  0  0  0  0
   -0.5947    0.8970    6.2556 C   0  0  0  0  0  0  0  0  0  0  0  0
   -1.7885    0.6999    6.0304 O   0  0  0  0  0  0  0  0  0  0  0  0
    2.6387    3.3664    5.3512 H   0  0  0  0  0  0  0  0  0  0  0  0
    2.1746    4.4751    6.7571 H   0  0  0  0  0  0  0  0  0  0  0  0
    0.0434    3.3749    6.9717 H   0  0  0  0  0  0  0  0  0  0  0  0
   -1.4684    3.0014    4.6384 H   0  0  0  0  0  0  0  0  0  0  0  0
   -1.0689    1.6395    3.6087 H   0  0  0  0  0  0  0  0  0  0  0  0
   -0.0653    3.0805    3.5855 H   0  0  0  0  0  0  0  0  0  0  0  0
    0.9024    0.3636    4.0100 H   0  0  0  0  0  0  0  0  0  0  0  0
    2.0618    1.5816    4.1964 H   0  0  0  0  0  0  0  0  0  0  0  0
    3.6244    1.3784    5.6367 H   0  0  0  0  0  0  0  0  0  0  0  0
    2.5130    0.3571    8.2484 H   0  0  0  0  0  0  0  0  0  0  0  0
    0.4446   -2.3177    7.9771 H   0  0  0  0  0  0  0  0  0  0  0  0
    0.0831   -2.2692    6.3190 H   0  0  0  0  0  0  0  0  0  0  0  0
    2.8095   -3.1731    7.4657 H   0  0  0  0  0  0  0  0  0  0  0  0
    1.4093   -4.0788    7.3996 H   0  0  0  0  0  0  0  0  0  0  0  0
    1.4065   -4.6717    5.3901 H   0  0  0  0  0  0  0  0  0  0  0  0
    3.5496   -5.1420    8.1047 H   0  0  0  0  0  0  0  0  0  0  0  0
    3.6727   -6.8121    7.6291 H   0  0  0  0  0  0  0  0  0  0  0  0
    2.0983   -6.0841    7.7085 H   0  0  0  0  0  0  0  0  0  0  0  0
    5.2133   -4.4904    5.6060 H   0  0  0  0  0  0  0  0  0  0  0  0
    5.3277   -6.0117    6.3412 H   0  0  0  0  0  0  0  0  0  0  0  0
    5.6803   -5.6238    3.5908 H   0  0  0  0  0  0  0  0  0  0  0  0
    5.6574   -7.0728    4.5039 H   0  0  0  0  0  0  0  0  0  0  0  0
    3.9779   -7.7067    3.1669 H   0  0  0  0  0  0  0  0  0  0  0  0
    2.2945   -6.2348    0.8478 H   0  0  0  0  0  0  0  0  0  0  0  0
    1.6486   -4.3198    2.0710 H   0  0  0  0  0  0  0  0  0  0  0  0
    1.2032   -5.2569    3.3449 H   0  0  0  0  0  0  0  0  0  0  0  0
    1.2292   -2.2765    2.8164 H   0  0  0  0  0  0  0  0  0  0  0  0
    0.4396   -3.1440    4.1072 H   0  0  0  0  0  0  0  0  0  0  0  0
    5.0291   -1.0952    5.8193 H   0  0  0  0  0  0  0  0  0  0  0  0
    4.3168   -2.6582    5.8680 H   0  0  0  0  0  0  0  0  0  0  0  0
    3.9309   -1.4573    7.0409 H   0  0  0  0  0  0  0  0  0  0  0  0
    2.8153   -0.6844    2.9352 H   0  0  0  0  0  0  0  0  0  0  0  0
    4.3993    0.5785    3.6649 H   0  0  0  0  0  0  0  0  0  0  0  0
    5.6487   -2.5402    3.1889 H   0  0  0  0  0  0  0  0  0  0  0  0
    2.8105   -2.4907    1.2505 H   0  0  0  0  0  0  0  0  0  0  0  0
    3.9963    0.2736    1.3410 H   0  0  0  0  0  0  0  0  0  0  0  0
    3.0381   -0.5512    0.1213 H   0  0  0  0  0  0  0  0  0  0  0  0
    4.6029    0.1426   -0.2764 H   0  0  0  0  0  0  0  0  0  0  0  0
    6.3338   -0.8235    2.0380 H   0  0  0  0  0  0  0  0  0  0  0  0
    6.8537   -1.2074    0.4574 H   0  0  0  0  0  0  0  0  0  0  0  0
    6.6394   -2.4873    1.6207 H   0  0  0  0  0  0  0  0  0  0  0  0
    5.2752   -5.3451   -0.4373 H   0  0  0  0  0  0  0  0  0  0  0  0
    6.1577   -4.3218    0.6763 H   0  0  0  0  0  0  0  0  0  0  0  0
    2.2054   -3.9601    0.2661 H   0  0  0  0  0  0  0  0  0  0  0  0
   -0.0105   -0.0637    9.4798 H   0  0  0  0  0  0  0  0  0  0  0  0
   -1.3315    0.9787    8.7454 H   0  0  0  0  0  0  0  0  0  0  0  0
  1  2  2  0
  1 47  1  0
  1 48  1  0
  2  3  1  0
  2 49  1  0
  3 45  1  0
  3  4  1  6
  3  5  1  0
  4 50  1  0
  4 51  1  0
  4 52  1  0
  5  6  1  0
  5 53  1  0
  5 54  1  0
  6 26  1  0
  6  7  1  1
  6  8  1  0
  7 55  1  0
  8  9  1  1
  8 10  1  0
  8 43  1  0
  9 56  1  0
 10 11  1  0
 10 57  1  0
 10 58  1  0
 11 12  1  0
 11 59  1  0
 11 60  1  0
 12 23  1  0
 12 13  1  0
 12 61  1  6
 18 13  1  1
 13 14  1  1
 13 15  1  0
 14 62  1  0
 14 63  1  0
 14 64  1  0
 15 16  1  0
 15 65  1  0
 15 66  1  0
 16 17  1  0
 16 67  1  0
 16 68  1  0
 17 18  1  0
 17 20  1  0
 17 69  1  6
 18 19  2  0
 20 42  1  0
 20 21  1  6
 20 22  1  0
 21 70  1  0
 23 22  1  6
 22 71  1  0
 22 72  1  0
 23 30  1  0
 23 24  1  0
 24 25  1  0
 24 73  1  0
 24 74  1  0
 25 26  1  0
 26 27  1  1
 26 28  1  0
 27 75  1  0
 27 76  1  0
 27 77  1  0
 28 29  1  0
 28 30  1  0
 28 78  1  6
 29 79  1  0
 30 31  1  1
 30 32  1  0
 31 80  1  0
 32 40  1  0
 32 33  1  0
 32 81  1  6
 33 34  1  0
 33 35  1  0
 33 36  1  0
 34 82  1  0
 34 83  1  0
 34 84  1  0
 35 85  1  0
 35 86  1  0
 35 87  1  0
 36 37  1  0
 37 38  2  0
 37 39  1  0
 39 40  1  0
 39 88  1  0
 39 89  1  0
 40 41  1  6
 40 42  1  0
 41 90  1  0
 43 44  2  0
 43 45  1  0
 44 91  1  0
 44 92  1  0
 45 46  2  0
M  END
>  <i_m_ct_stereo_status>  (35) 
1

>  <s_m_source_file>  (35) 
/var/tmp/pbs.5075288.sched01/tmpdioscf2v/0xa7vsnym.sdf

>  <i_m_source_file_index>  (35) 
62

>  <i_lp_mmshare_version>  (35) 
48012

>  <i_f3d_flags>  (35) 
0

>  <s_epik_input>  (35) 
W0NIMl09W0NIXVtDQEBdKFtDSDNdKShbQ0gyXTEpQyg9TylDKD1bQ0gyXSlbQ0BAXShbT0hdKShbQ0gyXVtDSDJdMilbQ0BAXTEoW09IXSlbQ0BAXShbQ0gzXSkoT1tDSDJdMylbQ0BASF0oW09IXSlbQ0BdNChbT0hdKVtDQEBIXShDKFtDSDNdKShbQ0gzXSlPQyg9TylbQ0gyXTUpW0NAXTUoW09IXSlPW0NAXShbT0hdKShbQ0gyXTYpW0NASF0oW1MrXTdbTy1dKVtDSDJdW0NIMl1bQ0BdNyhbQ0BASF0yQzM0NilbQ0gzXQ==

>  <s_epik_cmdline>  (35) 
J2VwaWtfcHl0aG9uJywgJy1waHQnLCAnMi4wJywgJy1waCcsICc3LjAnLCAnLXRuJywgJzgnLCAnLW1hJywgJzIwMCcsICctaW1hZScsICc8aW5maWxlLm1hZT4nLCAnLW9tYWUnLCAnPG91dGZpbGUubWFlPic=

>  <r_lp_tautomer_probability>  (35) 
1

>  <r_epik_Ionization_Penalty>  (35) 
7.41708e-06

>  <r_epik_Ionization_Penalty_Charging>  (35) 
0

>  <r_epik_Ionization_Penalty_Neutral>  (35) 
7.41708e-06

>  <r_epik_State_Penalty>  (35) 
-0

>  <r_epik_Charging_Adjusted_Penalty>  (35) 
0

>  <i_epik_Tot_Q>  (35) 
0

>  <i_epik_Tot_abs_Q>  (35) 
2

>  <s_epik_Chemistry_Notes>  (35) 
This compound has an ester and may undergo hydrolysis at high or low pH.

>  <s_lp_Force_Field>  (35) 
OPLS3e

>  <r_lp_Energy>  (35) 
232.792

>  <b_lp_Chiralities_Consistent>  (35) 
1

>  <s_lp_Variant>  (35) 
26:0-2

>  <s_i_glide_gridfile>  (35) 
pfpi4k_grid

>  <i_i_glide_lignum>  (35) 
62

>  <i_i_glide_rotatable_bonds>  (35) 
7

>  <r_i_docking_score>  (35) 
-3.18508

>  <r_i_glide_ligand_efficiency>  (35) 
-0.0692409

>  <r_i_glide_ligand_efficiency_sa>  (35) 
-0.248094

>  <r_i_glide_ligand_efficiency_ln>  (35) 
-0.659623

>  <r_i_glide_gscore>  (35) 
-3.18508

>  <r_i_glide_lipo>  (35) 
-0.387822

>  <r_i_glide_hbond>  (35) 
-0.0287389

>  <r_i_glide_metal>  (35) 
-0

>  <r_i_glide_rewards>  (35) 
-0.62367

>  <r_i_glide_evdw>  (35) 
-33.2357

>  <r_i_glide_ecoul>  (35) 
-3.36714

>  <r_i_glide_erotb>  (35) 
0.0479199

>  <r_i_glide_esite>  (35) 
-0.0259142

>  <r_i_glide_emodel>  (35) 
-47.426

>  <r_i_glide_energy>  (35) 
-36.6029

>  <r_i_glide_einternal>  (35) 
3.48391

>  <r_i_glide_intrahb_reward>  (35) 
-0.5

>  <i_i_glide_confnum>  (35) 
1

>  <i_i_glide_posenum>  (35) 
17

>  <r_i_glide_eff_state_penalty>  (35) 
0

>  <ligand_id>  (35) 
26

>  <original_smiles>  (35) 
C=CC1(C)CC2(O)C(O)(CCC3C4(C)CCC([S+]4[O-])C4(O)CC35COC2(C)C(O)C5(O)C2C(C)(C)OC(=O)CC2(O)O4)C(=C)C1=O

>  <smiles>  (35) 
[H]OC1([H])C2(C([H])([H])[H])OC([H])([H])C34C([H])([H])C(O[H])(OC5(O[H])C([H])([H])C(=O)OC(C([H])([H])[H])(C([H])([H])[H])C5([H])C13O[H])C1([H])S(=O)C(C([H])([H])[H])(C([H])([H])C1([H])[H])C4([H])C([H])([H])C([H])([H])C1(O[H])C(=C([H])[H])C(=O)C(C([H])=C([H])[H])(C([H])([H])[H])C([H])([H])C12O[H]

$$$$
30:0:0
     RDKit          3D

 79 86  0  0  1  0  0  0  0  0999 V2000
   -1.7900    2.0317    8.6656 C   0  0  0  0  0  0  0  0  0  0  0  0
   -0.8395    1.4565    7.6321 C   0  0  0  0  0  0  0  0  0  0  0  0
   -0.0732    0.3747    7.6930 C   0  0  0  0  0  0  0  0  0  0  0  0
    0.7581    0.1315    6.4460 C   0  0  2  0  0  0  0  0  0  0  0  0
    2.3128    0.1670    6.6738 C   0  0  2  0  0  0  0  0  0  0  0  0
    2.8596    1.5817    7.7842 S   0  0  0  0  0  0  0  0  0  0  0  0
    1.7179    2.5231    8.1646 O   0  0  0  0  0  0  0  0  0  0  0  0
    3.4423    0.6814    9.2948 C   0  0  0  0  0  0  0  0  0  0  0  0
    4.9217    0.9663    9.4418 C   0  0  1  0  0  0  0  0  0  0  0  0
    5.7523   -0.1699    9.7034 O   0  0  0  0  0  0  0  0  0  0  0  0
    6.0118    0.5289    8.4834 C   0  0  2  0  0  0  0  0  0  0  0  0
    7.1326    1.3864    8.5891 O   0  0  0  0  0  0  0  0  0  0  0  0
    5.9642   -0.4028    7.2384 C   0  0  1  0  0  0  0  0  0  0  0  0
    7.1620   -1.3899    7.3200 C   0  0  0  0  0  0  0  0  0  0  0  0
    4.7232   -1.0979    7.3456 O   0  0  0  0  0  0  0  0  0  0  0  0
    4.2986   -2.1155    6.4799 C   0  0  1  0  0  0  0  0  0  0  0  0
    3.3517   -2.8938    7.1802 O   0  0  0  0  0  0  0  0  0  0  0  0
    3.7130   -1.5135    5.1277 C   0  0  1  0  0  0  0  0  0  0  0  0
    2.9955   -2.6346    4.2078 C   0  0  1  0  0  0  0  0  0  0  0  0
    3.4562   -4.0904    4.5528 C   0  0  0  0  0  0  0  0  0  0  0  0
    1.6157   -2.6546    4.5209 O   0  0  0  0  0  0  0  0  0  0  0  0
    3.2325   -2.5130    2.6338 C   0  0  2  0  0  0  0  0  0  0  0  0
    2.4114   -3.4930    2.0391 O   0  0  0  0  0  0  0  0  0  0  0  0
    4.7381   -2.6727    2.2628 C   0  0  1  0  0  0  0  0  0  0  0  0
    5.1710   -3.6325    1.1483 C   0  0  0  0  0  0  0  0  0  0  0  0
    4.6997   -1.1742    1.8868 C   0  0  0  0  0  0  0  0  0  0  0  0
    5.5577   -0.2948    1.8670 O   0  0  0  0  0  0  0  0  0  0  0  0
    3.1614   -1.2102    1.7450 C   0  0  1  0  0  0  0  0  0  0  0  0
    3.0166   -1.4427    0.3428 O   0  0  0  0  0  0  0  0  0  0  0  0
    2.3148    0.0003    2.2394 C   0  0  1  0  0  0  0  0  0  0  0  0
    1.4507    0.6305    1.3207 O   0  0  0  0  0  0  0  0  0  0  0  0
    1.6239   -0.3557    3.4484 O   0  0  0  0  0  0  0  0  0  0  0  0
    2.3369    0.6365    4.1928 C   0  0  1  0  0  0  0  0  0  0  0  0
    3.0823    0.9440    3.0059 O   0  0  0  0  0  0  0  0  0  0  0  0
    1.3435    1.7673    4.6123 C   0  0  1  0  0  0  0  0  0  0  0  0
    0.8604    2.5318    3.5261 O   0  0  0  0  0  0  0  0  0  0  0  0
    0.1876    1.1580    5.4376 C   0  0  1  0  0  0  0  0  0  0  0  0
   -0.7303    0.4685    4.5912 O   0  0  0  0  0  0  0  0  0  0  0  0
   -0.6344    2.1059    6.3307 C   0  0  0  0  0  0  0  0  0  0  0  0
   -1.0676    3.1918    5.9728 O   0  0  0  0  0  0  0  0  0  0  0  0
    3.2227    0.0270    5.3465 C   0  0  1  0  0  0  0  0  0  0  0  0
    4.5929    0.8767    5.2918 C   0  0  1  0  0  0  0  0  0  0  0  0
    4.4350    2.2733    5.4760 O   0  0  0  0  0  0  0  0  0  0  0  0
    5.9455    0.3284    5.8708 C   0  0  1  0  0  0  0  0  0  0  0  0
    6.9795    1.2857    5.7309 O   0  0  0  0  0  0  0  0  0  0  0  0
   -1.5508    3.0798    8.8208 H   0  0  0  0  0  0  0  0  0  0  0  0
   -1.7054    1.5211    9.6260 H   0  0  0  0  0  0  0  0  0  0  0  0
   -2.8198    1.9759    8.3165 H   0  0  0  0  0  0  0  0  0  0  0  0
   -0.0118   -0.2944    8.5407 H   0  0  0  0  0  0  0  0  0  0  0  0
    0.5078   -0.8700    6.0984 H   0  0  0  0  0  0  0  0  0  0  0  0
    2.4291   -0.6855    7.3167 H   0  0  0  0  0  0  0  0  0  0  0  0
    2.9175    1.0816   10.1577 H   0  0  0  0  0  0  0  0  0  0  0  0
    3.2604   -0.3914    9.2631 H   0  0  0  0  0  0  0  0  0  0  0  0
    5.1464    1.8443   10.0543 H   0  0  0  0  0  0  0  0  0  0  0  0
    7.8964    0.9019    8.3223 H   0  0  0  0  0  0  0  0  0  0  0  0
    8.1104   -0.8575    7.3145 H   0  0  0  0  0  0  0  0  0  0  0  0
    7.2043   -2.0885    6.4866 H   0  0  0  0  0  0  0  0  0  0  0  0
    7.1446   -1.9779    8.2370 H   0  0  0  0  0  0  0  0  0  0  0  0
    5.1318   -2.7989    6.2953 H   0  0  0  0  0  0  0  0  0  0  0  0
    2.5623   -2.3829    7.3024 H   0  0  0  0  0  0  0  0  0  0  0  0
    4.6088   -1.3922    4.5387 H   0  0  0  0  0  0  0  0  0  0  0  0
    4.5382   -4.1851    4.6100 H   0  0  0  0  0  0  0  0  0  0  0  0
    3.1414   -4.8282    3.8190 H   0  0  0  0  0  0  0  0  0  0  0  0
    3.0229   -4.4774    5.4670 H   0  0  0  0  0  0  0  0  0  0  0  0
    1.2523   -1.8571    4.1504 H   0  0  0  0  0  0  0  0  0  0  0  0
    2.6584   -3.4846    1.1257 H   0  0  0  0  0  0  0  0  0  0  0  0
    5.3425   -2.8257    3.1519 H   0  0  0  0  0  0  0  0  0  0  0  0
    6.2437   -3.5872    0.9543 H   0  0  0  0  0  0  0  0  0  0  0  0
    4.6426   -3.4768    0.2076 H   0  0  0  0  0  0  0  0  0  0  0  0
    4.9578   -4.6563    1.4531 H   0  0  0  0  0  0  0  0  0  0  0  0
    2.1121   -1.3630    0.0795 H   0  0  0  0  0  0  0  0  0  0  0  0
    1.1342   -0.0102    0.6807 H   0  0  0  0  0  0  0  0  0  0  0  0
    1.8515    2.5095    5.2230 H   0  0  0  0  0  0  0  0  0  0  0  0
    0.4217    1.9706    2.8985 H   0  0  0  0  0  0  0  0  0  0  0  0
   -0.2316   -0.0162    3.9472 H   0  0  0  0  0  0  0  0  0  0  0  0
    4.9175    0.8763    4.2521 H   0  0  0  0  0  0  0  0  0  0  0  0
    3.8911    2.6129    4.7762 H   0  0  0  0  0  0  0  0  0  0  0  0
    6.2804   -0.4201    5.1590 H   0  0  0  0  0  0  0  0  0  0  0  0
    7.8189    0.8557    5.8120 H   0  0  0  0  0  0  0  0  0  0  0  0
  1  2  1  0
  1 46  1  0
  1 47  1  0
  1 48  1  0
  2 39  1  0
  2  3  2  0
  3  4  1  0
  3 49  1  0
  4 37  1  0
  4  5  1  0
  4 50  1  6
  5 41  1  0
  5  6  1  0
  5 51  1  1
  6  7  2  0
  6  8  1  1
  8  9  1  0
  8 52  1  0
  8 53  1  0
  9 11  1  0
  9 10  1  0
  9 54  1  1
 10 11  1  0
 11 12  1  1
 11 13  1  0
 12 55  1  0
 13 44  1  0
 13 14  1  6
 13 15  1  0
 14 56  1  0
 14 57  1  0
 14 58  1  0
 15 16  1  0
 16 17  1  0
 16 18  1  0
 16 59  1  6
 17 60  1  0
 18 41  1  0
 18 19  1  0
 18 61  1  6
 19 20  1  0
 19 21  1  6
 19 22  1  0
 20 62  1  0
 20 63  1  0
 20 64  1  0
 21 65  1  0
 22 28  1  0
 22 23  1  6
 22 24  1  0
 23 66  1  0
 24 25  1  0
 24 26  1  0
 24 67  1  1
 25 68  1  0
 25 69  1  0
 25 70  1  0
 26 27  2  0
 26 28  1  0
 28 29  1  6
 28 30  1  0
 29 71  1  0
 30 34  1  0
 30 31  1  6
 30 32  1  0
 31 72  1  0
 33 32  1  6
 33 34  1  0
 33 35  1  0
 41 33  1  6
 35 36  1  0
 35 37  1  0
 35 73  1  1
 36 74  1  0
 37 38  1  6
 37 39  1  0
 38 75  1  0
 39 40  2  0
 41 42  1  0
 42 43  1  0
 42 44  1  0
 42 76  1  6
 43 77  1  0
 44 45  1  0
 44 78  1  6
 45 79  1  0
M  END
>  <i_m_ct_stereo_status>  (36) 
1

>  <s_m_source_file>  (36) 
/var/tmp/pbs.5075288.sched01/tmpeqwi9iw0/66la8jmv2o.sdf

>  <i_m_source_file_index>  (36) 
9

>  <i_lp_mmshare_version>  (36) 
48012

>  <i_f3d_flags>  (36) 
0

>  <s_epik_input>  (36) 
W0NIM11DKD1bQ0hdMSlDKD1PKVtDQEBdKFtPSF0pKFtDQEBIXTJbT0hdKVtDQEhdMVtDQEBIXShbQ0BdMzRbQ0BdMjU2KVtTK10oW08tXSlbQ0gyXVtDQEBIXTdbQ0BdKE83KShbT0hdKVtDQF0oW0NIM10pKFtDQEhdKFtPSF0pW0NAQEhdNFtPSF0pT1tDQEBIXShbT0hdKVtDQEhdM1tDQEBdKFtDSDNdKShbT0hdKVtDQEBdOChbT0hdKVtDQEBdKFtPSF0pKFtDQEBdKE81KShPNilbT0hdKUMoPU8pW0NAQEhdOFtDSDNd

>  <s_epik_cmdline>  (36) 
J2VwaWtfcHl0aG9uJywgJy1waHQnLCAnMi4wJywgJy1waCcsICc3LjAnLCAnLXRuJywgJzgnLCAnLW1hJywgJzIwMCcsICctaW1hZScsICc8aW5maWxlLm1hZT4nLCAnLW9tYWUnLCAnPG91dGZpbGUubWFlPic=

>  <r_epik_Ionization_Penalty>  (36) 
0.0299074

>  <r_epik_Ionization_Penalty_Charging>  (36) 
0

>  <r_epik_Ionization_Penalty_Neutral>  (36) 
0.0299074

>  <r_epik_State_Penalty>  (36) 
0.0238297

>  <r_epik_Charging_Adjusted_Penalty>  (36) 
0.0238297

>  <i_epik_Tot_Q>  (36) 
0

>  <i_epik_Tot_abs_Q>  (36) 
2

>  <s_epik_Chemistry_Notes>  (36) 
This compound contains an acetal/aminal-like group ( X-CH(R)-Y where X, Y are N, S, or O) that may be acid/base labile, releasing an aldehyde.

>  <s_lp_Force_Field>  (36) 
OPLS3e

>  <r_lp_Energy>  (36) 
122.092

>  <b_lp_Chiralities_Consistent>  (36) 
1

>  <s_lp_Variant>  (36) 
30:0-1

>  <s_i_glide_gridfile>  (36) 
pfpi4k_grid

>  <i_i_glide_lignum>  (36) 
9

>  <i_i_glide_rotatable_bonds>  (36) 
10

>  <r_i_docking_score>  (36) 
-4.51308

>  <r_i_glide_ligand_efficiency>  (36) 
-0.100291

>  <r_i_glide_ligand_efficiency_sa>  (36) 
-0.356723

>  <r_i_glide_ligand_efficiency_ln>  (36) 
-0.938923

>  <r_i_glide_gscore>  (36) 
-4.51308

>  <r_i_glide_lipo>  (36) 
-0.260776

>  <r_i_glide_hbond>  (36) 
-0.211587

>  <r_i_glide_metal>  (36) 
-0

>  <r_i_glide_rewards>  (36) 
-1.5903

>  <r_i_glide_evdw>  (36) 
-21.9207

>  <r_i_glide_ecoul>  (36) 
-8.83118

>  <r_i_glide_erotb>  (36) 
0

>  <r_i_glide_esite>  (36) 
-0.0297037

>  <r_i_glide_emodel>  (36) 
-55.7849

>  <r_i_glide_energy>  (36) 
-30.7519

>  <r_i_glide_einternal>  (36) 
2.72551

>  <r_i_glide_intrahb_reward>  (36) 
-1.5

>  <i_i_glide_confnum>  (36) 
2

>  <i_i_glide_posenum>  (36) 
10

>  <r_i_glide_eff_state_penalty>  (36) 
0

>  <ligand_id>  (36) 
30

>  <original_smiles>  (36) 
CC1=CC2C3[S+]([O-])CC4OC4(O)C4(C)OC(O)C5C(C)(O)C6(O)C(C)C(=O)C6(O)C6(O)OC(O6)(C(O)C2(O)C1=O)C35C(O)C4O

>  <smiles>  (36) 
[H]OC1([H])OC2(C([H])([H])[H])C([H])(O[H])C([H])(O[H])C34C5(OC(O[H])(O5)C5(O[H])C(=O)C([H])(C([H])([H])[H])C5(O[H])C(O[H])(C([H])([H])[H])C13[H])C([H])(O[H])C1(O[H])C(=O)C(C([H])([H])[H])=C([H])C1([H])C4([H])S(=O)C([H])([H])C1([H])OC12O[H]

$$$$
30:0:1
     RDKit          3D

 79 86  0  0  1  0  0  0  0  0999 V2000
   -2.1875    2.4330    8.4151 C   0  0  0  0  0  0  0  0  0  0  0  0
   -1.1996    1.8154    7.4497 C   0  0  0  0  0  0  0  0  0  0  0  0
   -0.4604    0.7051    7.5835 C   0  0  0  0  0  0  0  0  0  0  0  0
    0.4340    0.4170    6.3910 C   0  0  2  0  0  0  0  0  0  0  0  0
    1.9731    0.4056    6.7162 C   0  0  2  0  0  0  0  0  0  0  0  0
    2.5007    1.8293    7.8260 S   0  0  0  0  0  0  0  0  0  0  0  0
    1.3659    2.8080    8.1198 O   0  0  0  0  0  0  0  0  0  0  0  0
    2.9502    0.9405    9.3880 C   0  0  0  0  0  0  0  0  0  0  0  0
    4.4242    1.1837    9.6279 C   0  0  1  0  0  0  0  0  0  0  0  0
    5.1964    0.0230    9.9632 O   0  0  0  0  0  0  0  0  0  0  0  0
    5.5634    0.6890    8.7474 C   0  0  2  0  0  0  0  0  0  0  0  0
    6.7000    1.5102    8.9194 O   0  0  0  0  0  0  0  0  0  0  0  0
    5.5629   -0.2692    7.5216 C   0  0  1  0  0  0  0  0  0  0  0  0
    6.7182   -1.2886    7.6961 C   0  0  0  0  0  0  0  0  0  0  0  0
    4.2978   -0.9215    7.5702 O   0  0  0  0  0  0  0  0  0  0  0  0
    3.8936   -1.9386    6.6959 C   0  0  1  0  0  0  0  0  0  0  0  0
    2.8813   -2.6735    7.3508 O   0  0  0  0  0  0  0  0  0  0  0  0
    3.4068   -1.3490    5.2943 C   0  0  1  0  0  0  0  0  0  0  0  0
    2.7167   -2.4674    4.3482 C   0  0  1  0  0  0  0  0  0  0  0  0
    3.1056   -3.9316    4.7550 C   0  0  0  0  0  0  0  0  0  0  0  0
    1.3196   -2.4362    4.5788 O   0  0  0  0  0  0  0  0  0  0  0  0
    3.0594   -2.3853    2.7928 C   0  0  2  0  0  0  0  0  0  0  0  0
    2.2592   -3.3507    2.1518 O   0  0  0  0  0  0  0  0  0  0  0  0
    4.5754   -2.5988    2.5210 C   0  0  1  0  0  0  0  0  0  0  0  0
    5.0447   -3.5972    1.4562 C   0  0  0  0  0  0  0  0  0  0  0  0
    4.6175   -1.1020    2.1158 C   0  0  0  0  0  0  0  0  0  0  0  0
    5.4899   -0.2515    2.1484 O   0  0  0  0  0  0  0  0  0  0  0  0
    3.0837   -1.1040    1.8702 C   0  0  1  0  0  0  0  0  0  0  0  0
    3.0031   -1.3564    0.4772 O   0  0  0  0  0  0  0  0  0  0  0  0
    2.2476    0.1437    2.2910 C   0  0  1  0  0  0  0  0  0  0  0  0
    1.4664    0.7711    1.3024 O   0  0  0  0  0  0  0  0  0  0  0  0
    1.4668   -0.1589    3.4545 O   0  0  0  0  0  0  0  0  0  0  0  0
    2.1649    0.8246    4.2301 C   0  0  1  0  0  0  0  0  0  0  0  0
    2.9869    1.0797    3.0820 O   0  0  0  0  0  0  0  0  0  0  0  0
    1.1883    1.9901    4.5666 C   0  0  1  0  0  0  0  0  0  0  0  0
    0.8018    2.7482    3.4403 O   0  0  0  0  0  0  0  0  0  0  0  0
   -0.0391    1.4417    5.3293 C   0  0  1  0  0  0  0  0  0  0  0  0
   -0.9229    0.7630    4.4395 O   0  0  0  0  0  0  0  0  0  0  0  0
   -0.8853    2.4202    6.1564 C   0  0  0  0  0  0  0  0  0  0  0  0
   -1.2640    3.5247    5.7486 O   0  0  0  0  0  0  0  0  0  0  0  0
    2.9567    0.2139    5.4477 C   0  0  1  0  0  0  0  0  0  0  0  0
    4.3599    1.0136    5.4642 C   0  0  1  0  0  0  0  0  0  0  0  0
    4.2597    2.4227    5.5865 O   0  0  0  0  0  0  0  0  0  0  0  0
    5.6521    0.4257    6.1412 C   0  0  1  0  0  0  0  0  0  0  0  0
    6.7413    1.3240    6.0649 O   0  0  0  0  0  0  0  0  0  0  0  0
   -1.9234    3.4764    8.5694 H   0  0  0  0  0  0  0  0  0  0  0  0
   -2.1876    1.9329    9.3829 H   0  0  0  0  0  0  0  0  0  0  0  0
   -3.1928    2.4034    8.0001 H   0  0  0  0  0  0  0  0  0  0  0  0
   -0.4729    0.0608    8.4470 H   0  0  0  0  0  0  0  0  0  0  0  0
    0.1733   -0.5891    6.0508 H   0  0  0  0  0  0  0  0  0  0  0  0
    2.0207   -0.4371    7.3831 H   0  0  0  0  0  0  0  0  0  0  0  0
    2.3901    1.3735   10.2120 H   0  0  0  0  0  0  0  0  0  0  0  0
    2.7394   -0.1230    9.3700 H   0  0  0  0  0  0  0  0  0  0  0  0
    4.6435    2.0624   10.2375 H   0  0  0  0  0  0  0  0  0  0  0  0
    7.4653    0.9946    8.7052 H   0  0  0  0  0  0  0  0  0  0  0  0
    7.6775   -0.7813    7.7351 H   0  0  0  0  0  0  0  0  0  0  0  0
    6.7907   -2.0004    6.8809 H   0  0  0  0  0  0  0  0  0  0  0  0
    6.6241   -1.8533    8.6192 H   0  0  0  0  0  0  0  0  0  0  0  0
    4.7129   -2.6528    6.5698 H   0  0  0  0  0  0  0  0  0  0  0  0
    2.1272   -2.1195    7.4602 H   0  0  0  0  0  0  0  0  0  0  0  0
    4.3435   -1.2728    4.7622 H   0  0  0  0  0  0  0  0  0  0  0  0
    4.1789   -4.0572    4.8815 H   0  0  0  0  0  0  0  0  0  0  0  0
    2.8132   -4.6741    4.0180 H   0  0  0  0  0  0  0  0  0  0  0  0
    2.6049   -4.2838    5.6488 H   0  0  0  0  0  0  0  0  0  0  0  0
    1.0091   -1.6232    4.1991 H   0  0  0  0  0  0  0  0  0  0  0  0
    2.4761   -3.2675    1.2384 H   0  0  0  0  0  0  0  0  0  0  0  0
    5.1221   -2.7511    3.4502 H   0  0  0  0  0  0  0  0  0  0  0  0
    6.1276   -3.5889    1.3266 H   0  0  0  0  0  0  0  0  0  0  0  0
    4.5801   -3.4438    0.4821 H   0  0  0  0  0  0  0  0  0  0  0  0
    4.7781   -4.6050    1.7663 H   0  0  0  0  0  0  0  0  0  0  0  0
    2.1211   -1.2458    0.1599 H   0  0  0  0  0  0  0  0  0  0  0  0
    1.0874    0.1172    0.7242 H   0  0  0  0  0  0  0  0  0  0  0  0
    1.6790    2.7272    5.1971 H   0  0  0  0  0  0  0  0  0  0  0  0
    0.3871    2.1977    2.7891 H   0  0  0  0  0  0  0  0  0  0  0  0
   -0.4018    0.2631    3.8255 H   0  0  0  0  0  0  0  0  0  0  0  0
    4.7416    0.9687    4.4462 H   0  0  0  0  0  0  0  0  0  0  0  0
    3.7807    2.7631    4.8411 H   0  0  0  0  0  0  0  0  0  0  0  0
    6.0158   -0.3465    5.4679 H   0  0  0  0  0  0  0  0  0  0  0  0
    6.8643    1.5494    5.1555 H   0  0  0  0  0  0  0  0  0  0  0  0
  1  2  1  0
  1 46  1  0
  1 47  1  0
  1 48  1  0
  2 39  1  0
  2  3  2  0
  3  4  1  0
  3 49  1  0
  4 37  1  0
  4  5  1  0
  4 50  1  6
  5 41  1  0
  5  6  1  0
  5 51  1  1
  6  7  2  0
  6  8  1  1
  8  9  1  0
  8 52  1  0
  8 53  1  0
  9 11  1  0
  9 10  1  0
  9 54  1  1
 10 11  1  0
 11 12  1  1
 11 13  1  0
 12 55  1  0
 13 44  1  0
 13 14  1  1
 13 15  1  0
 14 56  1  0
 14 57  1  0
 14 58  1  0
 15 16  1  0
 16 17  1  0
 16 18  1  0
 16 59  1  6
 17 60  1  0
 18 41  1  0
 18 19  1  0
 18 61  1  6
 19 20  1  0
 19 21  1  6
 19 22  1  0
 20 62  1  0
 20 63  1  0
 20 64  1  0
 21 65  1  0
 22 28  1  0
 22 23  1  6
 22 24  1  0
 23 66  1  0
 24 25  1  0
 24 26  1  0
 24 67  1  1
 25 68  1  0
 25 69  1  0
 25 70  1  0
 26 27  2  0
 26 28  1  0
 28 29  1  6
 28 30  1  0
 29 71  1  0
 30 34  1  0
 30 31  1  6
 30 32  1  0
 31 72  1  0
 33 32  1  6
 33 34  1  0
 33 35  1  0
 41 33  1  6
 35 36  1  0
 35 37  1  0
 35 73  1  1
 36 74  1  0
 37 38  1  6
 37 39  1  0
 38 75  1  0
 39 40  2  0
 41 42  1  0
 42 43  1  0
 42 44  1  0
 42 76  1  6
 43 77  1  0
 44 45  1  0
 44 78  1  6
 45 79  1  0
M  END
>  <i_m_ct_stereo_status>  (37) 
1

>  <s_m_source_file>  (37) 
/var/tmp/pbs.5075288.sched01/tmpeqwi9iw0/66la8jmv2o.sdf

>  <i_m_source_file_index>  (37) 
9

>  <i_lp_mmshare_version>  (37) 
48012

>  <i_f3d_flags>  (37) 
0

>  <s_epik_input>  (37) 
W0NIM11DKD1bQ0hdMSlDKD1PKVtDQEBdKFtPSF0pKFtDQEBIXTJbT0hdKVtDQEhdMVtDQEBIXShbQ0BdMzRbQ0BdMjU2KVtTK10oW08tXSlbQ0gyXVtDQEBIXTdbQ0BdKE83KShbT0hdKVtDQF0oW0NIM10pKFtDQEhdKFtPSF0pW0NAQEhdNFtPSF0pT1tDQEBIXShbT0hdKVtDQEhdM1tDQEBdKFtDSDNdKShbT0hdKVtDQEBdOChbT0hdKVtDQEBdKFtPSF0pKFtDQEBdKE81KShPNilbT0hdKUMoPU8pW0NAQEhdOFtDSDNd

>  <s_epik_cmdline>  (37) 
J2VwaWtfcHl0aG9uJywgJy1waHQnLCAnMi4wJywgJy1waCcsICc3LjAnLCAnLXRuJywgJzgnLCAnLW1hJywgJzIwMCcsICctaW1hZScsICc8aW5maWxlLm1hZT4nLCAnLW9tYWUnLCAnPG91dGZpbGUubWFlPic=

>  <r_epik_Ionization_Penalty>  (37) 
0.0299074

>  <r_epik_Ionization_Penalty_Charging>  (37) 
0

>  <r_epik_Ionization_Penalty_Neutral>  (37) 
0.0299074

>  <r_epik_State_Penalty>  (37) 
0.0238297

>  <r_epik_Charging_Adjusted_Penalty>  (37) 
0.0238297

>  <i_epik_Tot_Q>  (37) 
0

>  <i_epik_Tot_abs_Q>  (37) 
2

>  <s_epik_Chemistry_Notes>  (37) 
This compound contains an acetal/aminal-like group ( X-CH(R)-Y where X, Y are N, S, or O) that may be acid/base labile, releasing an aldehyde.

>  <s_lp_Force_Field>  (37) 
OPLS3e

>  <r_lp_Energy>  (37) 
122.092

>  <b_lp_Chiralities_Consistent>  (37) 
1

>  <s_lp_Variant>  (37) 
30:0-1

>  <s_i_glide_gridfile>  (37) 
pfpi4k_grid

>  <i_i_glide_lignum>  (37) 
9

>  <i_i_glide_rotatable_bonds>  (37) 
10

>  <r_i_docking_score>  (37) 
-4.21552

>  <r_i_glide_ligand_efficiency>  (37) 
-0.0936783

>  <r_i_glide_ligand_efficiency_sa>  (37) 
-0.333204

>  <r_i_glide_ligand_efficiency_ln>  (37) 
-0.877017

>  <r_i_glide_gscore>  (37) 
-4.21552

>  <r_i_glide_lipo>  (37) 
-0.154139

>  <r_i_glide_hbond>  (37) 
-0.202021

>  <r_i_glide_metal>  (37) 
-0

>  <r_i_glide_rewards>  (37) 
-1.58816

>  <r_i_glide_evdw>  (37) 
-22.7542

>  <r_i_glide_ecoul>  (37) 
-7.38586

>  <r_i_glide_erotb>  (37) 
0

>  <r_i_glide_esite>  (37) 
-0.0256206

>  <r_i_glide_emodel>  (37) 
-54.425

>  <r_i_glide_energy>  (37) 
-30.14

>  <r_i_glide_einternal>  (37) 
2.30026

>  <r_i_glide_intrahb_reward>  (37) 
-1.5

>  <i_i_glide_confnum>  (37) 
2

>  <i_i_glide_posenum>  (37) 
30

>  <r_i_glide_eff_state_penalty>  (37) 
0

>  <ligand_id>  (37) 
30

>  <original_smiles>  (37) 
CC1=CC2C3[S+]([O-])CC4OC4(O)C4(C)OC(O)C5C(C)(O)C6(O)C(C)C(=O)C6(O)C6(O)OC(O6)(C(O)C2(O)C1=O)C35C(O)C4O

>  <smiles>  (37) 
[H]OC1([H])OC2(C([H])([H])[H])C([H])(O[H])C([H])(O[H])C34C5(OC(O[H])(O5)C5(O[H])C(=O)C([H])(C([H])([H])[H])C5(O[H])C(O[H])(C([H])([H])[H])C13[H])C([H])(O[H])C1(O[H])C(=O)C(C([H])([H])[H])=C([H])C1([H])C4([H])S(=O)C([H])([H])C1([H])OC12O[H]

$$$$
30:0:2
     RDKit          3D

 79 86  0  0  1  0  0  0  0  0999 V2000
   -1.8967    2.0715    8.6162 C   0  0  0  0  0  0  0  0  0  0  0  0
   -0.9402    1.4919    7.5939 C   0  0  0  0  0  0  0  0  0  0  0  0
   -0.1680    0.4112    7.6751 C   0  0  0  0  0  0  0  0  0  0  0  0
    0.6821    0.1655    6.4394 C   0  0  2  0  0  0  0  0  0  0  0  0
    2.2332    0.2027    6.6861 C   0  0  2  0  0  0  0  0  0  0  0  0
    2.7627    1.6248    7.7945 S   0  0  0  0  0  0  0  0  0  0  0  0
    1.6152    2.5662    8.1572 O   0  0  0  0  0  0  0  0  0  0  0  0
    3.3242    0.7308    9.3162 C   0  0  0  0  0  0  0  0  0  0  0  0
    4.7980    1.0225    9.4825 C   0  0  1  0  0  0  0  0  0  0  0  0
    5.6285   -0.1123    9.7620 O   0  0  0  0  0  0  0  0  0  0  0  0
    5.9063    0.5787    8.5362 C   0  0  2  0  0  0  0  0  0  0  0  0
    7.0220    1.4440    8.6496 O   0  0  0  0  0  0  0  0  0  0  0  0
    5.8791   -0.3570    7.2985 C   0  0  1  0  0  0  0  0  0  0  0  0
    7.0739   -1.3402    7.3987 C   0  0  0  0  0  0  0  0  0  0  0  0
    4.6403   -1.0537    7.3993 O   0  0  0  0  0  0  0  0  0  0  0  0
    4.2260   -2.0712    6.5282 C   0  0  1  0  0  0  0  0  0  0  0  0
    3.2712   -2.8518    7.2213 O   0  0  0  0  0  0  0  0  0  0  0  0
    3.6519   -1.4788    5.1642 C   0  0  1  0  0  0  0  0  0  0  0  0
    2.9496   -2.6061    4.2397 C   0  0  1  0  0  0  0  0  0  0  0  0
    3.4093   -4.0612    4.5960 C   0  0  0  0  0  0  0  0  0  0  0  0
    1.5685   -2.6210    4.5422 O   0  0  0  0  0  0  0  0  0  0  0  0
    3.2056   -2.4890    2.6725 C   0  0  2  0  0  0  0  0  0  0  0  0
    2.3943   -3.4680    2.0594 O   0  0  0  0  0  0  0  0  0  0  0  0
    4.7162   -2.6470    2.3176 C   0  0  1  0  0  0  0  0  0  0  0  0
    5.1670   -3.6098    1.2103 C   0  0  0  0  0  0  0  0  0  0  0  0
    4.6825   -1.1454    1.9371 C   0  0  0  0  0  0  0  0  0  0  0  0
    5.5346   -0.2636    1.9216 O   0  0  0  0  0  0  0  0  0  0  0  0
    3.1430   -1.1935    1.7715 C   0  0  1  0  0  0  0  0  0  0  0  0
    3.0123   -1.4428    0.3764 O   0  0  0  0  0  0  0  0  0  0  0  0
    2.3001    0.0260    2.2414 C   0  0  1  0  0  0  0  0  0  0  0  0
    1.4844    0.6527    1.2775 O   0  0  0  0  0  0  0  0  0  0  0  0
    1.5793   -0.3214    3.4359 O   0  0  0  0  0  0  0  0  0  0  0  0
    2.2855    0.6662    4.1962 C   0  0  1  0  0  0  0  0  0  0  0  0
    3.0443    0.9795    3.0206 O   0  0  0  0  0  0  0  0  0  0  0  0
    1.2931    1.7976    4.6076 C   0  0  1  0  0  0  0  0  0  0  0  0
    0.7939    2.5293    3.5076 O   0  0  0  0  0  0  0  0  0  0  0  0
    0.1240    1.1882    5.4201 C   0  0  1  0  0  0  0  0  0  0  0  0
   -0.7794    0.4695    4.5841 O   0  0  0  0  0  0  0  0  0  0  0  0
   -0.7158    2.1339    6.2972 C   0  0  0  0  0  0  0  0  0  0  0  0
   -1.1437    3.2243    5.9289 O   0  0  0  0  0  0  0  0  0  0  0  0
    3.1574    0.0616    5.3672 C   0  0  1  0  0  0  0  0  0  0  0  0
    4.5287    0.9110    5.3297 C   0  0  1  0  0  0  0  0  0  0  0  0
    4.3694    2.3097    5.4953 O   0  0  0  0  0  0  0  0  0  0  0  0
    5.8756    0.3672    5.9246 C   0  0  1  0  0  0  0  0  0  0  0  0
    6.9020    1.3349    5.8004 O   0  0  0  0  0  0  0  0  0  0  0  0
   -1.6660    3.1215    8.7686 H   0  0  0  0  0  0  0  0  0  0  0  0
   -1.7990    1.5700    9.5769 H   0  0  0  0  0  0  0  0  0  0  0  0
   -2.9234    2.0034    8.2626 H   0  0  0  0  0  0  0  0  0  0  0  0
   -0.1163   -0.2531    8.5262 H   0  0  0  0  0  0  0  0  0  0  0  0
    0.4365   -0.8398    6.0949 H   0  0  0  0  0  0  0  0  0  0  0  0
    2.3374   -0.6483    7.3336 H   0  0  0  0  0  0  0  0  0  0  0  0
    2.7889    1.1309   10.1720 H   0  0  0  0  0  0  0  0  0  0  0  0
    3.1475   -0.3414    9.2876 H   0  0  0  0  0  0  0  0  0  0  0  0
    5.0162    1.9005   10.0927 H   0  0  0  0  0  0  0  0  0  0  0  0
    7.8021    0.9376    8.4827 H   0  0  0  0  0  0  0  0  0  0  0  0
    8.0185   -0.8063    7.4021 H   0  0  0  0  0  0  0  0  0  0  0  0
    7.1275   -2.0402    6.5697 H   0  0  0  0  0  0  0  0  0  0  0  0
    7.0437   -1.9238    8.3156 H   0  0  0  0  0  0  0  0  0  0  0  0
    5.0593   -2.7550    6.3518 H   0  0  0  0  0  0  0  0  0  0  0  0
    2.5025   -2.3278    7.3767 H   0  0  0  0  0  0  0  0  0  0  0  0
    4.5545   -1.3616    4.5852 H   0  0  0  0  0  0  0  0  0  0  0  0
    4.4910   -4.1520    4.6664 H   0  0  0  0  0  0  0  0  0  0  0  0
    3.1048   -4.8012    3.8601 H   0  0  0  0  0  0  0  0  0  0  0  0
    2.9660   -4.4448    5.5078 H   0  0  0  0  0  0  0  0  0  0  0  0
    1.2148   -1.8079    4.2028 H   0  0  0  0  0  0  0  0  0  0  0  0
    2.6024   -3.4023    1.1413 H   0  0  0  0  0  0  0  0  0  0  0  0
    5.3133   -2.7972    3.2149 H   0  0  0  0  0  0  0  0  0  0  0  0
    6.2410   -3.5602    1.0294 H   0  0  0  0  0  0  0  0  0  0  0  0
    4.6514   -3.4574    0.2626 H   0  0  0  0  0  0  0  0  0  0  0  0
    4.9524   -4.6344    1.5145 H   0  0  0  0  0  0  0  0  0  0  0  0
    2.0872   -1.3814    0.1008 H   0  0  0  0  0  0  0  0  0  0  0  0
    1.1539    0.0082    0.6566 H   0  0  0  0  0  0  0  0  0  0  0  0
    1.7927    2.5414    5.2243 H   0  0  0  0  0  0  0  0  0  0  0  0
    1.5064    2.8896    2.9985 H   0  0  0  0  0  0  0  0  0  0  0  0
   -0.2774    0.0906    3.8746 H   0  0  0  0  0  0  0  0  0  0  0  0
    4.8667    0.9033    4.2950 H   0  0  0  0  0  0  0  0  0  0  0  0
    3.9093    2.6517    4.7420 H   0  0  0  0  0  0  0  0  0  0  0  0
    6.2266   -0.3855    5.2226 H   0  0  0  0  0  0  0  0  0  0  0  0
    7.7288    0.9357    6.0157 H   0  0  0  0  0  0  0  0  0  0  0  0
  1  2  1  0
  1 46  1  0
  1 47  1  0
  1 48  1  0
  2 39  1  0
  2  3  2  0
  3  4  1  0
  3 49  1  0
  4 37  1  0
  4  5  1  0
  4 50  1  6
  5 41  1  0
  5  6  1  0
  5 51  1  1
  6  7  2  0
  6  8  1  1
  8  9  1  0
  8 52  1  0
  8 53  1  0
  9 11  1  0
  9 10  1  0
  9 54  1  1
 10 11  1  0
 11 12  1  1
 11 13  1  0
 12 55  1  0
 13 44  1  0
 13 14  1  6
 13 15  1  0
 14 56  1  0
 14 57  1  0
 14 58  1  0
 15 16  1  0
 16 17  1  0
 16 18  1  0
 16 59  1  6
 17 60  1  0
 18 41  1  0
 18 19  1  0
 18 61  1  6
 19 20  1  0
 19 21  1  6
 19 22  1  0
 20 62  1  0
 20 63  1  0
 20 64  1  0
 21 65  1  0
 22 28  1  0
 22 23  1  6
 22 24  1  0
 23 66  1  0
 24 25  1  0
 24 26  1  0
 24 67  1  1
 25 68  1  0
 25 69  1  0
 25 70  1  0
 26 27  2  0
 26 28  1  0
 28 29  1  6
 28 30  1  0
 29 71  1  0
 30 34  1  0
 30 31  1  6
 30 32  1  0
 31 72  1  0
 33 32  1  6
 33 34  1  0
 33 35  1  0
 41 33  1  6
 35 36  1  0
 35 37  1  0
 35 73  1  1
 36 74  1  0
 37 38  1  6
 37 39  1  0
 38 75  1  0
 39 40  2  0
 41 42  1  0
 42 43  1  0
 42 44  1  0
 42 76  1  6
 43 77  1  0
 44 45  1  0
 44 78  1  6
 45 79  1  0
M  END
>  <i_m_ct_stereo_status>  (38) 
1

>  <s_m_source_file>  (38) 
/var/tmp/pbs.5075288.sched01/tmpeqwi9iw0/66la8jmv2o.sdf

>  <i_m_source_file_index>  (38) 
9

>  <i_lp_mmshare_version>  (38) 
48012

>  <i_f3d_flags>  (38) 
0

>  <s_epik_input>  (38) 
W0NIM11DKD1bQ0hdMSlDKD1PKVtDQEBdKFtPSF0pKFtDQEBIXTJbT0hdKVtDQEhdMVtDQEBIXShbQ0BdMzRbQ0BdMjU2KVtTK10oW08tXSlbQ0gyXVtDQEBIXTdbQ0BdKE83KShbT0hdKVtDQF0oW0NIM10pKFtDQEhdKFtPSF0pW0NAQEhdNFtPSF0pT1tDQEBIXShbT0hdKVtDQEhdM1tDQEBdKFtDSDNdKShbT0hdKVtDQEBdOChbT0hdKVtDQEBdKFtPSF0pKFtDQEBdKE81KShPNilbT0hdKUMoPU8pW0NAQEhdOFtDSDNd

>  <s_epik_cmdline>  (38) 
J2VwaWtfcHl0aG9uJywgJy1waHQnLCAnMi4wJywgJy1waCcsICc3LjAnLCAnLXRuJywgJzgnLCAnLW1hJywgJzIwMCcsICctaW1hZScsICc8aW5maWxlLm1hZT4nLCAnLW9tYWUnLCAnPG91dGZpbGUubWFlPic=

>  <r_epik_Ionization_Penalty>  (38) 
0.0299074

>  <r_epik_Ionization_Penalty_Charging>  (38) 
0

>  <r_epik_Ionization_Penalty_Neutral>  (38) 
0.0299074

>  <r_epik_State_Penalty>  (38) 
0.0238297

>  <r_epik_Charging_Adjusted_Penalty>  (38) 
0.0238297

>  <i_epik_Tot_Q>  (38) 
0

>  <i_epik_Tot_abs_Q>  (38) 
2

>  <s_epik_Chemistry_Notes>  (38) 
This compound contains an acetal/aminal-like group ( X-CH(R)-Y where X, Y are N, S, or O) that may be acid/base labile, releasing an aldehyde.

>  <s_lp_Force_Field>  (38) 
OPLS3e

>  <r_lp_Energy>  (38) 
122.092

>  <b_lp_Chiralities_Consistent>  (38) 
1

>  <s_lp_Variant>  (38) 
30:0-1

>  <s_i_glide_gridfile>  (38) 
pfpi4k_grid

>  <i_i_glide_lignum>  (38) 
9

>  <i_i_glide_rotatable_bonds>  (38) 
10

>  <r_i_docking_score>  (38) 
-4.0763

>  <r_i_glide_ligand_efficiency>  (38) 
-0.0905843

>  <r_i_glide_ligand_efficiency_sa>  (38) 
-0.322199

>  <r_i_glide_ligand_efficiency_ln>  (38) 
-0.848051

>  <r_i_glide_gscore>  (38) 
-4.0763

>  <r_i_glide_lipo>  (38) 
-0.245312

>  <r_i_glide_hbond>  (38) 
-0.222768

>  <r_i_glide_metal>  (38) 
-0

>  <r_i_glide_rewards>  (38) 
-1.0915

>  <r_i_glide_evdw>  (38) 
-21.9956

>  <r_i_glide_ecoul>  (38) 
-9.24619

>  <r_i_glide_erotb>  (38) 
0

>  <r_i_glide_esite>  (38) 
-0.0300029

>  <r_i_glide_emodel>  (38) 
-50.0741

>  <r_i_glide_energy>  (38) 
-31.2418

>  <r_i_glide_einternal>  (38) 
2.99019

>  <r_i_glide_intrahb_reward>  (38) 
-1

>  <i_i_glide_confnum>  (38) 
2

>  <i_i_glide_posenum>  (38) 
5

>  <r_i_glide_eff_state_penalty>  (38) 
0

>  <ligand_id>  (38) 
30

>  <original_smiles>  (38) 
CC1=CC2C3[S+]([O-])CC4OC4(O)C4(C)OC(O)C5C(C)(O)C6(O)C(C)C(=O)C6(O)C6(O)OC(O6)(C(O)C2(O)C1=O)C35C(O)C4O

>  <smiles>  (38) 
[H]OC1([H])OC2(C([H])([H])[H])C([H])(O[H])C([H])(O[H])C34C5(OC(O[H])(O5)C5(O[H])C(=O)C([H])(C([H])([H])[H])C5(O[H])C(O[H])(C([H])([H])[H])C13[H])C([H])(O[H])C1(O[H])C(=O)C(C([H])([H])[H])=C([H])C1([H])C4([H])S(=O)C([H])([H])C1([H])OC12O[H]

$$$$
30:1:0
     RDKit          3D

 78 85  0  0  1  0  0  0  0  0999 V2000
    6.3386   -1.9206    0.7584 C   0  0  0  0  0  0  0  0  0  0  0  0
    5.4321   -2.9853    1.3363 C   0  0  0  0  0  0  0  0  0  0  0  0
    5.4002   -3.5030    2.5742 C   0  0  0  0  0  0  0  0  0  0  0  0
    4.3172   -4.5495    2.7808 C   0  0  2  0  0  0  0  0  0  0  0  0
    4.8479   -5.9871    3.1188 C   0  0  2  0  0  0  0  0  0  0  0  0
    6.3142   -6.5021    2.0558 S   0  0  0  0  0  0  0  0  0  0  0  0
    6.6602   -5.4998    0.9549 O   0  0  0  0  0  0  0  0  0  0  0  0
    7.6995   -6.5339    3.2895 C   0  0  0  0  0  0  0  0  0  0  0  0
    8.1837   -7.9617    3.3535 C   0  0  1  0  0  0  0  0  0  0  0  0
    8.3755   -8.4949    4.6637 O   0  0  0  0  0  0  0  0  0  0  0  0
    7.3801   -9.1500    3.8650 C   0  0  2  0  0  0  0  0  0  0  0  0
    7.8313  -10.3558    3.2969 O   0  0  0  0  0  0  0  0  0  0  0  0
    6.0008   -9.2296    4.5615 C   0  0  1  0  0  0  0  0  0  0  0  0
    6.1386  -10.1694    5.7865 C   0  0  0  0  0  0  0  0  0  0  0  0
    5.7406   -7.8995    4.9770 O   0  0  0  0  0  0  0  0  0  0  0  0
    4.6135   -7.5121    5.7143 C   0  0  1  0  0  0  0  0  0  0  0  0
    4.9352   -6.2937    6.3536 O   0  0  0  0  0  0  0  0  0  0  0  0
    3.3183   -7.3812    4.7918 C   0  0  1  0  0  0  0  0  0  0  0  0
    2.0825   -6.7081    5.5732 C   0  0  1  0  0  0  0  0  0  0  0  0
    2.2172   -6.7861    7.1365 C   0  0  0  0  0  0  0  0  0  0  0  0
    2.1052   -5.3168    5.3575 O   0  0  0  0  0  0  0  0  0  0  0  0
    0.6622   -7.3470    5.2914 C   0  0  2  0  0  0  0  0  0  0  0  0
   -0.2672   -6.5146    5.9424 O   0  0  0  0  0  0  0  0  0  0  0  0
    0.6047   -8.8417    5.7312 C   0  0  1  0  0  0  0  0  0  0  0  0
   -0.5411   -9.3654    6.5996 C   0  0  0  0  0  0  0  0  0  0  0  0
    0.4984   -9.1900    4.2238 C   0  0  0  0  0  0  0  0  0  0  0  0
    0.8087  -10.1706    3.5653 O   0  0  0  0  0  0  0  0  0  0  0  0
    0.0287   -7.7498    3.9129 C   0  0  1  0  0  0  0  0  0  0  0  0
   -1.3873   -7.8614    3.9737 O   0  0  0  0  0  0  0  0  0  0  0  0
    0.5376   -7.0836    2.5968 C   0  0  1  0  0  0  0  0  0  0  0  0
   -0.3973   -6.6553    1.7818 O   0  0  0  0  0  0  0  0  0  0  0  0
    1.4599   -6.0361    2.9211 O   0  0  0  0  0  0  0  0  0  0  0  0
    2.5445   -6.6987    2.2635 C   0  0  1  0  0  0  0  0  0  0  0  0
    1.6124   -7.7475    1.9057 O   0  0  0  0  0  0  0  0  0  0  0  0
    3.0011   -5.8351    1.0504 C   0  0  1  0  0  0  0  0  0  0  0  0
    2.0308   -5.6733    0.0480 O   0  0  0  0  0  0  0  0  0  0  0  0
    3.4793   -4.4311    1.4986 C   0  0  1  0  0  0  0  0  0  0  0  0
    2.3973   -3.5687    1.7848 O   0  0  0  0  0  0  0  0  0  0  0  0
    4.3766   -3.6313    0.5564 C   0  0  0  0  0  0  0  0  0  0  0  0
    4.1501   -3.5036   -0.6532 O   0  0  0  0  0  0  0  0  0  0  0  0
    3.7195   -7.1473    3.2290 C   0  0  1  0  0  0  0  0  0  0  0  0
    4.1168   -8.6249    2.7164 C   0  0  1  0  0  0  0  0  0  0  0  0
    4.5632   -8.7138    1.3707 O   0  0  0  0  0  0  0  0  0  0  0  0
    4.8261   -9.6777    3.6384 C   0  0  1  0  0  0  0  0  0  0  0  0
    5.1455  -10.8322    2.8846 O   0  0  0  0  0  0  0  0  0  0  0  0
    6.7715   -2.2866   -0.1688 H   0  0  0  0  0  0  0  0  0  0  0  0
    7.1465   -1.6595    1.4317 H   0  0  0  0  0  0  0  0  0  0  0  0
    5.7794   -1.0135    0.5431 H   0  0  0  0  0  0  0  0  0  0  0  0
    6.0403   -3.2034    3.3821 H   0  0  0  0  0  0  0  0  0  0  0  0
    3.7158   -4.2127    3.6257 H   0  0  0  0  0  0  0  0  0  0  0  0
    5.3027   -5.7859    4.0704 H   0  0  0  0  0  0  0  0  0  0  0  0
    8.5055   -5.8987    2.9356 H   0  0  0  0  0  0  0  0  0  0  0  0
    7.4140   -6.1771    4.2777 H   0  0  0  0  0  0  0  0  0  0  0  0
    8.9891   -8.1977    2.6481 H   0  0  0  0  0  0  0  0  0  0  0  0
    7.6247  -11.0640    3.9005 H   0  0  0  0  0  0  0  0  0  0  0  0
    6.4259  -11.1657    5.4759 H   0  0  0  0  0  0  0  0  0  0  0  0
    5.2144  -10.2928    6.3465 H   0  0  0  0  0  0  0  0  0  0  0  0
    6.8998   -9.8308    6.4843 H   0  0  0  0  0  0  0  0  0  0  0  0
    4.4573   -8.2302    6.5240 H   0  0  0  0  0  0  0  0  0  0  0  0
    5.5971   -6.4724    7.0077 H   0  0  0  0  0  0  0  0  0  0  0  0
    2.9533   -8.3911    4.7882 H   0  0  0  0  0  0  0  0  0  0  0  0
    2.4785   -7.7802    7.4875 H   0  0  0  0  0  0  0  0  0  0  0  0
    1.3057   -6.5265    7.6694 H   0  0  0  0  0  0  0  0  0  0  0  0
    2.9244   -6.0743    7.5460 H   0  0  0  0  0  0  0  0  0  0  0  0
    2.9598   -5.0043    5.6098 H   0  0  0  0  0  0  0  0  0  0  0  0
   -1.0958   -6.8084    5.5993 H   0  0  0  0  0  0  0  0  0  0  0  0
    1.5619   -9.1596    6.1368 H   0  0  0  0  0  0  0  0  0  0  0  0
   -0.4752  -10.4399    6.7811 H   0  0  0  0  0  0  0  0  0  0  0  0
   -1.4974   -9.1618    6.1334 H   0  0  0  0  0  0  0  0  0  0  0  0
   -0.5221   -8.8771    7.5786 H   0  0  0  0  0  0  0  0  0  0  0  0
   -1.5739   -8.7954    3.8974 H   0  0  0  0  0  0  0  0  0  0  0  0
    3.8281   -6.3401    0.5574 H   0  0  0  0  0  0  0  0  0  0  0  0
    2.4785   -5.6366   -0.7935 H   0  0  0  0  0  0  0  0  0  0  0  0
    1.9861   -3.3797    0.9539 H   0  0  0  0  0  0  0  0  0  0  0  0
    3.1708   -9.1557    2.6306 H   0  0  0  0  0  0  0  0  0  0  0  0
    4.4763   -9.6170    1.0861 H   0  0  0  0  0  0  0  0  0  0  0  0
    4.0667  -10.0519    4.3273 H   0  0  0  0  0  0  0  0  0  0  0  0
    4.3930  -11.1111    2.3768 H   0  0  0  0  0  0  0  0  0  0  0  0
  1  2  1  0
  1 46  1  0
  1 47  1  0
  1 48  1  0
  2 39  1  0
  2  3  2  0
  3  4  1  0
  3 49  1  0
  4 37  1  0
  4  5  1  0
  4 50  1  1
  5 41  1  0
  5  6  1  0
  5 51  1  1
  6  7  2  0
  6  8  1  1
  8  9  1  0
  8 52  1  0
  8 53  1  0
  9 11  1  0
  9 10  1  0
  9 54  1  6
 10 11  1  0
 11 12  1  6
 11 13  1  0
 12 55  1  0
 13 44  1  0
 13 14  1  1
 13 15  1  0
 14 56  1  0
 14 57  1  0
 14 58  1  0
 15 16  1  0
 16 17  1  0
 16 18  1  0
 16 59  1  1
 17 60  1  0
 18 41  1  0
 18 19  1  0
 18 61  1  6
 19 20  1  0
 19 21  1  1
 19 22  1  0
 20 62  1  0
 20 63  1  0
 20 64  1  0
 21 65  1  0
 22 28  1  0
 22 23  1  1
 22 24  1  0
 23 66  1  0
 24 25  1  0
 24 26  1  0
 24 67  1  1
 25 68  1  0
 25 69  1  0
 25 70  1  0
 26 27  2  0
 26 28  1  0
 28 29  1  1
 28 30  1  0
 29 71  1  0
 30 34  1  0
 30 31  1  6
 30 32  1  0
 33 32  1  1
 33 34  1  0
 33 35  1  0
 41 33  1  6
 35 36  1  0
 35 37  1  0
 35 72  1  6
 36 73  1  0
 37 38  1  1
 37 39  1  0
 38 74  1  0
 39 40  2  0
 41 42  1  0
 42 43  1  0
 42 44  1  0
 42 75  1  6
 43 76  1  0
 44 45  1  0
 44 77  1  1
 45 78  1  0
M  CHG  1  31  -1
M  END
>  <i_m_ct_stereo_status>  (39) 
1

>  <s_m_source_file>  (39) 
/var/tmp/pbs.5075288.sched01/tmpeqwi9iw0/66la8jmv2o.sdf

>  <i_m_source_file_index>  (39) 
10

>  <i_lp_mmshare_version>  (39) 
48012

>  <i_f3d_flags>  (39) 
0

>  <s_epik_input>  (39) 
W0NIM11DKD1bQ0hdMSlDKD1PKVtDQEBdKFtPSF0pKFtDQEBIXTJbT0hdKVtDQEhdMVtDQEBIXShbQ0BdMzRbQ0BdMjU2KVtTK10oW08tXSlbQ0gyXVtDQEBIXTdbQ0BdKE83KShbT0hdKVtDQF0oW0NIM10pKFtDQEhdKFtPSF0pW0NAQEhdNFtPSF0pT1tDQEBIXShbT0hdKVtDQEhdM1tDQEBdKFtDSDNdKShbT0hdKVtDQEBdOChbT0hdKVtDQEBdKFtPSF0pKFtDQEBdKE81KShPNilbT0hdKUMoPU8pW0NAQEhdOFtDSDNd

>  <s_epik_cmdline>  (39) 
J2VwaWtfcHl0aG9uJywgJy1waHQnLCAnMi4wJywgJy1waCcsICc3LjAnLCAnLXRuJywgJzgnLCAnLW1hJywgJzIwMCcsICctaW1hZScsICc8aW5maWxlLm1hZT4nLCAnLW9tYWUnLCAnPG91dGZpbGUubWFlPic=

>  <r_epik_Ionization_Penalty>  (39) 
1.80228

>  <r_epik_Ionization_Penalty_Charging>  (39) 
1.802

>  <r_epik_Ionization_Penalty_Neutral>  (39) 
0.000281518

>  <r_epik_State_Penalty>  (39) 
1.91577

>  <r_epik_Charging_Adjusted_Penalty>  (39) 
3.71777

>  <i_epik_Tot_Q>  (39) 
-1

>  <i_epik_Tot_abs_Q>  (39) 
3

>  <s_epik_Chemistry_Notes>  (39) 
This compound contains an acetal/aminal-like group ( X-CH(R)-Y where X, Y are N, S, or O) that may be acid/base labile, releasing an aldehyde.

>  <s_lp_Force_Field>  (39) 
OPLS3e

>  <r_lp_Energy>  (39) 
127.252

>  <b_lp_Chiralities_Consistent>  (39) 
1

>  <s_lp_Variant>  (39) 
30:0-2

>  <s_i_glide_gridfile>  (39) 
pfpi4k_grid

>  <i_i_glide_lignum>  (39) 
10

>  <i_i_glide_rotatable_bonds>  (39) 
9

>  <r_i_docking_score>  (39) 
-4.19102

>  <r_i_glide_ligand_efficiency>  (39) 
-0.0931338

>  <r_i_glide_ligand_efficiency_sa>  (39) 
-0.331267

>  <r_i_glide_ligand_efficiency_ln>  (39) 
-0.871919

>  <r_i_glide_gscore>  (39) 
-4.19102

>  <r_i_glide_lipo>  (39) 
-0.191135

>  <r_i_glide_hbond>  (39) 
-0.265846

>  <r_i_glide_metal>  (39) 
-0

>  <r_i_glide_rewards>  (39) 
-0.624074

>  <r_i_glide_evdw>  (39) 
-27.1567

>  <r_i_glide_ecoul>  (39) 
-11.0039

>  <r_i_glide_erotb>  (39) 
0

>  <r_i_glide_esite>  (39) 
-0.101544

>  <r_i_glide_emodel>  (39) 
-53.1389

>  <r_i_glide_energy>  (39) 
-38.1606

>  <r_i_glide_einternal>  (39) 
8.22363

>  <r_i_glide_intrahb_reward>  (39) 
-0.5

>  <i_i_glide_confnum>  (39) 
1

>  <i_i_glide_posenum>  (39) 
1

>  <r_i_glide_eff_state_penalty>  (39) 
0

>  <ligand_id>  (39) 
30

>  <original_smiles>  (39) 
CC1=CC2C3[S+]([O-])CC4OC4(O)C4(C)OC(O)C5C(C)(O)C6(O)C(C)C(=O)C6(O)C6(O)OC(O6)(C(O)C2(O)C1=O)C35C(O)C4O

>  <smiles>  (39) 
[H]OC1([H])OC2(C([H])([H])[H])C([H])(O[H])C([H])(O[H])C34C5(OC([O-])(O5)C5(O[H])C(=O)C([H])(C([H])([H])[H])C5(O[H])C(O[H])(C([H])([H])[H])C13[H])C([H])(O[H])C1(O[H])C(=O)C(C([H])([H])[H])=C([H])C1([H])C4([H])S(=O)C([H])([H])C1([H])OC12O[H]

$$$$
30:1:1
     RDKit          3D

 78 85  0  0  1  0  0  0  0  0999 V2000
    6.2710   -2.0590    0.6739 C   0  0  0  0  0  0  0  0  0  0  0  0
    5.3659   -3.1099    1.2918 C   0  0  0  0  0  0  0  0  0  0  0  0
    5.3969   -3.6351    2.5200 C   0  0  0  0  0  0  0  0  0  0  0  0
    4.3188   -4.6712    2.7833 C   0  0  2  0  0  0  0  0  0  0  0  0
    4.8549   -6.1144    3.0842 C   0  0  2  0  0  0  0  0  0  0  0  0
    6.2624   -6.6377    1.9490 S   0  0  0  0  0  0  0  0  0  0  0  0
    6.5569   -5.6293    0.8398 O   0  0  0  0  0  0  0  0  0  0  0  0
    7.7094   -6.6909    3.1076 C   0  0  0  0  0  0  0  0  0  0  0  0
    8.1785   -8.1304    3.1532 C   0  0  1  0  0  0  0  0  0  0  0  0
    8.4259   -8.6613    4.4578 O   0  0  0  0  0  0  0  0  0  0  0  0
    7.3871   -9.3120    3.7144 C   0  0  2  0  0  0  0  0  0  0  0  0
    7.8085  -10.5495    3.1918 O   0  0  0  0  0  0  0  0  0  0  0  0
    6.0445   -9.3618    4.4787 C   0  0  1  0  0  0  0  0  0  0  0  0
    6.2463  -10.3154    5.6876 C   0  0  0  0  0  0  0  0  0  0  0  0
    5.8187   -8.0215    4.8955 O   0  0  0  0  0  0  0  0  0  0  0  0
    4.7483   -7.6265    5.6983 C   0  0  1  0  0  0  0  0  0  0  0  0
    5.1228   -6.4193    6.3306 O   0  0  0  0  0  0  0  0  0  0  0  0
    3.4016   -7.4851    4.8481 C   0  0  1  0  0  0  0  0  0  0  0  0
    2.2118   -6.8114    5.7094 C   0  0  1  0  0  0  0  0  0  0  0  0
    2.4572   -6.8937    7.2592 C   0  0  0  0  0  0  0  0  0  0  0  0
    2.2061   -5.4129    5.5134 O   0  0  0  0  0  0  0  0  0  0  0  0
    0.7629   -7.4305    5.5097 C   0  0  2  0  0  0  0  0  0  0  0  0
   -0.0773   -6.5699    6.2425 O   0  0  0  0  0  0  0  0  0  0  0  0
    0.7183   -8.9225    5.9411 C   0  0  1  0  0  0  0  0  0  0  0  0
   -0.3736   -9.4416    6.8762 C   0  0  0  0  0  0  0  0  0  0  0  0
    0.5276   -9.2533    4.4415 C   0  0  0  0  0  0  0  0  0  0  0  0
    0.8130  -10.2340    3.7630 O   0  0  0  0  0  0  0  0  0  0  0  0
    0.0568   -7.8110    4.1545 C   0  0  1  0  0  0  0  0  0  0  0  0
   -1.3579   -7.9370    4.2575 O   0  0  0  0  0  0  0  0  0  0  0  0
    0.5202   -7.1424    2.8221 C   0  0  1  0  0  0  0  0  0  0  0  0
   -0.4425   -6.6642    2.0787 O   0  0  0  0  0  0  0  0  0  0  0  0
    1.4931   -6.1358    3.1120 O   0  0  0  0  0  0  0  0  0  0  0  0
    2.5015   -6.8016    2.3578 C   0  0  1  0  0  0  0  0  0  0  0  0
    1.5267   -7.8225    2.0596 O   0  0  0  0  0  0  0  0  0  0  0  0
    2.8940   -5.9443    1.1159 C   0  0  1  0  0  0  0  0  0  0  0  0
    1.9110   -5.8425    0.0907 O   0  0  0  0  0  0  0  0  0  0  0  0
    3.3925   -4.5396    1.5570 C   0  0  1  0  0  0  0  0  0  0  0  0
    2.3048   -3.7135    1.9501 O   0  0  0  0  0  0  0  0  0  0  0  0
    4.2490   -3.7299    0.5704 C   0  0  0  0  0  0  0  0  0  0  0  0
    3.9796   -3.6058   -0.6237 O   0  0  0  0  0  0  0  0  0  0  0  0
    3.7202   -7.2597    3.2613 C   0  0  1  0  0  0  0  0  0  0  0  0
    4.0716   -8.7409    2.7305 C   0  0  1  0  0  0  0  0  0  0  0  0
    4.4582   -8.8346    1.3663 O   0  0  0  0  0  0  0  0  0  0  0  0
    4.8200   -9.7939    3.6223 C   0  0  1  0  0  0  0  0  0  0  0  0
    5.0900  -10.9657    2.8765 O   0  0  0  0  0  0  0  0  0  0  0  0
    6.6424   -2.4283   -0.2785 H   0  0  0  0  0  0  0  0  0  0  0  0
    7.1320   -1.8191    1.2972 H   0  0  0  0  0  0  0  0  0  0  0  0
    5.7209   -1.1377    0.4893 H   0  0  0  0  0  0  0  0  0  0  0  0
    6.1020   -3.3501    3.2782 H   0  0  0  0  0  0  0  0  0  0  0  0
    3.7845   -4.3304    3.6718 H   0  0  0  0  0  0  0  0  0  0  0  0
    5.3790   -5.9248    4.0024 H   0  0  0  0  0  0  0  0  0  0  0  0
    8.5075   -6.0734    2.7038 H   0  0  0  0  0  0  0  0  0  0  0  0
    7.4927   -6.3361    4.1113 H   0  0  0  0  0  0  0  0  0  0  0  0
    8.9761   -8.3404    2.4445 H   0  0  0  0  0  0  0  0  0  0  0  0
    7.5540  -11.2491    3.7903 H   0  0  0  0  0  0  0  0  0  0  0  0
    6.5040  -11.3167    5.3517 H   0  0  0  0  0  0  0  0  0  0  0  0
    5.3562  -10.4344    6.2947 H   0  0  0  0  0  0  0  0  0  0  0  0
    7.0584   -9.9953    6.3378 H   0  0  0  0  0  0  0  0  0  0  0  0
    4.6512   -8.3480    6.5163 H   0  0  0  0  0  0  0  0  0  0  0  0
    5.3328   -5.7813    5.6642 H   0  0  0  0  0  0  0  0  0  0  0  0
    3.0365   -8.4980    4.8656 H   0  0  0  0  0  0  0  0  0  0  0  0
    2.7299   -7.8911    7.5918 H   0  0  0  0  0  0  0  0  0  0  0  0
    1.5919   -6.6259    7.8570 H   0  0  0  0  0  0  0  0  0  0  0  0
    3.1958   -6.1925    7.6316 H   0  0  0  0  0  0  0  0  0  0  0  0
    3.0657   -5.0905    5.7409 H   0  0  0  0  0  0  0  0  0  0  0  0
    0.1753   -5.7114    5.9320 H   0  0  0  0  0  0  0  0  0  0  0  0
    1.7021   -9.2374    6.2883 H   0  0  0  0  0  0  0  0  0  0  0  0
   -0.2945  -10.5135    7.0468 H   0  0  0  0  0  0  0  0  0  0  0  0
   -1.3695   -9.2519    6.4928 H   0  0  0  0  0  0  0  0  0  0  0  0
   -0.2780   -8.9511    7.8462 H   0  0  0  0  0  0  0  0  0  0  0  0
   -1.5267   -8.8712    4.1901 H   0  0  0  0  0  0  0  0  0  0  0  0
    3.7153   -6.4422    0.6077 H   0  0  0  0  0  0  0  0  0  0  0  0
    2.3417   -5.6032   -0.7158 H   0  0  0  0  0  0  0  0  0  0  0  0
    2.6358   -2.8613    2.1966 H   0  0  0  0  0  0  0  0  0  0  0  0
    3.1135   -9.2570    2.6968 H   0  0  0  0  0  0  0  0  0  0  0  0
    4.3178   -9.7254    1.0665 H   0  0  0  0  0  0  0  0  0  0  0  0
    4.0987  -10.1610    4.3474 H   0  0  0  0  0  0  0  0  0  0  0  0
    4.3398  -11.2079    2.3451 H   0  0  0  0  0  0  0  0  0  0  0  0
  1  2  1  0
  1 46  1  0
  1 47  1  0
  1 48  1  0
  2 39  1  0
  2  3  2  0
  3  4  1  0
  3 49  1  0
  4 37  1  0
  4  5  1  0
  4 50  1  1
  5 41  1  0
  5  6  1  0
  5 51  1  1
  6  7  2  0
  6  8  1  1
  8  9  1  0
  8 52  1  0
  8 53  1  0
  9 11  1  0
  9 10  1  0
  9 54  1  6
 10 11  1  0
 11 12  1  6
 11 13  1  0
 12 55  1  0
 13 44  1  0
 13 14  1  1
 13 15  1  0
 14 56  1  0
 14 57  1  0
 14 58  1  0
 15 16  1  0
 16 17  1  0
 16 18  1  0
 16 59  1  1
 17 60  1  0
 18 41  1  0
 18 19  1  0
 18 61  1  6
 19 20  1  0
 19 21  1  6
 19 22  1  0
 20 62  1  0
 20 63  1  0
 20 64  1  0
 21 65  1  0
 22 28  1  0
 22 23  1  1
 22 24  1  0
 23 66  1  0
 24 25  1  0
 24 26  1  0
 24 67  1  1
 25 68  1  0
 25 69  1  0
 25 70  1  0
 26 27  2  0
 26 28  1  0
 28 29  1  1
 28 30  1  0
 29 71  1  0
 30 34  1  0
 30 31  1  6
 30 32  1  0
 33 32  1  1
 33 34  1  0
 33 35  1  0
 41 33  1  6
 35 36  1  0
 35 37  1  0
 35 72  1  6
 36 73  1  0
 37 38  1  1
 37 39  1  0
 38 74  1  0
 39 40  2  0
 41 42  1  0
 42 43  1  0
 42 44  1  0
 42 75  1  6
 43 76  1  0
 44 45  1  0
 44 77  1  1
 45 78  1  0
M  CHG  1  31  -1
M  END
>  <i_m_ct_stereo_status>  (40) 
1

>  <s_m_source_file>  (40) 
/var/tmp/pbs.5075288.sched01/tmpeqwi9iw0/66la8jmv2o.sdf

>  <i_m_source_file_index>  (40) 
10

>  <i_lp_mmshare_version>  (40) 
48012

>  <i_f3d_flags>  (40) 
0

>  <s_epik_input>  (40) 
W0NIM11DKD1bQ0hdMSlDKD1PKVtDQEBdKFtPSF0pKFtDQEBIXTJbT0hdKVtDQEhdMVtDQEBIXShbQ0BdMzRbQ0BdMjU2KVtTK10oW08tXSlbQ0gyXVtDQEBIXTdbQ0BdKE83KShbT0hdKVtDQF0oW0NIM10pKFtDQEhdKFtPSF0pW0NAQEhdNFtPSF0pT1tDQEBIXShbT0hdKVtDQEhdM1tDQEBdKFtDSDNdKShbT0hdKVtDQEBdOChbT0hdKVtDQEBdKFtPSF0pKFtDQEBdKE81KShPNilbT0hdKUMoPU8pW0NAQEhdOFtDSDNd

>  <s_epik_cmdline>  (40) 
J2VwaWtfcHl0aG9uJywgJy1waHQnLCAnMi4wJywgJy1waCcsICc3LjAnLCAnLXRuJywgJzgnLCAnLW1hJywgJzIwMCcsICctaW1hZScsICc8aW5maWxlLm1hZT4nLCAnLW9tYWUnLCAnPG91dGZpbGUubWFlPic=

>  <r_epik_Ionization_Penalty>  (40) 
1.80228

>  <r_epik_Ionization_Penalty_Charging>  (40) 
1.802

>  <r_epik_Ionization_Penalty_Neutral>  (40) 
0.000281518

>  <r_epik_State_Penalty>  (40) 
1.91577

>  <r_epik_Charging_Adjusted_Penalty>  (40) 
3.71777

>  <i_epik_Tot_Q>  (40) 
-1

>  <i_epik_Tot_abs_Q>  (40) 
3

>  <s_epik_Chemistry_Notes>  (40) 
This compound contains an acetal/aminal-like group ( X-CH(R)-Y where X, Y are N, S, or O) that may be acid/base labile, releasing an aldehyde.

>  <s_lp_Force_Field>  (40) 
OPLS3e

>  <r_lp_Energy>  (40) 
127.252

>  <b_lp_Chiralities_Consistent>  (40) 
1

>  <s_lp_Variant>  (40) 
30:0-2

>  <s_i_glide_gridfile>  (40) 
pfpi4k_grid

>  <i_i_glide_lignum>  (40) 
10

>  <i_i_glide_rotatable_bonds>  (40) 
9

>  <r_i_docking_score>  (40) 
-3.73646

>  <r_i_glide_ligand_efficiency>  (40) 
-0.0830324

>  <r_i_glide_ligand_efficiency_sa>  (40) 
-0.295337

>  <r_i_glide_ligand_efficiency_ln>  (40) 
-0.77735

>  <r_i_glide_gscore>  (40) 
-3.73646

>  <r_i_glide_lipo>  (40) 
-0.177521

>  <r_i_glide_hbond>  (40) 
-0.2

>  <r_i_glide_metal>  (40) 
-0

>  <r_i_glide_rewards>  (40) 
-0.14755

>  <r_i_glide_evdw>  (40) 
-26.9107

>  <r_i_glide_ecoul>  (40) 
-11.7753

>  <r_i_glide_erotb>  (40) 
0

>  <r_i_glide_esite>  (40) 
-0.0995487

>  <r_i_glide_emodel>  (40) 
-47.412

>  <r_i_glide_energy>  (40) 
-38.6861

>  <r_i_glide_einternal>  (40) 
7.87462

>  <r_i_glide_intrahb_reward>  (40) 
-0

>  <i_i_glide_confnum>  (40) 
1

>  <i_i_glide_posenum>  (40) 
30

>  <r_i_glide_eff_state_penalty>  (40) 
0

>  <ligand_id>  (40) 
30

>  <original_smiles>  (40) 
CC1=CC2C3[S+]([O-])CC4OC4(O)C4(C)OC(O)C5C(C)(O)C6(O)C(C)C(=O)C6(O)C6(O)OC(O6)(C(O)C2(O)C1=O)C35C(O)C4O

>  <smiles>  (40) 
[H]OC1([H])OC2(C([H])([H])[H])C([H])(O[H])C([H])(O[H])C34C5(OC([O-])(O5)C5(O[H])C(=O)C([H])(C([H])([H])[H])C5(O[H])C(O[H])(C([H])([H])[H])C13[H])C([H])(O[H])C1(O[H])C(=O)C(C([H])([H])[H])=C([H])C1([H])C4([H])S(=O)C([H])([H])C1([H])OC12O[H]

$$$$
30:1:2
     RDKit          3D

 78 85  0  0  1  0  0  0  0  0999 V2000
   -1.5235    2.3570    9.4147 C   0  0  0  0  0  0  0  0  0  0  0  0
   -0.6358    1.7698    8.3384 C   0  0  0  0  0  0  0  0  0  0  0  0
    0.0727    0.6358    8.3502 C   0  0  0  0  0  0  0  0  0  0  0  0
    0.8616    0.3943    7.0725 C   0  0  2  0  0  0  0  0  0  0  0  0
    2.4181    0.3214    7.2787 C   0  0  2  0  0  0  0  0  0  0  0  0
    3.0790    1.6580    8.4220 S   0  0  0  0  0  0  0  0  0  0  0  0
    2.0099    2.6612    8.8575 O   0  0  0  0  0  0  0  0  0  0  0  0
    3.6127    0.6765    9.9010 C   0  0  0  0  0  0  0  0  0  0  0  0
    5.1051    0.8619   10.0354 C   0  0  1  0  0  0  0  0  0  0  0  0
    5.8567   -0.3202   10.2533 O   0  0  0  0  0  0  0  0  0  0  0  0
    6.1598    0.3948    9.0529 C   0  0  2  0  0  0  0  0  0  0  0  0
    7.3189    1.1858    9.1364 O   0  0  0  0  0  0  0  0  0  0  0  0
    6.0348   -0.4961    7.7745 C   0  0  1  0  0  0  0  0  0  0  0  0
    7.1575   -1.5619    7.8201 C   0  0  0  0  0  0  0  0  0  0  0  0
    4.7610   -1.1116    7.9019 O   0  0  0  0  0  0  0  0  0  0  0  0
    4.2424   -2.0608    7.0027 C   0  0  1  0  0  0  0  0  0  0  0  0
    3.2684   -2.8061    7.6939 O   0  0  0  0  0  0  0  0  0  0  0  0
    3.6763   -1.3916    5.6713 C   0  0  1  0  0  0  0  0  0  0  0  0
    2.8720   -2.4325    4.7292 C   0  0  1  0  0  0  0  0  0  0  0  0
    3.2192   -3.9330    5.0471 C   0  0  0  0  0  0  0  0  0  0  0  0
    1.5013   -2.3300    5.0547 O   0  0  0  0  0  0  0  0  0  0  0  0
    3.1190   -2.3116    3.1656 C   0  0  2  0  0  0  0  0  0  0  0  0
    2.2283   -3.2022    2.5348 O   0  0  0  0  0  0  0  0  0  0  0  0
    4.6117   -2.5591    2.7917 C   0  0  1  0  0  0  0  0  0  0  0  0
    4.9817   -3.5378    1.6633 C   0  0  0  0  0  0  0  0  0  0  0  0
    4.6917   -1.0652    2.4419 C   0  0  0  0  0  0  0  0  0  0  0  0
    5.6187   -0.2705    2.4405 O   0  0  0  0  0  0  0  0  0  0  0  0
    3.1544   -0.9893    2.3084 C   0  0  1  0  0  0  0  0  0  0  0  0
    2.9526   -1.1966    0.9187 O   0  0  0  0  0  0  0  0  0  0  0  0
    2.4400    0.2534    2.8664 C   0  0  1  0  0  0  0  0  0  0  0  0
    1.6697    0.8873    1.9528 O   0  0  0  0  0  0  0  0  0  0  0  0
    1.6596   -0.0272    4.0214 O   0  0  0  0  0  0  0  0  0  0  0  0
    2.4455    0.8825    4.8120 C   0  0  1  0  0  0  0  0  0  0  0  0
    3.2026    1.1898    3.6186 O   0  0  0  0  0  0  0  0  0  0  0  0
    1.5345    2.0558    5.2847 C   0  0  1  0  0  0  0  0  0  0  0  0
    1.0912    2.9026    4.2459 O   0  0  0  0  0  0  0  0  0  0  0  0
    0.3480    1.4935    6.1119 C   0  0  1  0  0  0  0  0  0  0  0  0
   -0.6124    0.8908    5.2550 O   0  0  0  0  0  0  0  0  0  0  0  0
   -0.4024    2.4507    7.0540 C   0  0  0  0  0  0  0  0  0  0  0  0
   -0.7601    3.5868    6.7447 O   0  0  0  0  0  0  0  0  0  0  0  0
    3.2998    0.1732    5.9291 C   0  0  1  0  0  0  0  0  0  0  0  0
    4.7272    0.9211    5.8785 C   0  0  1  0  0  0  0  0  0  0  0  0
    4.6816    2.3191    6.1003 O   0  0  0  0  0  0  0  0  0  0  0  0
    6.0473    0.2642    6.4185 C   0  0  1  0  0  0  0  0  0  0  0  0
    7.1282    1.1651    6.3025 O   0  0  0  0  0  0  0  0  0  0  0  0
   -1.2237    3.3804    9.6252 H   0  0  0  0  0  0  0  0  0  0  0  0
   -1.4706    1.7946   10.3442 H   0  0  0  0  0  0  0  0  0  0  0  0
   -2.5575    2.3694    9.0849 H   0  0  0  0  0  0  0  0  0  0  0  0
    0.0952   -0.0644    9.1707 H   0  0  0  0  0  0  0  0  0  0  0  0
    0.5401   -0.5788    6.7000 H   0  0  0  0  0  0  0  0  0  0  0  0
    2.4787   -0.5592    7.8865 H   0  0  0  0  0  0  0  0  0  0  0  0
    3.1239    1.0689   10.7839 H   0  0  0  0  0  0  0  0  0  0  0  0
    3.3676   -0.3840    9.8387 H   0  0  0  0  0  0  0  0  0  0  0  0
    5.3917    1.7123   10.6683 H   0  0  0  0  0  0  0  0  0  0  0  0
    8.0754    0.6373    8.9246 H   0  0  0  0  0  0  0  0  0  0  0  0
    8.1321   -1.0969    7.8138 H   0  0  0  0  0  0  0  0  0  0  0  0
    7.1472   -2.2393    6.9690 H   0  0  0  0  0  0  0  0  0  0  0  0
    7.1079   -2.1726    8.7159 H   0  0  0  0  0  0  0  0  0  0  0  0
    5.0204   -2.7897    6.7762 H   0  0  0  0  0  0  0  0  0  0  0  0
    2.5439   -2.2307    7.9154 H   0  0  0  0  0  0  0  0  0  0  0  0
    4.5632   -1.3205    5.0644 H   0  0  0  0  0  0  0  0  0  0  0  0
    4.2942   -4.1072    5.0984 H   0  0  0  0  0  0  0  0  0  0  0  0
    2.8514   -4.6312    4.2991 H   0  0  0  0  0  0  0  0  0  0  0  0
    2.7569   -4.3013    5.9580 H   0  0  0  0  0  0  0  0  0  0  0  0
    1.2124   -1.4888    4.6985 H   0  0  0  0  0  0  0  0  0  0  0  0
    2.3484   -3.0278    1.6144 H   0  0  0  0  0  0  0  0  0  0  0  0
    5.2028   -2.7700    3.6859 H   0  0  0  0  0  0  0  0  0  0  0  0
    6.0582   -3.5519    1.4773 H   0  0  0  0  0  0  0  0  0  0  0  0
    4.4732   -3.3270    0.7228 H   0  0  0  0  0  0  0  0  0  0  0  0
    4.6944   -4.5518    1.9600 H   0  0  0  0  0  0  0  0  0  0  0  0
    2.0704   -0.8556    0.7084 H   0  0  0  0  0  0  0  0  0  0  0  0
    2.1075    2.7197    5.9268 H   0  0  0  0  0  0  0  0  0  0  0  0
    0.7458    2.3844    3.5184 H   0  0  0  0  0  0  0  0  0  0  0  0
   -0.1424    0.4685    4.5379 H   0  0  0  0  0  0  0  0  0  0  0  0
    5.0306    0.9225    4.8327 H   0  0  0  0  0  0  0  0  0  0  0  0
    4.1544    2.7159    5.4149 H   0  0  0  0  0  0  0  0  0  0  0  0
    6.3277   -0.4980    5.6892 H   0  0  0  0  0  0  0  0  0  0  0  0
    7.9289    0.6848    6.4579 H   0  0  0  0  0  0  0  0  0  0  0  0
  1  2  1  0
  1 46  1  0
  1 47  1  0
  1 48  1  0
  2 39  1  0
  2  3  2  0
  3  4  1  0
  3 49  1  0
  4 37  1  0
  4  5  1  0
  4 50  1  6
  5 41  1  0
  5  6  1  0
  5 51  1  1
  6  7  2  0
  6  8  1  1
  8  9  1  0
  8 52  1  0
  8 53  1  0
  9 11  1  0
  9 10  1  0
  9 54  1  1
 10 11  1  0
 11 12  1  1
 11 13  1  0
 12 55  1  0
 13 44  1  0
 13 14  1  6
 13 15  1  0
 14 56  1  0
 14 57  1  0
 14 58  1  0
 15 16  1  0
 16 17  1  0
 16 18  1  0
 16 59  1  6
 17 60  1  0
 18 41  1  0
 18 19  1  0
 18 61  1  6
 19 20  1  0
 19 21  1  6
 19 22  1  0
 20 62  1  0
 20 63  1  0
 20 64  1  0
 21 65  1  0
 22 28  1  0
 22 23  1  6
 22 24  1  0
 23 66  1  0
 24 25  1  0
 24 26  1  0
 24 67  1  1
 25 68  1  0
 25 69  1  0
 25 70  1  0
 26 27  2  0
 26 28  1  0
 28 29  1  6
 28 30  1  0
 29 71  1  0
 30 34  1  0
 30 31  1  6
 30 32  1  0
 33 32  1  6
 33 34  1  0
 33 35  1  0
 41 33  1  6
 35 36  1  0
 35 37  1  0
 35 72  1  1
 36 73  1  0
 37 38  1  6
 37 39  1  0
 38 74  1  0
 39 40  2  0
 41 42  1  0
 42 43  1  0
 42 44  1  0
 42 75  1  6
 43 76  1  0
 44 45  1  0
 44 77  1  6
 45 78  1  0
M  CHG  1  31  -1
M  END
>  <i_m_ct_stereo_status>  (41) 
1

>  <s_m_source_file>  (41) 
/var/tmp/pbs.5075288.sched01/tmpeqwi9iw0/66la8jmv2o.sdf

>  <i_m_source_file_index>  (41) 
10

>  <i_lp_mmshare_version>  (41) 
48012

>  <i_f3d_flags>  (41) 
0

>  <s_epik_input>  (41) 
W0NIM11DKD1bQ0hdMSlDKD1PKVtDQEBdKFtPSF0pKFtDQEBIXTJbT0hdKVtDQEhdMVtDQEBIXShbQ0BdMzRbQ0BdMjU2KVtTK10oW08tXSlbQ0gyXVtDQEBIXTdbQ0BdKE83KShbT0hdKVtDQF0oW0NIM10pKFtDQEhdKFtPSF0pW0NAQEhdNFtPSF0pT1tDQEBIXShbT0hdKVtDQEhdM1tDQEBdKFtDSDNdKShbT0hdKVtDQEBdOChbT0hdKVtDQEBdKFtPSF0pKFtDQEBdKE81KShPNilbT0hdKUMoPU8pW0NAQEhdOFtDSDNd

>  <s_epik_cmdline>  (41) 
J2VwaWtfcHl0aG9uJywgJy1waHQnLCAnMi4wJywgJy1waCcsICc3LjAnLCAnLXRuJywgJzgnLCAnLW1hJywgJzIwMCcsICctaW1hZScsICc8aW5maWxlLm1hZT4nLCAnLW9tYWUnLCAnPG91dGZpbGUubWFlPic=

>  <r_epik_Ionization_Penalty>  (41) 
1.80228

>  <r_epik_Ionization_Penalty_Charging>  (41) 
1.802

>  <r_epik_Ionization_Penalty_Neutral>  (41) 
0.000281518

>  <r_epik_State_Penalty>  (41) 
1.91577

>  <r_epik_Charging_Adjusted_Penalty>  (41) 
3.71777

>  <i_epik_Tot_Q>  (41) 
-1

>  <i_epik_Tot_abs_Q>  (41) 
3

>  <s_epik_Chemistry_Notes>  (41) 
This compound contains an acetal/aminal-like group ( X-CH(R)-Y where X, Y are N, S, or O) that may be acid/base labile, releasing an aldehyde.

>  <s_lp_Force_Field>  (41) 
OPLS3e

>  <r_lp_Energy>  (41) 
127.252

>  <b_lp_Chiralities_Consistent>  (41) 
1

>  <s_lp_Variant>  (41) 
30:0-2

>  <s_i_glide_gridfile>  (41) 
pfpi4k_grid

>  <i_i_glide_lignum>  (41) 
10

>  <i_i_glide_rotatable_bonds>  (41) 
9

>  <r_i_docking_score>  (41) 
-3.22168

>  <r_i_glide_ligand_efficiency>  (41) 
-0.0715929

>  <r_i_glide_ligand_efficiency_sa>  (41) 
-0.254648

>  <r_i_glide_ligand_efficiency_ln>  (41) 
-0.670253

>  <r_i_glide_gscore>  (41) 
-3.22168

>  <r_i_glide_lipo>  (41) 
-0.180507

>  <r_i_glide_hbond>  (41) 
-0.188987

>  <r_i_glide_metal>  (41) 
-0

>  <r_i_glide_rewards>  (41) 
-1.60104

>  <r_i_glide_evdw>  (41) 
-21.7646

>  <r_i_glide_ecoul>  (41) 
-1.03535

>  <r_i_glide_erotb>  (41) 
0

>  <r_i_glide_esite>  (41) 
-0.00761681

>  <r_i_glide_emodel>  (41) 
-46.4908

>  <r_i_glide_energy>  (41) 
-22.8

>  <r_i_glide_einternal>  (41) 
1.12261

>  <r_i_glide_intrahb_reward>  (41) 
-1.5

>  <i_i_glide_confnum>  (41) 
1

>  <i_i_glide_posenum>  (41) 
11

>  <r_i_glide_eff_state_penalty>  (41) 
0

>  <ligand_id>  (41) 
30

>  <original_smiles>  (41) 
CC1=CC2C3[S+]([O-])CC4OC4(O)C4(C)OC(O)C5C(C)(O)C6(O)C(C)C(=O)C6(O)C6(O)OC(O6)(C(O)C2(O)C1=O)C35C(O)C4O

>  <smiles>  (41) 
[H]OC1([H])OC2(C([H])([H])[H])C([H])(O[H])C([H])(O[H])C34C5(OC([O-])(O5)C5(O[H])C(=O)C([H])(C([H])([H])[H])C5(O[H])C(O[H])(C([H])([H])[H])C13[H])C([H])(O[H])C1(O[H])C(=O)C(C([H])([H])[H])=C([H])C1([H])C4([H])S(=O)C([H])([H])C1([H])OC12O[H]

$$$$
34:0:0
     RDKit          3D

120130  0  0  1  0  0  0  0  0999 V2000
    6.4015    2.8491    6.6675 C   0  0  0  0  0  0  0  0  0  0  0  0
    5.9367    1.7621    5.8494 O   0  0  0  0  0  0  0  0  0  0  0  0
    5.1503    0.6756    6.3080 C   0  0  1  0  0  0  0  0  0  0  0  0
    5.4885    0.3707    7.7878 C   0  0  0  0  0  0  0  0  0  0  0  0
    3.7601    0.8740    6.2678 O   0  0  0  0  0  0  0  0  0  0  0  0
    3.1639    2.1568    6.2929 C   0  0  2  0  0  0  0  0  0  0  0  0
    2.5028    2.5088    7.4711 O   0  0  0  0  0  0  0  0  0  0  0  0
    1.9511    1.4748    8.2715 C   0  0  0  0  0  0  0  0  0  0  0  0
    0.6563    0.8498    7.7191 C   0  0  1  0  0  0  0  0  0  0  0  0
    0.2685   -0.2779    8.7191 C   0  0  0  0  0  0  0  0  0  0  0  0
   -0.4527    1.8804    7.6677 C   0  0  0  0  0  0  0  0  0  0  0  0
   -1.7534    1.3047    7.0995 C   0  0  0  0  0  0  0  0  0  0  0  0
   -1.5876    0.5850    5.7349 C   0  0  1  0  0  0  0  0  0  0  0  0
   -1.8746    1.4992    4.4705 C   0  0  0  0  0  0  0  0  0  0  0  0
   -1.2826    2.9184    4.1477 C   0  0  1  0  0  0  0  0  0  0  0  0
   -2.1409    3.3680    2.9288 C   0  0  0  0  0  0  0  0  0  0  0  0
   -1.4709    4.0038    5.2313 C   0  0  0  0  0  0  0  0  0  0  0  0
   -0.4122    5.1064    5.2079 C   0  0  0  0  0  0  0  0  0  0  0  0
    1.0601    4.6370    5.2970 C   0  0  2  0  0  0  0  0  0  0  0  0
    2.0605    5.8105    5.0060 C   0  0  0  0  0  0  0  0  0  0  0  0
    1.5698    6.9265    4.0655 C   0  0  0  0  0  0  0  0  0  0  0  0
    2.6589    6.4194    6.2877 C   0  0  0  0  0  0  0  0  0  0  0  0
    3.4626    5.0768    4.0645 S   0  0  0  0  0  0  0  0  0  0  0  0
    4.5556    4.7449    5.0808 O   0  0  0  0  0  0  0  0  0  0  0  0
    2.5290    3.5828    3.4892 C   0  0  1  0  0  0  0  0  0  0  0  0
    3.0950    2.2066    3.7949 C   0  0  2  0  0  0  0  0  0  0  0  0
    3.0647    1.1322    2.6762 C   0  0  0  0  0  0  0  0  0  0  0  0
    2.8890   -0.2606    3.2541 C   0  0  0  0  0  0  0  0  0  0  0  0
    3.8841   -1.4150    2.9557 C   0  0  1  0  0  0  0  0  0  0  0  0
    3.4898   -1.9338    1.6936 O   0  0  0  0  0  0  0  0  0  0  0  0
    5.1931   -0.9305    2.8268 O   0  0  0  0  0  0  0  0  0  0  0  0
    5.7787   -0.1341    3.8545 C   0  0  0  0  0  0  0  0  0  0  0  0
    5.4875   -0.5760    5.3191 C   0  0  2  0  0  0  0  0  0  0  0  0
    4.6260   -1.9213    5.4033 C   0  0  1  0  0  0  0  0  0  0  0  0
    4.0649   -2.1045    6.6830 O   0  0  0  0  0  0  0  0  0  0  0  0
    3.9067   -2.5801    4.0841 C   0  0  2  0  0  0  0  0  0  0  0  0
    4.9657   -3.6105    3.5658 C   0  0  0  0  0  0  0  0  0  0  0  0
    2.4793   -3.4467    4.2411 C   0  0  2  0  0  0  0  0  0  0  0  0
    2.2773   -4.4444    3.0504 C   0  0  0  0  0  0  0  0  0  0  0  0
    1.1690   -2.6061    4.2445 C   0  0  0  0  0  0  0  0  0  0  0  0
    0.2145   -2.9091    5.4091 C   0  0  1  0  0  0  0  0  0  0  0  0
    1.1016   -3.6899    6.3897 C   0  0  0  0  0  0  0  0  0  0  0  0
    2.3124   -4.2646    5.5908 C   0  0  1  0  0  0  0  0  0  0  0  0
    2.2126   -5.7881    5.4833 C   0  0  0  0  0  0  0  0  0  0  0  0
    1.0561   -6.5854    5.2995 C   0  0  0  0  0  0  0  0  0  0  0  0
    1.4614   -7.8913    5.2765 C   0  0  0  0  0  0  0  0  0  0  0  0
    2.8069   -7.9692    5.4431 O   0  0  0  0  0  0  0  0  0  0  0  0
    3.2488   -6.6843    5.5661 C   0  0  0  0  0  0  0  0  0  0  0  0
   -0.5510   -1.8018    6.0241 O   0  0  0  0  0  0  0  0  0  0  0  0
   -0.3701   -0.4087    5.6144 C   0  0  2  0  0  0  0  0  0  0  0  0
    0.8696    0.2562    6.2770 C   0  0  2  0  0  0  0  0  0  0  0  0
    1.8331   -0.7221    6.4605 O   0  0  0  0  0  0  0  0  0  0  0  0
    1.1984    1.1513    5.2318 O   0  0  0  0  0  0  0  0  0  0  0  0
    2.2044    2.1748    5.0986 C   0  0  1  0  0  0  0  0  0  0  0  0
    1.3697    3.3657    4.4614 C   0  0  1  0  0  0  0  0  0  0  0  0
    0.1627    2.9391    3.5931 C   0  0  0  0  0  0  0  0  0  0  0  0
    7.0144    3.5043    6.0425 H   0  0  0  0  0  0  0  0  0  0  0  0
    7.0261    2.5072    7.5016 H   0  0  0  0  0  0  0  0  0  0  0  0
    5.5971    3.4571    7.0681 H   0  0  0  0  0  0  0  0  0  0  0  0
    5.2951    1.2514    8.3989 H   0  0  0  0  0  0  0  0  0  0  0  0
    6.5407    0.0969    7.8708 H   0  0  0  0  0  0  0  0  0  0  0  0
    4.8762   -0.4377    8.1883 H   0  0  0  0  0  0  0  0  0  0  0  0
    3.8794    2.9347    6.1635 H   0  0  0  0  0  0  0  0  0  0  0  0
    2.7009    0.7213    8.5034 H   0  0  0  0  0  0  0  0  0  0  0  0
    1.7286    1.9311    9.2373 H   0  0  0  0  0  0  0  0  0  0  0  0
   -0.5537   -0.8858    8.3593 H   0  0  0  0  0  0  0  0  0  0  0  0
   -0.0189    0.1299    9.6924 H   0  0  0  0  0  0  0  0  0  0  0  0
    1.1005   -0.9613    8.9051 H   0  0  0  0  0  0  0  0  0  0  0  0
   -0.6527    2.2819    8.6621 H   0  0  0  0  0  0  0  0  0  0  0  0
   -0.0621    2.7021    7.0833 H   0  0  0  0  0  0  0  0  0  0  0  0
   -2.1401    0.6507    7.8638 H   0  0  0  0  0  0  0  0  0  0  0  0
   -2.5694    2.0252    7.0550 H   0  0  0  0  0  0  0  0  0  0  0  0
   -2.4396   -0.0956    5.6820 H   0  0  0  0  0  0  0  0  0  0  0  0
   -1.7505    0.8715    3.5901 H   0  0  0  0  0  0  0  0  0  0  0  0
   -2.9339    1.7096    4.4761 H   0  0  0  0  0  0  0  0  0  0  0  0
   -1.8619    4.3603    2.5727 H   0  0  0  0  0  0  0  0  0  0  0  0
   -3.2079    3.4069    3.1525 H   0  0  0  0  0  0  0  0  0  0  0  0
   -1.9984    2.6716    2.0973 H   0  0  0  0  0  0  0  0  0  0  0  0
   -2.4385    4.4649    5.0690 H   0  0  0  0  0  0  0  0  0  0  0  0
   -1.5961    3.6544    6.2351 H   0  0  0  0  0  0  0  0  0  0  0  0
   -0.5880    5.6755    4.3011 H   0  0  0  0  0  0  0  0  0  0  0  0
   -0.5901    5.7832    6.0403 H   0  0  0  0  0  0  0  0  0  0  0  0
    1.2138    4.3591    6.3377 H   0  0  0  0  0  0  0  0  0  0  0  0
    0.7902    7.5365    4.5238 H   0  0  0  0  0  0  0  0  0  0  0  0
    1.1899    6.5117    3.1277 H   0  0  0  0  0  0  0  0  0  0  0  0
    2.3874    7.5958    3.8030 H   0  0  0  0  0  0  0  0  0  0  0  0
    1.8900    6.9055    6.8895 H   0  0  0  0  0  0  0  0  0  0  0  0
    3.4102    7.1690    6.0447 H   0  0  0  0  0  0  0  0  0  0  0  0
    3.1479    5.6696    6.9138 H   0  0  0  0  0  0  0  0  0  0  0  0
    2.2566    3.6911    2.4339 H   0  0  0  0  0  0  0  0  0  0  0  0
    4.1308    2.3764    4.0824 H   0  0  0  0  0  0  0  0  0  0  0  0
    2.2429    1.3469    1.9920 H   0  0  0  0  0  0  0  0  0  0  0  0
    3.9227    1.1295    2.0121 H   0  0  0  0  0  0  0  0  0  0  0  0
    2.9029   -0.1851    4.3258 H   0  0  0  0  0  0  0  0  0  0  0  0
    1.9000   -0.5367    2.8957 H   0  0  0  0  0  0  0  0  0  0  0  0
    3.2970   -1.2261    1.1204 H   0  0  0  0  0  0  0  0  0  0  0  0
    6.8539   -0.1937    3.6695 H   0  0  0  0  0  0  0  0  0  0  0  0
    5.5365    0.9049    3.6723 H   0  0  0  0  0  0  0  0  0  0  0  0
    6.4752   -0.8748    5.6807 H   0  0  0  0  0  0  0  0  0  0  0  0
    5.4242   -2.6391    5.5990 H   0  0  0  0  0  0  0  0  0  0  0  0
    4.7326   -1.9899    7.3347 H   0  0  0  0  0  0  0  0  0  0  0  0
    5.0558   -4.4795    4.2184 H   0  0  0  0  0  0  0  0  0  0  0  0
    5.9477   -3.1534    3.5046 H   0  0  0  0  0  0  0  0  0  0  0  0
    4.7745   -3.9695    2.5556 H   0  0  0  0  0  0  0  0  0  0  0  0
    1.3120   -4.9410    3.1234 H   0  0  0  0  0  0  0  0  0  0  0  0
    3.0255   -5.2376    3.0017 H   0  0  0  0  0  0  0  0  0  0  0  0
    2.2617   -3.9593    2.0789 H   0  0  0  0  0  0  0  0  0  0  0  0
    1.4696   -1.6362    4.4500 H   0  0  0  0  0  0  0  0  0  0  0  0
    0.6552   -2.5759    3.2851 H   0  0  0  0  0  0  0  0  0  0  0  0
   -0.5203   -3.6152    5.0240 H   0  0  0  0  0  0  0  0  0  0  0  0
    1.4864   -3.0300    7.1622 H   0  0  0  0  0  0  0  0  0  0  0  0
    0.5352   -4.4551    6.9238 H   0  0  0  0  0  0  0  0  0  0  0  0
    3.2000   -4.1837    6.2014 H   0  0  0  0  0  0  0  0  0  0  0  0
    0.0271   -6.2572    5.1952 H   0  0  0  0  0  0  0  0  0  0  0  0
    0.9590   -8.8376    5.1694 H   0  0  0  0  0  0  0  0  0  0  0  0
    4.3114   -6.5969    5.7136 H   0  0  0  0  0  0  0  0  0  0  0  0
   -0.2124   -0.4583    4.5417 H   0  0  0  0  0  0  0  0  0  0  0  0
    2.6421   -0.3003    6.6882 H   0  0  0  0  0  0  0  0  0  0  0  0
    0.3561    1.9808    3.1097 H   0  0  0  0  0  0  0  0  0  0  0  0
    0.1610    3.6477    2.7807 H   0  0  0  0  0  0  0  0  0  0  0  0
  1  2  1  0
  1 57  1  0
  1 58  1  0
  1 59  1  0
  3  2  1  6
  3 33  1  0
  3  4  1  0
  3  5  1  0
  4 60  1  0
  4 61  1  0
  4 62  1  0
  5  6  1  0
  6 54  1  0
  6  7  1  0
  6 63  1  6
  7  8  1  0
  8  9  1  0
  8 64  1  0
  8 65  1  0
  9 51  1  0
  9 10  1  1
  9 11  1  0
 10 66  1  0
 10 67  1  0
 10 68  1  0
 11 12  1  0
 11 69  1  0
 11 70  1  0
 12 13  1  0
 12 71  1  0
 12 72  1  0
 13 50  1  0
 13 14  1  0
 13 73  1  1
 14 15  1  0
 14 74  1  0
 14 75  1  0
 15 56  1  0
 15 16  1  6
 15 17  1  0
 16 76  1  0
 16 77  1  0
 16 78  1  0
 17 18  1  0
 17 79  1  0
 17 80  1  0
 18 19  1  0
 18 81  1  0
 18 82  1  0
 19 55  1  0
 19 20  1  0
 19 83  1  1
 20 21  1  0
 20 22  1  0
 23 20  1  1
 21 84  1  0
 21 85  1  0
 21 86  1  0
 22 87  1  0
 22 88  1  0
 22 89  1  0
 23 24  2  0
 23 25  1  0
 25 55  1  0
 25 26  1  0
 25 90  1  6
 26 54  1  0
 26 27  1  0
 26 91  1  1
 27 28  1  0
 27 92  1  0
 27 93  1  0
 28 29  1  0
 28 94  1  0
 28 95  1  0
 29 36  1  0
 29 30  1  6
 29 31  1  0
 30 96  1  0
 31 32  1  0
 32 33  1  0
 32 97  1  0
 32 98  1  0
 33 34  1  0
 33 99  1  1
 34 35  1  0
 34 36  1  0
 34100  1  1
 35101  1  0
 36 37  1  6
 36 38  1  0
 37102  1  0
 37103  1  0
 37104  1  0
 38 43  1  0
 38 39  1  6
 38 40  1  0
 39105  1  0
 39106  1  0
 39107  1  0
 40 41  1  0
 40108  1  0
 40109  1  0
 41 42  1  0
 41 49  1  0
 41110  1  6
 42 43  1  0
 42111  1  0
 42112  1  0
 43 44  1  0
 43113  1  1
 44 48  2  0
 44 45  1  0
 45 46  2  0
 45114  1  0
 46 47  1  0
 46115  1  0
 47 48  1  0
 48116  1  0
 49 50  1  0
 50 51  1  0
 50117  1  6
 51 52  1  1
 51 53  1  0
 52118  1  0
 54 53  1  6
 54 55  1  0
 55 56  1  6
 56119  1  0
 56120  1  0
M  END
>  <i_m_ct_stereo_status>  (42) 
1

>  <s_m_source_file>  (42) 
/var/tmp/pbs.5075288.sched01/tmpeqwi9iw0/66la8jmv2o.sdf

>  <i_m_source_file_index>  (42) 
14

>  <i_lp_mmshare_version>  (42) 
48012

>  <i_f3d_flags>  (42) 
0

>  <s_epik_input>  (42) 
W0NAQF0xMjNbQ0BAXTQ1W0NAQEhdNltDSDJdW0NIMl1bQ0BAXShbQ0gzXSkoW0NIMl01KVtDSDJdW0NASF03W0NASF04W0NAXShPMykoW09IXSlbQ0BdKFtDSDNdKShbQ0gyXVtDSDJdNylbQ0gyXU9bQ0BIXTFPW0NAXShbQ0gzXSkoT1tDSDNdKVtDQEBIXTlbQ0gyXU9bQ0BdKFtPSF0pKFtDSDJdW0NIMl1bQ0BIXTJbQ0BASF00W1MrXShbTy1dKUM2KFtDSDNdKVtDSDNdKVtDQEBdKFtDSDNdKShbQ0BASF05W09IXSlbQ0BdMShbQ0gzXSlbQ0gyXVtDQEhdKE84KVtDSDJdW0NASF0xYzFbY0hdW2NIXW9bY0hdMQ==

>  <s_epik_cmdline>  (42) 
J2VwaWtfcHl0aG9uJywgJy1waHQnLCAnMi4wJywgJy1waCcsICc3LjAnLCAnLXRuJywgJzgnLCAnLW1hJywgJzIwMCcsICctaW1hZScsICc8aW5maWxlLm1hZT4nLCAnLW9tYWUnLCAnPG91dGZpbGUubWFlPic=

>  <r_lp_tautomer_probability>  (42) 
1

>  <r_epik_Ionization_Penalty>  (42) 
1.33501e-06

>  <r_epik_Ionization_Penalty_Charging>  (42) 
0

>  <r_epik_Ionization_Penalty_Neutral>  (42) 
1.33501e-06

>  <r_epik_State_Penalty>  (42) 
-0

>  <r_epik_Charging_Adjusted_Penalty>  (42) 
0

>  <i_epik_Tot_Q>  (42) 
0

>  <i_epik_Tot_abs_Q>  (42) 
2

>  <s_epik_Chemistry_Notes>  (42) 
This compound contains an acetal/aminal-like group ( X-CH(R)-Y where X, Y are N, S, or O) that may be acid/base labile, releasing an aldehyde.

>  <s_lp_Force_Field>  (42) 
OPLS3e

>  <r_lp_Energy>  (42) 
255.405

>  <b_lp_Chiralities_Consistent>  (42) 
1

>  <s_lp_Variant>  (42) 
34:0-1

>  <s_i_glide_gridfile>  (42) 
pfpi4k_grid

>  <i_i_glide_lignum>  (42) 
14

>  <i_i_glide_rotatable_bonds>  (42) 
5

>  <r_i_docking_score>  (42) 
-2.20802

>  <r_i_glide_ligand_efficiency>  (42) 
-0.0394289

>  <r_i_glide_ligand_efficiency_sa>  (42) 
-0.15085

>  <r_i_glide_ligand_efficiency_ln>  (42) 
-0.439376

>  <r_i_glide_gscore>  (42) 
-2.20802

>  <r_i_glide_lipo>  (42) 
-0.228327

>  <r_i_glide_hbond>  (42) 
0

>  <r_i_glide_metal>  (42) 
-0

>  <r_i_glide_rewards>  (42) 
-0.523768

>  <r_i_glide_evdw>  (42) 
-24.9645

>  <r_i_glide_ecoul>  (42) 
-1.58555

>  <r_i_glide_erotb>  (42) 
0.0339445

>  <r_i_glide_esite>  (42) 
-0.00380759

>  <r_i_glide_emodel>  (42) 
-32.1134

>  <r_i_glide_energy>  (42) 
-26.5501

>  <r_i_glide_einternal>  (42) 
2.33939

>  <r_i_glide_intrahb_reward>  (42) 
-0.5

>  <i_i_glide_confnum>  (42) 
4

>  <i_i_glide_posenum>  (42) 
38

>  <r_i_glide_eff_state_penalty>  (42) 
0

>  <ligand_id>  (42) 
34

>  <original_smiles>  (42) 
COC1(C)OC2OCC3(C)CCC4CC5(C)CCC6C(C)(C)[S+]([O-])C7C8CCC9(O)OCC1C(O)C9(C)C1(C)CC(CC1c1ccoc1)OC4C3(O)OC28C76C5

>  <smiles>  (42) 
[H]OC1([H])C2([H])C([H])([H])OC3(O[H])C([H])([H])C([H])([H])C4([H])C5([H])S(=O)C(C([H])([H])[H])(C([H])([H])[H])C6([H])C([H])([H])C([H])([H])C7(C([H])([H])[H])C([H])([H])C8([H])C([H])([H])C([H])([H])C9(C([H])([H])[H])C([H])([H])OC([H])(OC2(OC([H])([H])[H])C([H])([H])[H])C4(OC9(O[H])C8([H])OC2([H])C([H])([H])C([H])(c4c([H])oc([H])c4[H])C(C([H])([H])[H])(C2([H])[H])C13C([H])([H])[H])C56C7([H])[H]

$$$$
34:0:1
     RDKit          3D

120130  0  0  1  0  0  0  0  0999 V2000
    3.2122   -2.9805    0.5983 C   0  0  0  0  0  0  0  0  0  0  0  0
    3.1552   -3.3392    1.9763 O   0  0  0  0  0  0  0  0  0  0  0  0
    3.9697   -4.3799    2.4612 C   0  0  1  0  0  0  0  0  0  0  0  0
    5.4313   -4.0603    2.0793 C   0  0  0  0  0  0  0  0  0  0  0  0
    3.9851   -4.4341    3.8661 O   0  0  0  0  0  0  0  0  0  0  0  0
    3.6637   -3.3053    4.6776 C   0  0  2  0  0  0  0  0  0  0  0  0
    4.7059   -2.7533    5.4216 O   0  0  0  0  0  0  0  0  0  0  0  0
    5.7839   -3.5903    5.8002 C   0  0  0  0  0  0  0  0  0  0  0  0
    5.4960   -4.5809    6.9575 C   0  0  1  0  0  0  0  0  0  0  0  0
    6.8016   -5.4230    7.1367 C   0  0  0  0  0  0  0  0  0  0  0  0
    5.2032   -3.8557    8.2556 C   0  0  0  0  0  0  0  0  0  0  0  0
    4.9171   -4.8393    9.3986 C   0  0  0  0  0  0  0  0  0  0  0  0
    3.7853   -5.8358    9.0707 C   0  0  1  0  0  0  0  0  0  0  0  0
    2.3414   -5.4025    9.5392 C   0  0  0  0  0  0  0  0  0  0  0  0
    1.5583   -4.0587    9.2010 C   0  0  1  0  0  0  0  0  0  0  0  0
    0.2943   -4.1518   10.1116 C   0  0  0  0  0  0  0  0  0  0  0  0
    2.2729   -2.7496    9.6066 C   0  0  0  0  0  0  0  0  0  0  0  0
    1.8916   -1.5274    8.7589 C   0  0  0  0  0  0  0  0  0  0  0  0
    2.0378   -1.6744    7.2147 C   0  0  2  0  0  0  0  0  0  0  0  0
    1.3794   -0.4878    6.4150 C   0  0  0  0  0  0  0  0  0  0  0  0
    0.1828    0.1912    7.1172 C   0  0  0  0  0  0  0  0  0  0  0  0
    2.4044    0.5785    5.9910 C   0  0  0  0  0  0  0  0  0  0  0  0
    0.6343   -1.1912    4.8627 S   0  0  0  0  0  0  0  0  0  0  0  0
    1.6236   -1.0704    3.7047 O   0  0  0  0  0  0  0  0  0  0  0  0
    0.5627   -2.9177    5.5397 C   0  0  1  0  0  0  0  0  0  0  0  0
    1.2434   -4.0046    4.7290 C   0  0  2  0  0  0  0  0  0  0  0  0
    0.4928   -5.3438    4.5322 C   0  0  0  0  0  0  0  0  0  0  0  0
    1.4529   -6.5289    4.4747 C   0  0  0  0  0  0  0  0  0  0  0  0
    1.4696   -7.5347    3.2853 C   0  0  1  0  0  0  0  0  0  0  0  0
    0.4426   -8.4556    3.5530 O   0  0  0  0  0  0  0  0  0  0  0  0
    1.1426   -6.8893    2.0902 O   0  0  0  0  0  0  0  0  0  0  0  0
    1.8918   -5.7703    1.6496 C   0  0  0  0  0  0  0  0  0  0  0  0
    3.4154   -5.7879    1.8844 C   0  0  2  0  0  0  0  0  0  0  0  0
    3.9303   -7.1601    2.4962 C   0  0  1  0  0  0  0  0  0  0  0  0
    5.1989   -7.0260    3.0741 O   0  0  0  0  0  0  0  0  0  0  0  0
    2.8911   -8.2877    3.0581 C   0  0  2  0  0  0  0  0  0  0  0  0
    2.6534   -9.2041    1.8092 C   0  0  0  0  0  0  0  0  0  0  0  0
    3.3516   -9.3068    4.3092 C   0  0  2  0  0  0  0  0  0  0  0  0
    2.5003  -10.6243    4.3074 C   0  0  0  0  0  0  0  0  0  0  0  0
    3.1650   -8.7496    5.7529 C   0  0  0  0  0  0  0  0  0  0  0  0
    4.4013   -8.8743    6.6566 C   0  0  1  0  0  0  0  0  0  0  0  0
    5.5323   -9.1570    5.6569 C   0  0  0  0  0  0  0  0  0  0  0  0
    4.8890   -9.7143    4.3517 C   0  0  1  0  0  0  0  0  0  0  0  0
    5.2435  -11.1870    4.1616 C   0  0  0  0  0  0  0  0  0  0  0  0
    5.7999  -11.7806    2.9903 C   0  0  0  0  0  0  0  0  0  0  0  0
    5.9479  -13.1166    3.2521 C   0  0  0  0  0  0  0  0  0  0  0  0
    5.5441  -13.4004    4.5161 O   0  0  0  0  0  0  0  0  0  0  0  0
    5.1278  -12.2231    5.0522 C   0  0  0  0  0  0  0  0  0  0  0  0
    4.7074   -7.7821    7.6008 O   0  0  0  0  0  0  0  0  0  0  0  0
    3.8938   -6.5723    7.6835 C   0  0  2  0  0  0  0  0  0  0  0  0
    4.2768   -5.5178    6.6037 C   0  0  2  0  0  0  0  0  0  0  0  0
    4.7054   -6.1587    5.4572 O   0  0  0  0  0  0  0  0  0  0  0  0
    3.0014   -4.9041    6.4264 O   0  0  0  0  0  0  0  0  0  0  0  0
    2.5352   -3.8123    5.6119 C   0  0  1  0  0  0  0  0  0  0  0  0
    1.6016   -3.0479    6.6569 C   0  0  1  0  0  0  0  0  0  0  0  0
    0.9482   -3.9437    7.7686 C   0  0  0  0  0  0  0  0  0  0  0  0
    2.3885   -2.3002    0.3828 H   0  0  0  0  0  0  0  0  0  0  0  0
    3.1116   -3.8396   -0.0647 H   0  0  0  0  0  0  0  0  0  0  0  0
    4.1377   -2.4567    0.3620 H   0  0  0  0  0  0  0  0  0  0  0  0
    5.6661   -3.0354    2.3858 H   0  0  0  0  0  0  0  0  0  0  0  0
    5.5947   -4.1688    1.0067 H   0  0  0  0  0  0  0  0  0  0  0  0
    6.1187   -4.7244    2.6034 H   0  0  0  0  0  0  0  0  0  0  0  0
    3.3505   -2.4676    4.0731 H   0  0  0  0  0  0  0  0  0  0  0  0
    6.1934   -4.0977    4.9299 H   0  0  0  0  0  0  0  0  0  0  0  0
    6.5811   -2.9243    6.1253 H   0  0  0  0  0  0  0  0  0  0  0  0
    6.6896   -6.2497    7.8348 H   0  0  0  0  0  0  0  0  0  0  0  0
    7.6151   -4.7999    7.5107 H   0  0  0  0  0  0  0  0  0  0  0  0
    7.1481   -5.8575    6.1997 H   0  0  0  0  0  0  0  0  0  0  0  0
    6.0407   -3.2126    8.5245 H   0  0  0  0  0  0  0  0  0  0  0  0
    4.3869   -3.1951    8.0189 H   0  0  0  0  0  0  0  0  0  0  0  0
    5.8192   -5.3906    9.6454 H   0  0  0  0  0  0  0  0  0  0  0  0
    4.7030   -4.3130   10.3219 H   0  0  0  0  0  0  0  0  0  0  0  0
    3.9791   -6.6529    9.7680 H   0  0  0  0  0  0  0  0  0  0  0  0
    1.6733   -6.2359    9.3181 H   0  0  0  0  0  0  0  0  0  0  0  0
    2.4021   -5.4339   10.6268 H   0  0  0  0  0  0  0  0  0  0  0  0
   -0.3321   -3.2592   10.0325 H   0  0  0  0  0  0  0  0  0  0  0  0
    0.5415   -4.2627   11.1713 H   0  0  0  0  0  0  0  0  0  0  0  0
   -0.3293   -5.0048    9.8336 H   0  0  0  0  0  0  0  0  0  0  0  0
    2.0397   -2.5214   10.6439 H   0  0  0  0  0  0  0  0  0  0  0  0
    3.3376   -2.8218    9.6708 H   0  0  0  0  0  0  0  0  0  0  0  0
    0.8738   -1.2863    9.0439 H   0  0  0  0  0  0  0  0  0  0  0  0
    2.4975   -0.6865    9.0839 H   0  0  0  0  0  0  0  0  0  0  0  0
    3.1079   -1.5982    7.0310 H   0  0  0  0  0  0  0  0  0  0  0  0
    0.4964    0.7466    8.0042 H   0  0  0  0  0  0  0  0  0  0  0  0
   -0.5708   -0.5393    7.4161 H   0  0  0  0  0  0  0  0  0  0  0  0
   -0.3052    0.9099    6.4549 H   0  0  0  0  0  0  0  0  0  0  0  0
    2.8592    1.0548    6.8615 H   0  0  0  0  0  0  0  0  0  0  0  0
    1.9298    1.3637    5.3987 H   0  0  0  0  0  0  0  0  0  0  0  0
    3.2078    0.1524    5.3855 H   0  0  0  0  0  0  0  0  0  0  0  0
   -0.4561   -3.1743    5.8197 H   0  0  0  0  0  0  0  0  0  0  0  0
    1.4110   -3.5785    3.7459 H   0  0  0  0  0  0  0  0  0  0  0  0
   -0.2017   -5.5054    5.3595 H   0  0  0  0  0  0  0  0  0  0  0  0
   -0.1501   -5.3226    3.6594 H   0  0  0  0  0  0  0  0  0  0  0  0
    2.4501   -6.1410    4.5026 H   0  0  0  0  0  0  0  0  0  0  0  0
    1.2268   -7.0701    5.3925 H   0  0  0  0  0  0  0  0  0  0  0  0
    0.5299   -9.1754    2.9463 H   0  0  0  0  0  0  0  0  0  0  0  0
    1.7111   -5.7356    0.5762 H   0  0  0  0  0  0  0  0  0  0  0  0
    1.4153   -4.8782    2.0291 H   0  0  0  0  0  0  0  0  0  0  0  0
    3.8210   -5.7911    0.8733 H   0  0  0  0  0  0  0  0  0  0  0  0
    4.3199   -7.6285    1.5922 H   0  0  0  0  0  0  0  0  0  0  0  0
    5.0824   -6.8473    4.0048 H   0  0  0  0  0  0  0  0  0  0  0  0
    3.5302   -9.8172    1.5896 H   0  0  0  0  0  0  0  0  0  0  0  0
    2.4454   -8.6235    0.9098 H   0  0  0  0  0  0  0  0  0  0  0  0
    1.8053   -9.8776    1.9098 H   0  0  0  0  0  0  0  0  0  0  0  0
    2.7273  -11.2408    5.1772 H   0  0  0  0  0  0  0  0  0  0  0  0
    2.6701  -11.2543    3.4313 H   0  0  0  0  0  0  0  0  0  0  0  0
    1.4293  -10.4588    4.3919 H   0  0  0  0  0  0  0  0  0  0  0  0
    3.0698   -7.7181    5.6431 H   0  0  0  0  0  0  0  0  0  0  0  0
    2.2625   -9.1053    6.2554 H   0  0  0  0  0  0  0  0  0  0  0  0
    4.2726   -9.7812    7.2508 H   0  0  0  0  0  0  0  0  0  0  0  0
    6.0652   -8.2365    5.4234 H   0  0  0  0  0  0  0  0  0  0  0  0
    6.2843   -9.8279    6.0846 H   0  0  0  0  0  0  0  0  0  0  0  0
    5.4100   -9.2859    3.5075 H   0  0  0  0  0  0  0  0  0  0  0  0
    6.0428  -11.3036    2.0547 H   0  0  0  0  0  0  0  0  0  0  0  0
    6.3007  -13.9556    2.6754 H   0  0  0  0  0  0  0  0  0  0  0  0
    4.7593  -12.3014    6.0635 H   0  0  0  0  0  0  0  0  0  0  0  0
    2.8711   -6.9055    7.5122 H   0  0  0  0  0  0  0  0  0  0  0  0
    4.8296   -5.4460    4.8350 H   0  0  0  0  0  0  0  0  0  0  0  0
    0.7851   -4.9504    7.3948 H   0  0  0  0  0  0  0  0  0  0  0  0
   -0.0670   -3.5589    7.8795 H   0  0  0  0  0  0  0  0  0  0  0  0
  1  2  1  0
  1 57  1  0
  1 58  1  0
  1 59  1  0
  3  2  1  1
  3 33  1  0
  3  4  1  0
  3  5  1  0
  4 60  1  0
  4 61  1  0
  4 62  1  0
  5  6  1  0
  6 54  1  0
  6  7  1  0
  6 63  1  6
  7  8  1  0
  8  9  1  0
  8 64  1  0
  8 65  1  0
  9 51  1  0
  9 10  1  1
  9 11  1  0
 10 66  1  0
 10 67  1  0
 10 68  1  0
 11 12  1  0
 11 69  1  0
 11 70  1  0
 12 13  1  0
 12 71  1  0
 12 72  1  0
 13 50  1  0
 13 14  1  0
 13 73  1  1
 14 15  1  0
 14 74  1  0
 14 75  1  0
 15 56  1  0
 15 16  1  1
 15 17  1  0
 16 76  1  0
 16 77  1  0
 16 78  1  0
 17 18  1  0
 17 79  1  0
 17 80  1  0
 18 19  1  0
 18 81  1  0
 18 82  1  0
 19 55  1  0
 19 20  1  0
 19 83  1  1
 20 21  1  0
 20 22  1  0
 23 20  1  1
 21 84  1  0
 21 85  1  0
 21 86  1  0
 22 87  1  0
 22 88  1  0
 22 89  1  0
 23 24  2  0
 23 25  1  0
 25 55  1  0
 25 26  1  0
 25 90  1  1
 26 54  1  0
 26 27  1  0
 26 91  1  6
 27 28  1  0
 27 92  1  0
 27 93  1  0
 28 29  1  0
 28 94  1  0
 28 95  1  0
 29 36  1  0
 29 30  1  1
 29 31  1  0
 30 96  1  0
 31 32  1  0
 32 33  1  0
 32 97  1  0
 32 98  1  0
 33 34  1  0
 33 99  1  6
 34 35  1  0
 34 36  1  0
 34100  1  6
 35101  1  0
 36 37  1  6
 36 38  1  0
 37102  1  0
 37103  1  0
 37104  1  0
 38 43  1  0
 38 39  1  1
 38 40  1  0
 39105  1  0
 39106  1  0
 39107  1  0
 40 41  1  0
 40108  1  0
 40109  1  0
 41 42  1  0
 41 49  1  0
 41110  1  1
 42 43  1  0
 42111  1  0
 42112  1  0
 43 44  1  0
 43113  1  6
 44 48  2  0
 44 45  1  0
 45 46  2  0
 45114  1  0
 46 47  1  0
 46115  1  0
 47 48  1  0
 48116  1  0
 49 50  1  0
 50 51  1  0
 50117  1  6
 51 52  1  6
 51 53  1  0
 52118  1  0
 54 53  1  1
 54 55  1  0
 55 56  1  1
 56119  1  0
 56120  1  0
M  END
>  <i_m_ct_stereo_status>  (43) 
1

>  <s_m_source_file>  (43) 
/var/tmp/pbs.5075288.sched01/tmpeqwi9iw0/66la8jmv2o.sdf

>  <i_m_source_file_index>  (43) 
14

>  <i_lp_mmshare_version>  (43) 
48012

>  <i_f3d_flags>  (43) 
0

>  <s_epik_input>  (43) 
W0NAQF0xMjNbQ0BAXTQ1W0NAQEhdNltDSDJdW0NIMl1bQ0BAXShbQ0gzXSkoW0NIMl01KVtDSDJdW0NASF03W0NASF04W0NAXShPMykoW09IXSlbQ0BdKFtDSDNdKShbQ0gyXVtDSDJdNylbQ0gyXU9bQ0BIXTFPW0NAXShbQ0gzXSkoT1tDSDNdKVtDQEBIXTlbQ0gyXU9bQ0BdKFtPSF0pKFtDSDJdW0NIMl1bQ0BIXTJbQ0BASF00W1MrXShbTy1dKUM2KFtDSDNdKVtDSDNdKVtDQEBdKFtDSDNdKShbQ0BASF05W09IXSlbQ0BdMShbQ0gzXSlbQ0gyXVtDQEhdKE84KVtDSDJdW0NASF0xYzFbY0hdW2NIXW9bY0hdMQ==

>  <s_epik_cmdline>  (43) 
J2VwaWtfcHl0aG9uJywgJy1waHQnLCAnMi4wJywgJy1waCcsICc3LjAnLCAnLXRuJywgJzgnLCAnLW1hJywgJzIwMCcsICctaW1hZScsICc8aW5maWxlLm1hZT4nLCAnLW9tYWUnLCAnPG91dGZpbGUubWFlPic=

>  <r_lp_tautomer_probability>  (43) 
1

>  <r_epik_Ionization_Penalty>  (43) 
1.33501e-06

>  <r_epik_Ionization_Penalty_Charging>  (43) 
0

>  <r_epik_Ionization_Penalty_Neutral>  (43) 
1.33501e-06

>  <r_epik_State_Penalty>  (43) 
-0

>  <r_epik_Charging_Adjusted_Penalty>  (43) 
0

>  <i_epik_Tot_Q>  (43) 
0

>  <i_epik_Tot_abs_Q>  (43) 
2

>  <s_epik_Chemistry_Notes>  (43) 
This compound contains an acetal/aminal-like group ( X-CH(R)-Y where X, Y are N, S, or O) that may be acid/base labile, releasing an aldehyde.

>  <s_lp_Force_Field>  (43) 
OPLS3e

>  <r_lp_Energy>  (43) 
255.405

>  <b_lp_Chiralities_Consistent>  (43) 
1

>  <s_lp_Variant>  (43) 
34:0-1

>  <s_i_glide_gridfile>  (43) 
pfpi4k_grid

>  <i_i_glide_lignum>  (43) 
14

>  <i_i_glide_rotatable_bonds>  (43) 
5

>  <r_i_docking_score>  (43) 
-1.75701

>  <r_i_glide_ligand_efficiency>  (43) 
-0.0313752

>  <r_i_glide_ligand_efficiency_sa>  (43) 
-0.120037

>  <r_i_glide_ligand_efficiency_ln>  (43) 
-0.349629

>  <r_i_glide_gscore>  (43) 
-1.75701

>  <r_i_glide_lipo>  (43) 
-0.0675949

>  <r_i_glide_hbond>  (43) 
0

>  <r_i_glide_metal>  (43) 
-0

>  <r_i_glide_rewards>  (43) 
-0.5

>  <r_i_glide_evdw>  (43) 
-26.0435

>  <r_i_glide_ecoul>  (43) 
0.655357

>  <r_i_glide_erotb>  (43) 
0.0339445

>  <r_i_glide_esite>  (43) 
-0.0194913

>  <r_i_glide_emodel>  (43) 
-32.6644

>  <r_i_glide_energy>  (43) 
-25.3881

>  <r_i_glide_einternal>  (43) 
0.145416

>  <r_i_glide_intrahb_reward>  (43) 
-0.5

>  <i_i_glide_confnum>  (43) 
1

>  <i_i_glide_posenum>  (43) 
1

>  <r_i_glide_eff_state_penalty>  (43) 
0

>  <ligand_id>  (43) 
34

>  <original_smiles>  (43) 
COC1(C)OC2OCC3(C)CCC4CC5(C)CCC6C(C)(C)[S+]([O-])C7C8CCC9(O)OCC1C(O)C9(C)C1(C)CC(CC1c1ccoc1)OC4C3(O)OC28C76C5

>  <smiles>  (43) 
[H]OC1([H])C2([H])C([H])([H])OC3(O[H])C([H])([H])C([H])([H])C4([H])C5([H])S(=O)C(C([H])([H])[H])(C([H])([H])[H])C6([H])C([H])([H])C([H])([H])C7(C([H])([H])[H])C([H])([H])C8([H])C([H])([H])C([H])([H])C9(C([H])([H])[H])C([H])([H])OC([H])(OC2(OC([H])([H])[H])C([H])([H])[H])C4(OC9(O[H])C8([H])OC2([H])C([H])([H])C([H])(c4c([H])oc([H])c4[H])C(C([H])([H])[H])(C2([H])[H])C13C([H])([H])[H])C56C7([H])[H]

$$$$
34:0:2
     RDKit          3D

120130  0  0  1  0  0  0  0  0999 V2000
    3.7937   -3.1487    0.2472 C   0  0  0  0  0  0  0  0  0  0  0  0
    3.5717   -3.4969    1.6127 O   0  0  0  0  0  0  0  0  0  0  0  0
    4.3757   -4.4776    2.2247 C   0  0  1  0  0  0  0  0  0  0  0  0
    5.8517   -4.0541    2.0639 C   0  0  0  0  0  0  0  0  0  0  0  0
    4.1705   -4.5403    3.6100 O   0  0  0  0  0  0  0  0  0  0  0  0
    3.6746   -3.4396    4.3627 C   0  0  2  0  0  0  0  0  0  0  0  0
    4.5612   -2.8175    5.2431 O   0  0  0  0  0  0  0  0  0  0  0  0
    5.6234   -3.5834    5.7848 C   0  0  0  0  0  0  0  0  0  0  0  0
    5.2421   -4.5945    6.8968 C   0  0  1  0  0  0  0  0  0  0  0  0
    6.5666   -5.3369    7.2743 C   0  0  0  0  0  0  0  0  0  0  0  0
    4.7133   -3.8936    8.1320 C   0  0  0  0  0  0  0  0  0  0  0  0
    4.3310   -4.9009    9.2310 C   0  0  0  0  0  0  0  0  0  0  0  0
    3.3348   -5.9761    8.7496 C   0  0  1  0  0  0  0  0  0  0  0  0
    1.8079   -5.6545    8.9958 C   0  0  0  0  0  0  0  0  0  0  0  0
    0.9883   -4.3684    8.5343 C   0  0  1  0  0  0  0  0  0  0  0  0
   -0.3878   -4.5581    9.2459 C   0  0  0  0  0  0  0  0  0  0  0  0
    1.5412   -3.0135    9.0347 C   0  0  0  0  0  0  0  0  0  0  0  0
    1.2067   -1.8147    8.1324 C   0  0  0  0  0  0  0  0  0  0  0  0
    1.5898   -1.9429    6.6263 C   0  0  2  0  0  0  0  0  0  0  0  0
    0.9706   -0.8010    5.7330 C   0  0  0  0  0  0  0  0  0  0  0  0
   -0.3644   -0.2170    6.2467 C   0  0  0  0  0  0  0  0  0  0  0  0
    1.9658    0.3386    5.4582 C   0  0  0  0  0  0  0  0  0  0  0  0
    0.5199   -1.5469    4.0901 S   0  0  0  0  0  0  0  0  0  0  0  0
    1.6497   -1.3489    3.0824 O   0  0  0  0  0  0  0  0  0  0  0  0
    0.4700   -3.2765    4.7580 C   0  0  1  0  0  0  0  0  0  0  0  0
    1.3351   -4.3116    4.0626 C   0  0  2  0  0  0  0  0  0  0  0  0
    0.7222   -5.6962    3.7559 C   0  0  0  0  0  0  0  0  0  0  0  0
    1.7602   -6.8118    3.8566 C   0  0  0  0  0  0  0  0  0  0  0  0
    2.0260   -7.8117    2.6915 C   0  0  1  0  0  0  0  0  0  0  0  0
    1.0412   -8.8077    2.8104 O   0  0  0  0  0  0  0  0  0  0  0  0
    1.8315   -7.1894    1.4573 O   0  0  0  0  0  0  0  0  0  0  0  0
    2.5480   -6.0124    1.1207 C   0  0  0  0  0  0  0  0  0  0  0  0
    4.0203   -5.9200    1.5816 C   0  0  2  0  0  0  0  0  0  0  0  0
    4.5422   -7.2518    2.2750 C   0  0  1  0  0  0  0  0  0  0  0  0
    5.7286   -7.0390    2.9916 O   0  0  0  0  0  0  0  0  0  0  0  0
    3.5176   -8.4568    2.6819 C   0  0  2  0  0  0  0  0  0  0  0  0
    3.5334   -9.3794    1.4154 C   0  0  0  0  0  0  0  0  0  0  0  0
    3.8596   -9.4491    3.9911 C   0  0  2  0  0  0  0  0  0  0  0  0
    3.1199  -10.8264    3.8697 C   0  0  0  0  0  0  0  0  0  0  0  0
    3.4180   -8.9219    5.3913 C   0  0  0  0  0  0  0  0  0  0  0  0
    4.5156   -8.9556    6.4690 C   0  0  1  0  0  0  0  0  0  0  0  0
    5.7989   -9.1502    5.6453 C   0  0  0  0  0  0  0  0  0  0  0  0
    5.3984   -9.7470    4.2618 C   0  0  1  0  0  0  0  0  0  0  0  0
    5.8790  -11.1879    4.1299 C   0  0  0  0  0  0  0  0  0  0  0  0
    6.5897  -11.7496    3.0264 C   0  0  0  0  0  0  0  0  0  0  0  0
    6.8161  -13.0627    3.3268 C   0  0  0  0  0  0  0  0  0  0  0  0
    6.3129  -13.3665    4.5507 O   0  0  0  0  0  0  0  0  0  0  0  0
    5.7552  -12.2209    5.0233 C   0  0  0  0  0  0  0  0  0  0  0  0
    4.5964   -7.8479    7.4419 O   0  0  0  0  0  0  0  0  0  0  0  0
    3.6967   -6.6952    7.3984 C   0  0  2  0  0  0  0  0  0  0  0  0
    4.1608   -5.6150    6.3767 C   0  0  2  0  0  0  0  0  0  0  0  0
    4.8067   -6.2610    5.3392 O   0  0  0  0  0  0  0  0  0  0  0  0
    2.8846   -5.0991    6.0000 O   0  0  0  0  0  0  0  0  0  0  0  0
    2.4681   -4.0313    5.1249 C   0  0  1  0  0  0  0  0  0  0  0  0
    1.3376   -3.3425    6.0178 C   0  0  1  0  0  0  0  0  0  0  0  0
    0.5938   -4.2885    7.0251 C   0  0  0  0  0  0  0  0  0  0  0  0
    2.9656   -2.5251   -0.0923 H   0  0  0  0  0  0  0  0  0  0  0  0
    3.8353   -4.0179   -0.4098 H   0  0  0  0  0  0  0  0  0  0  0  0
    4.7095   -2.5701    0.1231 H   0  0  0  0  0  0  0  0  0  0  0  0
    5.9701   -3.0182    2.3956 H   0  0  0  0  0  0  0  0  0  0  0  0
    6.1836   -4.1434    1.0304 H   0  0  0  0  0  0  0  0  0  0  0  0
    6.4952   -4.6733    2.6866 H   0  0  0  0  0  0  0  0  0  0  0  0
    3.3896   -2.6225    3.7172 H   0  0  0  0  0  0  0  0  0  0  0  0
    6.1866   -4.0598    4.9855 H   0  0  0  0  0  0  0  0  0  0  0  0
    6.3163   -2.8611    6.2167 H   0  0  0  0  0  0  0  0  0  0  0  0
    6.4134   -6.1744    7.9522 H   0  0  0  0  0  0  0  0  0  0  0  0
    7.2717   -4.6618    7.7600 H   0  0  0  0  0  0  0  0  0  0  0  0
    7.0770   -5.7418    6.4013 H   0  0  0  0  0  0  0  0  0  0  0  0
    5.4546   -3.1945    8.5196 H   0  0  0  0  0  0  0  0  0  0  0  0
    3.8956   -3.2906    7.7744 H   0  0  0  0  0  0  0  0  0  0  0  0
    5.2269   -5.3876    9.6086 H   0  0  0  0  0  0  0  0  0  0  0  0
    3.9450   -4.3945   10.1104 H   0  0  0  0  0  0  0  0  0  0  0  0
    3.4865   -6.7831    9.4697 H   0  0  0  0  0  0  0  0  0  0  0  0
    1.2453   -6.5331    8.6774 H   0  0  0  0  0  0  0  0  0  0  0  0
    1.7094   -5.6877   10.0805 H   0  0  0  0  0  0  0  0  0  0  0  0
   -1.0590   -3.7150    9.0676 H   0  0  0  0  0  0  0  0  0  0  0  0
   -0.2953   -4.6553   10.3305 H   0  0  0  0  0  0  0  0  0  0  0  0
   -0.9012   -5.4510    8.8820 H   0  0  0  0  0  0  0  0  0  0  0  0
    1.1477   -2.8092   10.0284 H   0  0  0  0  0  0  0  0  0  0  0  0
    2.5891   -3.0144    9.2465 H   0  0  0  0  0  0  0  0  0  0  0  0
    0.1437   -1.6452    8.2595 H   0  0  0  0  0  0  0  0  0  0  0  0
    1.6989   -0.9346    8.5385 H   0  0  0  0  0  0  0  0  0  0  0  0
    2.6665   -1.7916    6.5976 H   0  0  0  0  0  0  0  0  0  0  0  0
   -0.2289    0.3569    7.1656 H   0  0  0  0  0  0  0  0  0  0  0  0
   -1.0981   -1.0025    6.4321 H   0  0  0  0  0  0  0  0  0  0  0  0
   -0.8027    0.4662    5.5157 H   0  0  0  0  0  0  0  0  0  0  0  0
    2.2528    0.8432    6.3817 H   0  0  0  0  0  0  0  0  0  0  0  0
    1.5284    1.0893    4.7967 H   0  0  0  0  0  0  0  0  0  0  0  0
    2.8762   -0.0266    4.9788 H   0  0  0  0  0  0  0  0  0  0  0  0
   -0.5614   -3.5953    4.8899 H   0  0  0  0  0  0  0  0  0  0  0  0
    1.6163   -3.8713    3.1116 H   0  0  0  0  0  0  0  0  0  0  0  0
   -0.0771   -5.9107    4.4701 H   0  0  0  0  0  0  0  0  0  0  0  0
    0.2335   -5.7105    2.7842 H   0  0  0  0  0  0  0  0  0  0  0  0
    2.7136   -6.3562    4.0315 H   0  0  0  0  0  0  0  0  0  0  0  0
    1.4315   -7.3703    4.7316 H   0  0  0  0  0  0  0  0  0  0  0  0
    1.2095   -9.4632    2.1511 H   0  0  0  0  0  0  0  0  0  0  0  0
    2.5300   -5.9901    0.0317 H   0  0  0  0  0  0  0  0  0  0  0  0
    1.9451   -5.1575    1.4009 H   0  0  0  0  0  0  0  0  0  0  0  0
    4.5725   -5.8877    0.6426 H   0  0  0  0  0  0  0  0  0  0  0  0
    5.0798   -7.6876    1.4352 H   0  0  0  0  0  0  0  0  0  0  0  0
    6.1548   -7.8667    3.1475 H   0  0  0  0  0  0  0  0  0  0  0  0
    4.4759   -9.9219    1.3332 H   0  0  0  0  0  0  0  0  0  0  0  0
    3.4230   -8.8130    0.4893 H   0  0  0  0  0  0  0  0  0  0  0  0
    2.7347  -10.1177    1.3927 H   0  0  0  0  0  0  0  0  0  0  0  0
    3.2688  -11.4328    4.7642 H   0  0  0  0  0  0  0  0  0  0  0  0
    3.4560  -11.4358    3.0278 H   0  0  0  0  0  0  0  0  0  0  0  0
    2.0385  -10.7407    3.8009 H   0  0  0  0  0  0  0  0  0  0  0  0
    3.2380   -7.9061    5.2673 H   0  0  0  0  0  0  0  0  0  0  0  0
    2.4812   -9.3525    5.7540 H   0  0  0  0  0  0  0  0  0  0  0  0
    4.3685   -9.8724    7.0415 H   0  0  0  0  0  0  0  0  0  0  0  0
    6.2971   -8.1952    5.4895 H   0  0  0  0  0  0  0  0  0  0  0  0
    6.5299   -9.7625    6.1814 H   0  0  0  0  0  0  0  0  0  0  0  0
    6.0126   -9.2945    3.4980 H   0  0  0  0  0  0  0  0  0  0  0  0
    6.8926  -11.2575    2.1152 H   0  0  0  0  0  0  0  0  0  0  0  0
    7.2964  -13.8782    2.8088 H   0  0  0  0  0  0  0  0  0  0  0  0
    5.2987  -12.3119    5.9971 H   0  0  0  0  0  0  0  0  0  0  0  0
    2.7359   -7.0988    7.0797 H   0  0  0  0  0  0  0  0  0  0  0  0
    4.3039   -7.0187    5.1116 H   0  0  0  0  0  0  0  0  0  0  0  0
    0.5527   -5.3033    6.6356 H   0  0  0  0  0  0  0  0  0  0  0  0
   -0.4511   -3.9744    6.9840 H   0  0  0  0  0  0  0  0  0  0  0  0
  1  2  1  0
  1 57  1  0
  1 58  1  0
  1 59  1  0
  3  2  1  6
  3 33  1  0
  3  4  1  0
  3  5  1  0
  4 60  1  0
  4 61  1  0
  4 62  1  0
  5  6  1  0
  6 54  1  0
  6  7  1  0
  6 63  1  6
  7  8  1  0
  8  9  1  0
  8 64  1  0
  8 65  1  0
  9 51  1  0
  9 10  1  1
  9 11  1  0
 10 66  1  0
 10 67  1  0
 10 68  1  0
 11 12  1  0
 11 69  1  0
 11 70  1  0
 12 13  1  0
 12 71  1  0
 12 72  1  0
 13 50  1  0
 13 14  1  0
 13 73  1  1
 14 15  1  0
 14 74  1  0
 14 75  1  0
 15 56  1  0
 15 16  1  1
 15 17  1  0
 16 76  1  0
 16 77  1  0
 16 78  1  0
 17 18  1  0
 17 79  1  0
 17 80  1  0
 18 19  1  0
 18 81  1  0
 18 82  1  0
 19 55  1  0
 19 20  1  0
 19 83  1  1
 20 21  1  0
 20 22  1  0
 23 20  1  1
 21 84  1  0
 21 85  1  0
 21 86  1  0
 22 87  1  0
 22 88  1  0
 22 89  1  0
 23 24  2  0
 23 25  1  0
 25 55  1  0
 25 26  1  0
 25 90  1  1
 26 54  1  0
 26 27  1  0
 26 91  1  6
 27 28  1  0
 27 92  1  0
 27 93  1  0
 28 29  1  0
 28 94  1  0
 28 95  1  0
 29 36  1  0
 29 30  1  1
 29 31  1  0
 30 96  1  0
 31 32  1  0
 32 33  1  0
 32 97  1  0
 32 98  1  0
 33 34  1  0
 33 99  1  6
 34 35  1  0
 34 36  1  0
 34100  1  6
 35101  1  0
 36 37  1  6
 36 38  1  0
 37102  1  0
 37103  1  0
 37104  1  0
 38 43  1  0
 38 39  1  6
 38 40  1  0
 39105  1  0
 39106  1  0
 39107  1  0
 40 41  1  0
 40108  1  0
 40109  1  0
 41 42  1  0
 41 49  1  0
 41110  1  1
 42 43  1  0
 42111  1  0
 42112  1  0
 43 44  1  0
 43113  1  6
 44 48  2  0
 44 45  1  0
 45 46  2  0
 45114  1  0
 46 47  1  0
 46115  1  0
 47 48  1  0
 48116  1  0
 49 50  1  0
 50 51  1  0
 50117  1  6
 51 52  1  6
 51 53  1  0
 52118  1  0
 54 53  1  1
 54 55  1  0
 55 56  1  1
 56119  1  0
 56120  1  0
M  END
>  <i_m_ct_stereo_status>  (44) 
1

>  <s_m_source_file>  (44) 
/var/tmp/pbs.5075288.sched01/tmpeqwi9iw0/66la8jmv2o.sdf

>  <i_m_source_file_index>  (44) 
14

>  <i_lp_mmshare_version>  (44) 
48012

>  <i_f3d_flags>  (44) 
0

>  <s_epik_input>  (44) 
W0NAQF0xMjNbQ0BAXTQ1W0NAQEhdNltDSDJdW0NIMl1bQ0BAXShbQ0gzXSkoW0NIMl01KVtDSDJdW0NASF03W0NASF04W0NAXShPMykoW09IXSlbQ0BdKFtDSDNdKShbQ0gyXVtDSDJdNylbQ0gyXU9bQ0BIXTFPW0NAXShbQ0gzXSkoT1tDSDNdKVtDQEBIXTlbQ0gyXU9bQ0BdKFtPSF0pKFtDSDJdW0NIMl1bQ0BIXTJbQ0BASF00W1MrXShbTy1dKUM2KFtDSDNdKVtDSDNdKVtDQEBdKFtDSDNdKShbQ0BASF05W09IXSlbQ0BdMShbQ0gzXSlbQ0gyXVtDQEhdKE84KVtDSDJdW0NASF0xYzFbY0hdW2NIXW9bY0hdMQ==

>  <s_epik_cmdline>  (44) 
J2VwaWtfcHl0aG9uJywgJy1waHQnLCAnMi4wJywgJy1waCcsICc3LjAnLCAnLXRuJywgJzgnLCAnLW1hJywgJzIwMCcsICctaW1hZScsICc8aW5maWxlLm1hZT4nLCAnLW9tYWUnLCAnPG91dGZpbGUubWFlPic=

>  <r_lp_tautomer_probability>  (44) 
1

>  <r_epik_Ionization_Penalty>  (44) 
1.33501e-06

>  <r_epik_Ionization_Penalty_Charging>  (44) 
0

>  <r_epik_Ionization_Penalty_Neutral>  (44) 
1.33501e-06

>  <r_epik_State_Penalty>  (44) 
-0

>  <r_epik_Charging_Adjusted_Penalty>  (44) 
0

>  <i_epik_Tot_Q>  (44) 
0

>  <i_epik_Tot_abs_Q>  (44) 
2

>  <s_epik_Chemistry_Notes>  (44) 
This compound contains an acetal/aminal-like group ( X-CH(R)-Y where X, Y are N, S, or O) that may be acid/base labile, releasing an aldehyde.

>  <s_lp_Force_Field>  (44) 
OPLS3e

>  <r_lp_Energy>  (44) 
255.405

>  <b_lp_Chiralities_Consistent>  (44) 
1

>  <s_lp_Variant>  (44) 
34:0-1

>  <s_i_glide_gridfile>  (44) 
pfpi4k_grid

>  <i_i_glide_lignum>  (44) 
14

>  <i_i_glide_rotatable_bonds>  (44) 
5

>  <r_i_docking_score>  (44) 
-1.39348

>  <r_i_glide_ligand_efficiency>  (44) 
-0.0248836

>  <r_i_glide_ligand_efficiency_sa>  (44) 
-0.0952011

>  <r_i_glide_ligand_efficiency_ln>  (44) 
-0.27729

>  <r_i_glide_gscore>  (44) 
-1.39348

>  <r_i_glide_lipo>  (44) 
-0.10254

>  <r_i_glide_hbond>  (44) 
0

>  <r_i_glide_metal>  (44) 
-0

>  <r_i_glide_rewards>  (44) 
-0.0119773

>  <r_i_glide_evdw>  (44) 
-28.5592

>  <r_i_glide_ecoul>  (44) 
0.861383

>  <r_i_glide_erotb>  (44) 
0.0339445

>  <r_i_glide_esite>  (44) 
-0.0141537

>  <r_i_glide_emodel>  (44) 
-29.3114

>  <r_i_glide_energy>  (44) 
-27.6978

>  <r_i_glide_einternal>  (44) 
0.531178

>  <r_i_glide_intrahb_reward>  (44) 
-0

>  <i_i_glide_confnum>  (44) 
1

>  <i_i_glide_posenum>  (44) 
40

>  <r_i_glide_eff_state_penalty>  (44) 
0

>  <ligand_id>  (44) 
34

>  <original_smiles>  (44) 
COC1(C)OC2OCC3(C)CCC4CC5(C)CCC6C(C)(C)[S+]([O-])C7C8CCC9(O)OCC1C(O)C9(C)C1(C)CC(CC1c1ccoc1)OC4C3(O)OC28C76C5

>  <smiles>  (44) 
[H]OC1([H])C2([H])C([H])([H])OC3(O[H])C([H])([H])C([H])([H])C4([H])C5([H])S(=O)C(C([H])([H])[H])(C([H])([H])[H])C6([H])C([H])([H])C([H])([H])C7(C([H])([H])[H])C([H])([H])C8([H])C([H])([H])C([H])([H])C9(C([H])([H])[H])C([H])([H])OC([H])(OC2(OC([H])([H])[H])C([H])([H])[H])C4(OC9(O[H])C8([H])OC2([H])C([H])([H])C([H])(c4c([H])oc([H])c4[H])C(C([H])([H])[H])(C2([H])[H])C13C([H])([H])[H])C56C7([H])[H]

$$$$
39:0:0
     RDKit          3D

104111  0  0  1  0  0  0  0  0999 V2000
   -3.1242    4.9950    2.4884 C   0  0  0  0  0  0  0  0  0  0  0  0
   -2.5339    4.4827    3.6481 O   0  0  0  0  0  0  0  0  0  0  0  0
   -1.8141    3.2949    3.4162 C   0  0  0  0  0  0  0  0  0  0  0  0
   -1.1680    2.8718    4.7371 C   0  0  0  0  0  0  0  0  0  0  0  0
   -1.3168    3.5841    5.7466 O   0  0  0  0  0  0  0  0  0  0  0  0
   -0.3152    1.5926    4.8305 C   0  0  1  0  0  0  0  0  0  0  0  0
   -0.3367    1.0881    6.1647 O   0  0  0  0  0  0  0  0  0  0  0  0
   -0.9014    0.4581    4.0427 C   0  0  0  0  0  0  0  0  0  0  0  0
    0.0318   -0.2969    3.4942 C   0  0  0  0  0  0  0  0  0  0  0  0
    1.4566    0.1415    3.7302 C   0  0  1  0  0  0  0  0  0  0  0  0
    2.0309    0.1806    2.4514 O   0  0  0  0  0  0  0  0  0  0  0  0
    1.1392    1.6438    4.1644 C   0  0  1  0  0  0  0  0  0  0  0  0
    1.1557    2.5632    2.8971 C   0  0  0  0  0  0  0  0  0  0  0  0
    2.2681    2.2106    4.9848 C   0  0  0  0  0  0  0  0  0  0  0  0
    2.1022    3.0619    5.8831 O   0  0  0  0  0  0  0  0  0  0  0  0
    3.6368    1.6865    4.5794 C   0  0  1  0  0  0  0  0  0  0  0  0
    4.6089    2.4120    5.2761 O   0  0  0  0  0  0  0  0  0  0  0  0
    3.7699    0.1348    4.8181 C   0  0  2  0  0  0  0  0  0  0  0  0
    5.3086   -0.4678    3.9018 S   0  0  0  0  0  0  0  0  0  0  0  0
    6.3966    0.5342    4.1297 O   0  0  0  0  0  0  0  0  0  0  0  0
    4.8517   -0.6012    2.1313 C   0  0  0  0  0  0  0  0  0  0  0  0
    4.0969   -1.9337    1.7868 C   0  0  1  0  0  0  0  0  0  0  0  0
    3.5210   -1.6097    0.3785 C   0  0  0  0  0  0  0  0  0  0  0  0
    5.0345   -3.1384    1.4057 C   0  0  1  0  0  0  0  0  0  0  0  0
    6.1575   -3.3849    2.1882 O   0  0  0  0  0  0  0  0  0  0  0  0
    4.1166   -4.3150    1.5350 C   0  0  0  0  0  0  0  0  0  0  0  0
    2.9597   -3.9998    2.1110 C   0  0  0  0  0  0  0  0  0  0  0  0
    2.8460   -2.5632    2.6276 C   0  0  1  0  0  0  0  0  0  0  0  0
    2.4905   -2.4154    4.2566 C   0  0  1  0  0  0  0  0  0  0  0  0
    1.0436   -3.0182    4.4218 C   0  0  0  0  0  0  0  0  0  0  0  0
    0.6531   -4.0612    3.8937 O   0  0  0  0  0  0  0  0  0  0  0  0
    0.2999   -2.3629    5.3102 O   0  0  0  0  0  0  0  0  0  0  0  0
   -0.3185   -3.0096    6.3873 C   0  0  0  0  0  0  0  0  0  0  0  0
    0.7014   -3.0606    7.5341 C   0  0  1  0  0  0  0  0  0  0  0  0
    1.8242   -4.0555    7.2240 C   0  0  0  0  0  0  0  0  0  0  0  0
    2.9464   -3.4217    6.6160 O   0  0  0  0  0  0  0  0  0  0  0  0
    3.3238   -3.4585    5.2232 C   0  0  0  0  0  0  0  0  0  0  0  0
    3.4290   -5.0222    4.8765 C   0  0  0  0  0  0  0  0  0  0  0  0
    4.4838   -5.7721    5.7194 C   0  0  0  0  0  0  0  0  0  0  0  0
    5.8859   -5.1571    5.5678 C   0  0  0  0  0  0  0  0  0  0  0  0
    5.8084   -3.7216    6.0595 C   0  0  0  0  0  0  0  0  0  0  0  0
    4.7529   -2.9519    5.3183 C   0  0  0  0  0  0  0  0  0  0  0  0
    1.1770   -1.6704    8.0405 C   0  0  0  0  0  0  0  0  0  0  0  0
    0.6559   -1.0682    9.0972 C   0  0  0  0  0  0  0  0  0  0  0  0
    1.1374    0.2039    9.3180 O   0  0  0  0  0  0  0  0  0  0  0  0
    2.0247    0.5509    8.2568 C   0  0  1  0  0  0  0  0  0  0  0  0
    3.3152    1.2543    8.8152 C   0  0  2  0  0  0  0  0  0  0  0  0
    3.0133    2.5334    9.6049 C   0  0  0  0  0  0  0  0  0  0  0  0
    4.2040    1.6631    7.8174 O   0  0  0  0  0  0  0  0  0  0  0  0
    2.2159   -0.7716    7.3796 C   0  0  1  0  0  0  0  0  0  0  0  0
    3.5311   -1.1998    7.5829 O   0  0  0  0  0  0  0  0  0  0  0  0
    3.9198   -1.8527    8.8020 C   0  0  0  0  0  0  0  0  0  0  0  0
    1.8230   -0.4736    6.0246 O   0  0  0  0  0  0  0  0  0  0  0  0
    2.4347   -0.7577    4.7004 C   0  0  2  0  0  0  0  0  0  0  0  0
   -3.7802    5.8489    2.6676 H   0  0  0  0  0  0  0  0  0  0  0  0
   -3.7430    4.2541    1.9538 H   0  0  0  0  0  0  0  0  0  0  0  0
   -2.3242    5.3573    1.8225 H   0  0  0  0  0  0  0  0  0  0  0  0
   -2.4479    2.5052    3.0052 H   0  0  0  0  0  0  0  0  0  0  0  0
   -1.0983    3.6025    2.6641 H   0  0  0  0  0  0  0  0  0  0  0  0
    0.3041    0.4046    6.2123 H   0  0  0  0  0  0  0  0  0  0  0  0
   -1.9670    0.2810    3.9828 H   0  0  0  0  0  0  0  0  0  0  0  0
   -0.1777   -1.1779    2.9153 H   0  0  0  0  0  0  0  0  0  0  0  0
    1.4390    0.5821    1.8377 H   0  0  0  0  0  0  0  0  0  0  0  0
    0.4404    2.2291    2.1444 H   0  0  0  0  0  0  0  0  0  0  0  0
    2.1276    2.6123    2.3966 H   0  0  0  0  0  0  0  0  0  0  0  0
    0.9541    3.5944    3.1744 H   0  0  0  0  0  0  0  0  0  0  0  0
    3.7662    1.8737    3.5096 H   0  0  0  0  0  0  0  0  0  0  0  0
    5.4246    1.9873    5.0907 H   0  0  0  0  0  0  0  0  0  0  0  0
    4.1385    0.0672    5.8303 H   0  0  0  0  0  0  0  0  0  0  0  0
    4.3488    0.2980    1.7529 H   0  0  0  0  0  0  0  0  0  0  0  0
    5.7918   -0.5955    1.5629 H   0  0  0  0  0  0  0  0  0  0  0  0
    3.0369   -2.4707   -0.0932 H   0  0  0  0  0  0  0  0  0  0  0  0
    4.3154   -1.2821   -0.2988 H   0  0  0  0  0  0  0  0  0  0  0  0
    2.7765   -0.8175    0.4038 H   0  0  0  0  0  0  0  0  0  0  0  0
    5.4434   -3.0685    0.3909 H   0  0  0  0  0  0  0  0  0  0  0  0
    5.8782   -3.4923    3.0808 H   0  0  0  0  0  0  0  0  0  0  0  0
    4.3839   -5.2811    1.1116 H   0  0  0  0  0  0  0  0  0  0  0  0
    2.1650   -4.7421    2.1710 H   0  0  0  0  0  0  0  0  0  0  0  0
    1.9378   -2.2366    2.1011 H   0  0  0  0  0  0  0  0  0  0  0  0
   -1.1911   -2.4268    6.6772 H   0  0  0  0  0  0  0  0  0  0  0  0
   -0.6789   -4.0058    6.1125 H   0  0  0  0  0  0  0  0  0  0  0  0
    0.1538   -3.4974    8.3635 H   0  0  0  0  0  0  0  0  0  0  0  0
    2.1761   -4.4929    8.1590 H   0  0  0  0  0  0  0  0  0  0  0  0
    1.4268   -4.9009    6.6691 H   0  0  0  0  0  0  0  0  0  0  0  0
    2.4535   -5.5336    4.9355 H   0  0  0  0  0  0  0  0  0  0  0  0
    3.8375   -5.2159    3.8899 H   0  0  0  0  0  0  0  0  0  0  0  0
    4.2102   -5.8355    6.7756 H   0  0  0  0  0  0  0  0  0  0  0  0
    4.5276   -6.7783    5.3130 H   0  0  0  0  0  0  0  0  0  0  0  0
    6.6385   -5.7023    6.1464 H   0  0  0  0  0  0  0  0  0  0  0  0
    6.2203   -5.1697    4.5212 H   0  0  0  0  0  0  0  0  0  0  0  0
    5.6329   -3.6736    7.1385 H   0  0  0  0  0  0  0  0  0  0  0  0
    6.7464   -3.2167    5.8681 H   0  0  0  0  0  0  0  0  0  0  0  0
    5.0795   -2.9041    4.2788 H   0  0  0  0  0  0  0  0  0  0  0  0
    4.7823   -1.9724    5.7986 H   0  0  0  0  0  0  0  0  0  0  0  0
   -0.1112   -1.3767    9.7841 H   0  0  0  0  0  0  0  0  0  0  0  0
    1.5150    1.2858    7.6446 H   0  0  0  0  0  0  0  0  0  0  0  0
    3.8797    0.6242    9.4904 H   0  0  0  0  0  0  0  0  0  0  0  0
    2.3930    2.3265   10.4793 H   0  0  0  0  0  0  0  0  0  0  0  0
    2.5344    3.2989    8.9887 H   0  0  0  0  0  0  0  0  0  0  0  0
    3.9563    2.9481    9.9629 H   0  0  0  0  0  0  0  0  0  0  0  0
    3.7502    2.2564    7.2220 H   0  0  0  0  0  0  0  0  0  0  0  0
    5.0070   -1.8490    8.8595 H   0  0  0  0  0  0  0  0  0  0  0  0
    3.6171   -2.8929    8.8589 H   0  0  0  0  0  0  0  0  0  0  0  0
    3.5304   -1.3908    9.7055 H   0  0  0  0  0  0  0  0  0  0  0  0
  1  2  1  0
  1 55  1  0
  1 56  1  0
  1 57  1  0
  2  3  1  0
  3  4  1  0
  3 58  1  0
  3 59  1  0
  4  5  2  0
  4  6  1  0
  6 12  1  0
  6  7  1  1
  6  8  1  0
  7 60  1  0
  8  9  2  0
  8 61  1  0
  9 10  1  0
  9 62  1  0
 10 54  1  0
 10 11  1  6
 10 12  1  0
 11 63  1  0
 12 13  1  6
 12 14  1  0
 13 64  1  0
 13 65  1  0
 13 66  1  0
 14 15  2  0
 14 16  1  0
 16 17  1  0
 16 18  1  0
 16 67  1  6
 17 68  1  0
 18 54  1  0
 18 19  1  0
 18 69  1  1
 19 20  2  0
 19 21  1  6
 21 22  1  0
 21 70  1  0
 21 71  1  0
 22 28  1  0
 22 23  1  6
 22 24  1  0
 23 72  1  0
 23 73  1  0
 23 74  1  0
 24 25  1  0
 24 26  1  0
 24 75  1  6
 25 76  1  0
 26 27  2  0
 26 77  1  0
 27 28  1  0
 27 78  1  0
 28 29  1  0
 28 79  1  6
 29 37  1  1
 29 54  1  0
 29 30  1  0
 30 31  2  0
 30 32  1  0
 32 33  1  0
 33 34  1  0
 33 80  1  0
 33 81  1  0
 34 35  1  0
 34 43  1  0
 34 82  1  1
 35 36  1  0
 35 83  1  0
 35 84  1  0
 36 37  1  0
 37 42  1  0
 37 38  1  0
 38 39  1  0
 38 85  1  0
 38 86  1  0
 39 40  1  0
 39 87  1  0
 39 88  1  0
 40 41  1  0
 40 89  1  0
 40 90  1  0
 41 42  1  0
 41 91  1  0
 41 92  1  0
 42 93  1  0
 42 94  1  0
 43 50  1  0
 43 44  2  0
 44 45  1  0
 44 95  1  0
 45 46  1  0
 46 47  1  0
 46 50  1  0
 46 96  1  6
 47 48  1  0
 47 49  1  0
 47 97  1  1
 48 98  1  0
 48 99  1  0
 48100  1  0
 49101  1  0
 50 51  1  6
 50 53  1  0
 51 52  1  0
 52102  1  0
 52103  1  0
 52104  1  0
 54 53  1  1
M  END
>  <i_m_ct_stereo_status>  (45) 
1

>  <s_m_source_file>  (45) 
/var/tmp/pbs.5075288.sched01/tmpeqwi9iw0/66la8jmv2o.sdf

>  <i_m_source_file_index>  (45) 
23

>  <i_lp_mmshare_version>  (45) 
48012

>  <i_f3d_flags>  (45) 
0

>  <s_epik_input>  (45) 
W09IXVtDQEhdMVtDSF09W0NIXVtDQEBIXTJbQ0BAXTEoW0NIM10pW0NIMl1bUytdKFtPLV0pW0NASF0zW0NASF0oW09IXSlDKD1PKVtDQF0oW0NIM10pKFtDQF0oW09IXSkoW0NIXT1bQ0hdNClDKD1PKVtDSDJdT1tDSDNdKVtDQEBdNChbT0hdKVtDQF0zNU9bQ0BAXShPW0NIM10pKFtDQEBIXShPW0NIXTYpW0NASF0oW0NIM10pW09IXSlDPTZbQ0BASF0oW0NIMl1PQzc9TylbQ0gyXU9DOChbQ0BdMjU3KVtDSDJdW0NIMl1bQ0gyXVtDSDJdW0NIMl04

>  <s_epik_cmdline>  (45) 
J2VwaWtfcHl0aG9uJywgJy1waHQnLCAnMi4wJywgJy1waCcsICc3LjAnLCAnLXRuJywgJzgnLCAnLW1hJywgJzIwMCcsICctaW1hZScsICc8aW5maWxlLm1hZT4nLCAnLW9tYWUnLCAnPG91dGZpbGUubWFlPic=

>  <r_lp_tautomer_probability>  (45) 
1

>  <r_epik_Ionization_Penalty>  (45) 
4.68219e-05

>  <r_epik_Ionization_Penalty_Charging>  (45) 
0

>  <r_epik_Ionization_Penalty_Neutral>  (45) 
4.68219e-05

>  <r_epik_State_Penalty>  (45) 
-0

>  <r_epik_Charging_Adjusted_Penalty>  (45) 
0

>  <i_epik_Tot_Q>  (45) 
0

>  <i_epik_Tot_abs_Q>  (45) 
2

>  <s_epik_Chemistry_Notes>  (45) 
This compound has an ester and may undergo hydrolysis at high or low pH.

>  <s_lp_Force_Field>  (45) 
OPLS3e

>  <r_lp_Energy>  (45) 
179.919

>  <b_lp_Chiralities_Consistent>  (45) 
1

>  <s_lp_Variant>  (45) 
39:0-1

>  <s_i_glide_gridfile>  (45) 
pfpi4k_grid

>  <i_i_glide_lignum>  (45) 
23

>  <i_i_glide_rotatable_bonds>  (45) 
10

>  <r_i_docking_score>  (45) 
-3.9264

>  <r_i_glide_ligand_efficiency>  (45) 
-0.0727111

>  <r_i_glide_ligand_efficiency_sa>  (45) 
-0.274831

>  <r_i_glide_ligand_efficiency_ln>  (45) 
-0.787014

>  <r_i_glide_gscore>  (45) 
-3.9264

>  <r_i_glide_lipo>  (45) 
-0.197604

>  <r_i_glide_hbond>  (45) 
-0.150203

>  <r_i_glide_metal>  (45) 
-0

>  <r_i_glide_rewards>  (45) 
-1.66769

>  <r_i_glide_evdw>  (45) 
-23.9154

>  <r_i_glide_ecoul>  (45) 
-5.58619

>  <r_i_glide_erotb>  (45) 
0.107376

>  <r_i_glide_esite>  (45) 
-0.0196702

>  <r_i_glide_emodel>  (45) 
-48.8562

>  <r_i_glide_energy>  (45) 
-29.5016

>  <r_i_glide_einternal>  (45) 
1.23194

>  <r_i_glide_intrahb_reward>  (45) 
-1.5

>  <i_i_glide_confnum>  (45) 
1

>  <i_i_glide_posenum>  (45) 
27

>  <r_i_glide_eff_state_penalty>  (45) 
0

>  <ligand_id>  (45) 
39

>  <original_smiles>  (45) 
COCC(=O)C1(O)C=CC2(O)C1(C)C(=O)C(O)C1[S+]([O-])CC3(C)C(O)C=CC3C34C(=O)OCC(COC35CCCCC5)C3=COC(C(C)O)C3(OC)OC124

>  <smiles>  (45) 
[H]OC1([H])C(=O)C2(C([H])([H])[H])C(O[H])(C(=O)C([H])([H])OC([H])([H])[H])C([H])=C([H])C2(O[H])C23OC4(OC([H])([H])[H])C(=C([H])OC4([H])C([H])(O[H])C([H])([H])[H])C4([H])C([H])([H])OC(=O)C2(C2([H])C([H])=C([H])C([H])(O[H])C2(C([H])([H])[H])C([H])([H])S(=O)C13[H])C1(OC4([H])[H])C([H])([H])C([H])([H])C([H])([H])C([H])([H])C1([H])[H]

$$$$
39:0:1
     RDKit          3D

104111  0  0  1  0  0  0  0  0999 V2000
   -3.6900    3.9929    2.3952 C   0  0  0  0  0  0  0  0  0  0  0  0
   -2.6243    3.7849    3.2976 O   0  0  0  0  0  0  0  0  0  0  0  0
   -2.5844    2.4413    3.7489 C   0  0  0  0  0  0  0  0  0  0  0  0
   -1.6425    2.3450    4.9507 C   0  0  0  0  0  0  0  0  0  0  0  0
   -1.6183    3.2894    5.7611 O   0  0  0  0  0  0  0  0  0  0  0  0
   -0.7164    1.1269    5.1506 C   0  0  1  0  0  0  0  0  0  0  0  0
   -0.4833    0.9402    6.5384 O   0  0  0  0  0  0  0  0  0  0  0  0
   -1.3525   -0.1729    4.7296 C   0  0  0  0  0  0  0  0  0  0  0  0
   -0.4744   -1.0009    4.1954 C   0  0  0  0  0  0  0  0  0  0  0  0
    0.9399   -0.4622    4.0732 C   0  0  1  0  0  0  0  0  0  0  0  0
    1.2935   -0.6744    2.7405 O   0  0  0  0  0  0  0  0  0  0  0  0
    0.5987    1.0862    4.2348 C   0  0  1  0  0  0  0  0  0  0  0  0
    0.3128    1.7176    2.8220 C   0  0  0  0  0  0  0  0  0  0  0  0
    1.8171    1.8561    4.6976 C   0  0  0  0  0  0  0  0  0  0  0  0
    1.7393    2.8805    5.4100 O   0  0  0  0  0  0  0  0  0  0  0  0
    3.1401    1.3105    4.1737 C   0  0  1  0  0  0  0  0  0  0  0  0
    4.1604    2.2369    4.4742 O   0  0  0  0  0  0  0  0  0  0  0  0
    3.4266   -0.1500    4.6866 C   0  0  2  0  0  0  0  0  0  0  0  0
    4.8094   -0.8855    3.6547 S   0  0  0  0  0  0  0  0  0  0  0  0
    5.8094    0.2142    3.3154 O   0  0  0  0  0  0  0  0  0  0  0  0
    4.0656   -1.4216    2.0926 C   0  0  0  0  0  0  0  0  0  0  0  0
    3.3806   -2.8292    2.1767 C   0  0  1  0  0  0  0  0  0  0  0  0
    2.5612   -2.8384    0.8588 C   0  0  0  0  0  0  0  0  0  0  0  0
    4.3430   -4.0382    1.9001 C   0  0  1  0  0  0  0  0  0  0  0  0
    5.5981   -4.0253    2.5379 O   0  0  0  0  0  0  0  0  0  0  0  0
    3.5369   -5.1850    2.4270 C   0  0  0  0  0  0  0  0  0  0  0  0
    2.4616   -4.7992    3.1099 C   0  0  0  0  0  0  0  0  0  0  0  0
    2.3310   -3.2939    3.3309 C   0  0  1  0  0  0  0  0  0  0  0  0
    2.2358   -2.8031    4.9260 C   0  0  1  0  0  0  0  0  0  0  0  0
    0.8750   -3.4011    5.4625 C   0  0  0  0  0  0  0  0  0  0  0  0
    0.4399   -4.5284    5.2035 O   0  0  0  0  0  0  0  0  0  0  0  0
    0.2647   -2.5981    6.3274 O   0  0  0  0  0  0  0  0  0  0  0  0
   -0.1145   -3.0200    7.6038 C   0  0  0  0  0  0  0  0  0  0  0  0
    1.0793   -2.7745    8.5380 C   0  0  1  0  0  0  0  0  0  0  0  0
    2.2017   -3.7765    8.2458 C   0  0  0  0  0  0  0  0  0  0  0  0
    3.1533   -3.2512    7.3253 O   0  0  0  0  0  0  0  0  0  0  0  0
    3.2881   -3.5802    5.9287 C   0  0  0  0  0  0  0  0  0  0  0  0
    3.4427   -5.1745    5.9011 C   0  0  0  0  0  0  0  0  0  0  0  0
    4.6760   -5.6936    6.6764 C   0  0  0  0  0  0  0  0  0  0  0  0
    5.9836   -5.0782    6.1517 C   0  0  0  0  0  0  0  0  0  0  0  0
    5.8923   -3.5763    6.3396 C   0  0  0  0  0  0  0  0  0  0  0  0
    4.6718   -3.0236    5.6559 C   0  0  0  0  0  0  0  0  0  0  0  0
    1.5259   -1.2896    8.6506 C   0  0  0  0  0  0  0  0  0  0  0  0
    1.1506   -0.4865    9.6273 C   0  0  0  0  0  0  0  0  0  0  0  0
    1.5734    0.8146    9.4910 O   0  0  0  0  0  0  0  0  0  0  0  0
    2.2397    0.9516    8.2373 C   0  0  1  0  0  0  0  0  0  0  0  0
    3.5503    1.8039    8.3984 C   0  0  2  0  0  0  0  0  0  0  0  0
    3.3011    3.2205    8.9286 C   0  0  0  0  0  0  0  0  0  0  0  0
    4.2417    2.0018    7.1985 O   0  0  0  0  0  0  0  0  0  0  0  0
    2.3759   -0.5239    7.6361 C   0  0  1  0  0  0  0  0  0  0  0  0
    3.7348   -0.8546    7.6822 O   0  0  0  0  0  0  0  0  0  0  0  0
    4.3688   -1.2057    8.9225 C   0  0  0  0  0  0  0  0  0  0  0  0
    1.7417   -0.5436    6.3383 O   0  0  0  0  0  0  0  0  0  0  0  0
    2.1368   -1.0904    5.0139 C   0  0  2  0  0  0  0  0  0  0  0  0
   -3.6562    5.0251    2.0440 H   0  0  0  0  0  0  0  0  0  0  0  0
   -4.6527    3.8295    2.8796 H   0  0  0  0  0  0  0  0  0  0  0  0
   -3.6298    3.3149    1.5437 H   0  0  0  0  0  0  0  0  0  0  0  0
   -3.5783    2.1636    4.0849 H   0  0  0  0  0  0  0  0  0  0  0  0
   -2.3229    1.7605    2.9385 H   0  0  0  0  0  0  0  0  0  0  0  0
    0.2453    0.3501    6.6258 H   0  0  0  0  0  0  0  0  0  0  0  0
   -2.4033   -0.3839    4.8806 H   0  0  0  0  0  0  0  0  0  0  0  0
   -0.7189   -1.9910    3.8294 H   0  0  0  0  0  0  0  0  0  0  0  0
    0.7897   -0.1130    2.1728 H   0  0  0  0  0  0  0  0  0  0  0  0
   -0.4605    1.1850    2.2706 H   0  0  0  0  0  0  0  0  0  0  0  0
    1.1878    1.7324    2.1675 H   0  0  0  0  0  0  0  0  0  0  0  0
    0.0321    2.7672    2.9036 H   0  0  0  0  0  0  0  0  0  0  0  0
    3.0820    1.2804    3.0811 H   0  0  0  0  0  0  0  0  0  0  0  0
    4.6072    2.4472    3.6744 H   0  0  0  0  0  0  0  0  0  0  0  0
    3.9502    0.0194    5.6144 H   0  0  0  0  0  0  0  0  0  0  0  0
    3.4390   -0.6403    1.6346 H   0  0  0  0  0  0  0  0  0  0  0  0
    4.8870   -1.5055    1.3660 H   0  0  0  0  0  0  0  0  0  0  0  0
    2.0761   -3.7951    0.6649 H   0  0  0  0  0  0  0  0  0  0  0  0
    3.1834   -2.6213   -0.0098 H   0  0  0  0  0  0  0  0  0  0  0  0
    1.7830   -2.0882    0.8897 H   0  0  0  0  0  0  0  0  0  0  0  0
    4.5565   -4.1834    0.8346 H   0  0  0  0  0  0  0  0  0  0  0  0
    6.0788   -3.2683    2.2586 H   0  0  0  0  0  0  0  0  0  0  0  0
    3.7889   -6.2134    2.1771 H   0  0  0  0  0  0  0  0  0  0  0  0
    1.7360   -5.5321    3.4586 H   0  0  0  0  0  0  0  0  0  0  0  0
    1.3267   -3.1152    2.9228 H   0  0  0  0  0  0  0  0  0  0  0  0
   -0.9631   -2.4173    7.9083 H   0  0  0  0  0  0  0  0  0  0  0  0
   -0.4495   -4.0609    7.6161 H   0  0  0  0  0  0  0  0  0  0  0  0
    0.7046   -3.0345    9.5270 H   0  0  0  0  0  0  0  0  0  0  0  0
    2.7330   -3.9852    9.1747 H   0  0  0  0  0  0  0  0  0  0  0  0
    1.7742   -4.7312    7.9617 H   0  0  0  0  0  0  0  0  0  0  0  0
    2.5300   -5.6890    6.2390 H   0  0  0  0  0  0  0  0  0  0  0  0
    3.6920   -5.5623    4.9344 H   0  0  0  0  0  0  0  0  0  0  0  0
    4.5891   -5.5316    7.7548 H   0  0  0  0  0  0  0  0  0  0  0  0
    4.7229   -6.7601    6.4903 H   0  0  0  0  0  0  0  0  0  0  0  0
    6.8601   -5.4570    6.6846 H   0  0  0  0  0  0  0  0  0  0  0  0
    6.1348   -5.3010    5.0879 H   0  0  0  0  0  0  0  0  0  0  0  0
    5.8952   -3.2911    7.3938 H   0  0  0  0  0  0  0  0  0  0  0  0
    6.7483   -3.0994    5.8740 H   0  0  0  0  0  0  0  0  0  0  0  0
    4.8184   -3.1979    4.5894 H   0  0  0  0  0  0  0  0  0  0  0  0
    4.7136   -1.9672    5.8996 H   0  0  0  0  0  0  0  0  0  0  0  0
    0.5254   -0.6637   10.4888 H   0  0  0  0  0  0  0  0  0  0  0  0
    1.5845    1.5160    7.5885 H   0  0  0  0  0  0  0  0  0  0  0  0
    4.2687    1.3612    9.0796 H   0  0  0  0  0  0  0  0  0  0  0  0
    2.8492    3.1980    9.9203 H   0  0  0  0  0  0  0  0  0  0  0  0
    2.6782    3.8107    8.2527 H   0  0  0  0  0  0  0  0  0  0  0  0
    4.2612    3.7310    9.0156 H   0  0  0  0  0  0  0  0  0  0  0  0
    3.6574    2.4021    6.5612 H   0  0  0  0  0  0  0  0  0  0  0  0
    5.4473   -1.1524    8.7775 H   0  0  0  0  0  0  0  0  0  0  0  0
    4.1545   -2.2166    9.2564 H   0  0  0  0  0  0  0  0  0  0  0  0
    4.1094   -0.5649    9.7627 H   0  0  0  0  0  0  0  0  0  0  0  0
  1  2  1  0
  1 55  1  0
  1 56  1  0
  1 57  1  0
  2  3  1  0
  3  4  1  0
  3 58  1  0
  3 59  1  0
  4  5  2  0
  4  6  1  0
  6 12  1  0
  6  7  1  1
  6  8  1  0
  7 60  1  0
  8  9  2  0
  8 61  1  0
  9 10  1  0
  9 62  1  0
 10 54  1  0
 10 11  1  6
 10 12  1  0
 11 63  1  0
 12 13  1  6
 12 14  1  0
 13 64  1  0
 13 65  1  0
 13 66  1  0
 14 15  2  0
 14 16  1  0
 16 17  1  0
 16 18  1  0
 16 67  1  6
 17 68  1  0
 18 54  1  0
 18 19  1  0
 18 69  1  1
 19 20  2  0
 19 21  1  6
 21 22  1  0
 21 70  1  0
 21 71  1  0
 22 28  1  0
 22 23  1  6
 22 24  1  0
 23 72  1  0
 23 73  1  0
 23 74  1  0
 24 25  1  0
 24 26  1  0
 24 75  1  6
 25 76  1  0
 26 27  2  0
 26 77  1  0
 27 28  1  0
 27 78  1  0
 28 29  1  0
 28 79  1  6
 29 37  1  1
 29 54  1  0
 29 30  1  0
 30 31  2  0
 30 32  1  0
 32 33  1  0
 33 34  1  0
 33 80  1  0
 33 81  1  0
 34 35  1  0
 34 43  1  0
 34 82  1  1
 35 36  1  0
 35 83  1  0
 35 84  1  0
 36 37  1  0
 37 42  1  0
 37 38  1  0
 38 39  1  0
 38 85  1  0
 38 86  1  0
 39 40  1  0
 39 87  1  0
 39 88  1  0
 40 41  1  0
 40 89  1  0
 40 90  1  0
 41 42  1  0
 41 91  1  0
 41 92  1  0
 42 93  1  0
 42 94  1  0
 43 50  1  0
 43 44  2  0
 44 45  1  0
 44 95  1  0
 45 46  1  0
 46 47  1  0
 46 50  1  0
 46 96  1  6
 47 48  1  0
 47 49  1  0
 47 97  1  1
 48 98  1  0
 48 99  1  0
 48100  1  0
 49101  1  0
 50 51  1  6
 50 53  1  0
 51 52  1  0
 52102  1  0
 52103  1  0
 52104  1  0
 54 53  1  1
M  END
>  <i_m_ct_stereo_status>  (46) 
1

>  <s_m_source_file>  (46) 
/var/tmp/pbs.5075288.sched01/tmpeqwi9iw0/66la8jmv2o.sdf

>  <i_m_source_file_index>  (46) 
23

>  <i_lp_mmshare_version>  (46) 
48012

>  <i_f3d_flags>  (46) 
0

>  <s_epik_input>  (46) 
W09IXVtDQEhdMVtDSF09W0NIXVtDQEBIXTJbQ0BAXTEoW0NIM10pW0NIMl1bUytdKFtPLV0pW0NASF0zW0NASF0oW09IXSlDKD1PKVtDQF0oW0NIM10pKFtDQF0oW09IXSkoW0NIXT1bQ0hdNClDKD1PKVtDSDJdT1tDSDNdKVtDQEBdNChbT0hdKVtDQF0zNU9bQ0BAXShPW0NIM10pKFtDQEBIXShPW0NIXTYpW0NASF0oW0NIM10pW09IXSlDPTZbQ0BASF0oW0NIMl1PQzc9TylbQ0gyXU9DOChbQ0BdMjU3KVtDSDJdW0NIMl1bQ0gyXVtDSDJdW0NIMl04

>  <s_epik_cmdline>  (46) 
J2VwaWtfcHl0aG9uJywgJy1waHQnLCAnMi4wJywgJy1waCcsICc3LjAnLCAnLXRuJywgJzgnLCAnLW1hJywgJzIwMCcsICctaW1hZScsICc8aW5maWxlLm1hZT4nLCAnLW9tYWUnLCAnPG91dGZpbGUubWFlPic=

>  <r_lp_tautomer_probability>  (46) 
1

>  <r_epik_Ionization_Penalty>  (46) 
4.68219e-05

>  <r_epik_Ionization_Penalty_Charging>  (46) 
0

>  <r_epik_Ionization_Penalty_Neutral>  (46) 
4.68219e-05

>  <r_epik_State_Penalty>  (46) 
-0

>  <r_epik_Charging_Adjusted_Penalty>  (46) 
0

>  <i_epik_Tot_Q>  (46) 
0

>  <i_epik_Tot_abs_Q>  (46) 
2

>  <s_epik_Chemistry_Notes>  (46) 
This compound has an ester and may undergo hydrolysis at high or low pH.

>  <s_lp_Force_Field>  (46) 
OPLS3e

>  <r_lp_Energy>  (46) 
179.919

>  <b_lp_Chiralities_Consistent>  (46) 
1

>  <s_lp_Variant>  (46) 
39:0-1

>  <s_i_glide_gridfile>  (46) 
pfpi4k_grid

>  <i_i_glide_lignum>  (46) 
23

>  <i_i_glide_rotatable_bonds>  (46) 
10

>  <r_i_docking_score>  (46) 
-3.64287

>  <r_i_glide_ligand_efficiency>  (46) 
-0.0674606

>  <r_i_glide_ligand_efficiency_sa>  (46) 
-0.254985

>  <r_i_glide_ligand_efficiency_ln>  (46) 
-0.730183

>  <r_i_glide_gscore>  (46) 
-3.64287

>  <r_i_glide_lipo>  (46) 
-0.145968

>  <r_i_glide_hbond>  (46) 
-0.133095

>  <r_i_glide_metal>  (46) 
-0

>  <r_i_glide_rewards>  (46) 
-1.10485

>  <r_i_glide_evdw>  (46) 
-26.9289

>  <r_i_glide_ecoul>  (46) 
-7.77285

>  <r_i_glide_erotb>  (46) 
0.107376

>  <r_i_glide_esite>  (46) 
-0.0128221

>  <r_i_glide_emodel>  (46) 
-46.3065

>  <r_i_glide_energy>  (46) 
-34.7017

>  <r_i_glide_einternal>  (46) 
5.0066

>  <r_i_glide_intrahb_reward>  (46) 
-1

>  <i_i_glide_confnum>  (46) 
1

>  <i_i_glide_posenum>  (46) 
10

>  <r_i_glide_eff_state_penalty>  (46) 
0

>  <ligand_id>  (46) 
39

>  <original_smiles>  (46) 
COCC(=O)C1(O)C=CC2(O)C1(C)C(=O)C(O)C1[S+]([O-])CC3(C)C(O)C=CC3C34C(=O)OCC(COC35CCCCC5)C3=COC(C(C)O)C3(OC)OC124

>  <smiles>  (46) 
[H]OC1([H])C(=O)C2(C([H])([H])[H])C(O[H])(C(=O)C([H])([H])OC([H])([H])[H])C([H])=C([H])C2(O[H])C23OC4(OC([H])([H])[H])C(=C([H])OC4([H])C([H])(O[H])C([H])([H])[H])C4([H])C([H])([H])OC(=O)C2(C2([H])C([H])=C([H])C([H])(O[H])C2(C([H])([H])[H])C([H])([H])S(=O)C13[H])C1(OC4([H])[H])C([H])([H])C([H])([H])C([H])([H])C([H])([H])C1([H])[H]

$$$$
39:0:2
     RDKit          3D

104111  0  0  1  0  0  0  0  0999 V2000
    4.1826   -3.3406   -2.9456 C   0  0  0  0  0  0  0  0  0  0  0  0
    3.5270   -2.6696   -1.8818 O   0  0  0  0  0  0  0  0  0  0  0  0
    2.9710   -3.5143   -0.8885 C   0  0  0  0  0  0  0  0  0  0  0  0
    4.0669   -4.1337    0.0313 C   0  0  0  0  0  0  0  0  0  0  0  0
    5.2249   -3.7541   -0.0467 O   0  0  0  0  0  0  0  0  0  0  0  0
    3.6365   -5.0522    1.1986 C   0  0  1  0  0  0  0  0  0  0  0  0
    2.8179   -4.2443    2.0087 O   0  0  0  0  0  0  0  0  0  0  0  0
    2.7404   -6.1925    0.7943 C   0  0  0  0  0  0  0  0  0  0  0  0
    2.9678   -7.2845    1.5241 C   0  0  0  0  0  0  0  0  0  0  0  0
    4.0751   -7.1554    2.5581 C   0  0  1  0  0  0  0  0  0  0  0  0
    4.9018   -8.2530    2.3066 O   0  0  0  0  0  0  0  0  0  0  0  0
    4.8000   -5.8746    1.9308 C   0  0  1  0  0  0  0  0  0  0  0  0
    5.9108   -6.3395    0.9046 C   0  0  0  0  0  0  0  0  0  0  0  0
    5.5994   -5.1428    2.9894 C   0  0  0  0  0  0  0  0  0  0  0  0
    5.6981   -3.9088    3.0037 O   0  0  0  0  0  0  0  0  0  0  0  0
    6.2060   -6.0786    4.0487 C   0  0  1  0  0  0  0  0  0  0  0  0
    7.1227   -5.4046    4.8864 O   0  0  0  0  0  0  0  0  0  0  0  0
    5.1193   -6.8348    4.9006 C   0  0  2  0  0  0  0  0  0  0  0  0
    5.9938   -8.2221    5.8229 S   0  0  0  0  0  0  0  0  0  0  0  0
    7.3539   -7.6477    6.1622 O   0  0  0  0  0  0  0  0  0  0  0  0
    6.2017   -9.5285    4.6364 C   0  0  0  0  0  0  0  0  0  0  0  0
    4.9406  -10.4335    4.4089 C   0  0  1  0  0  0  0  0  0  0  0  0
    5.3282  -11.2245    3.1163 C   0  0  0  0  0  0  0  0  0  0  0  0
    4.8266  -11.6099    5.4462 C   0  0  1  0  0  0  0  0  0  0  0  0
    5.0702  -11.3144    6.8054 O   0  0  0  0  0  0  0  0  0  0  0  0
    3.3990  -11.9953    5.2894 C   0  0  0  0  0  0  0  0  0  0  0  0
    2.7001  -11.1439    4.5456 C   0  0  0  0  0  0  0  0  0  0  0  0
    3.4401   -9.8867    4.1396 C   0  0  1  0  0  0  0  0  0  0  0  0
    2.7311   -8.4584    4.6490 C   0  0  1  0  0  0  0  0  0  0  0  0
    1.3565   -8.3742    3.8655 C   0  0  0  0  0  0  0  0  0  0  0  0
    0.5923   -9.3174    3.6607 O   0  0  0  0  0  0  0  0  0  0  0  0
    1.0593   -7.1463    3.5160 O   0  0  0  0  0  0  0  0  0  0  0  0
   -0.1599   -6.5612    3.8463 C   0  0  0  0  0  0  0  0  0  0  0  0
    0.0164   -5.8886    5.2189 C   0  0  1  0  0  0  0  0  0  0  0  0
    0.1185   -6.9525    6.3152 C   0  0  0  0  0  0  0  0  0  0  0  0
    1.4702   -7.2940    6.5938 O   0  0  0  0  0  0  0  0  0  0  0  0
    2.1655   -8.4829    6.2004 C   0  0  0  0  0  0  0  0  0  0  0  0
    1.2512   -9.6937    6.7123 C   0  0  0  0  0  0  0  0  0  0  0  0
    1.0533   -9.6720    8.2597 C   0  0  0  0  0  0  0  0  0  0  0  0
    2.4012   -9.7504    8.9963 C   0  0  0  0  0  0  0  0  0  0  0  0
    3.1962   -8.5140    8.6094 C   0  0  0  0  0  0  0  0  0  0  0  0
    3.3637   -8.4048    7.1186 C   0  0  0  0  0  0  0  0  0  0  0  0
    1.0855   -4.7910    5.2792 C   0  0  0  0  0  0  0  0  0  0  0  0
    0.8244   -3.4821    5.1745 C   0  0  0  0  0  0  0  0  0  0  0  0
    1.9134   -2.6777    5.1555 O   0  0  0  0  0  0  0  0  0  0  0  0
    3.0929   -3.4842    5.1464 C   0  0  1  0  0  0  0  0  0  0  0  0
    4.1807   -2.9135    6.1257 C   0  0  2  0  0  0  0  0  0  0  0  0
    4.6216   -1.4850    5.7704 C   0  0  0  0  0  0  0  0  0  0  0  0
    5.3801   -3.6637    6.1324 O   0  0  0  0  0  0  0  0  0  0  0  0
    2.6033   -4.9835    5.3779 C   0  0  1  0  0  0  0  0  0  0  0  0
    3.0332   -5.3560    6.6567 O   0  0  0  0  0  0  0  0  0  0  0  0
    2.3700   -4.8693    7.8321 C   0  0  0  0  0  0  0  0  0  0  0  0
    3.0707   -5.8015    4.2783 O   0  0  0  0  0  0  0  0  0  0  0  0
    3.7034   -7.1350    4.1635 C   0  0  2  0  0  0  0  0  0  0  0  0
    4.6548   -2.6130   -3.6167 H   0  0  0  0  0  0  0  0  0  0  0  0
    3.4397   -3.8942   -3.5172 H   0  0  0  0  0  0  0  0  0  0  0  0
    4.9678   -4.0332   -2.6317 H   0  0  0  0  0  0  0  0  0  0  0  0
    2.3266   -2.9021   -0.2494 H   0  0  0  0  0  0  0  0  0  0  0  0
    2.2913   -4.2349   -1.3584 H   0  0  0  0  0  0  0  0  0  0  0  0
    3.3697   -3.5793    2.3894 H   0  0  0  0  0  0  0  0  0  0  0  0
    1.9929   -6.1259    0.0211 H   0  0  0  0  0  0  0  0  0  0  0  0
    2.4408   -8.2225    1.3688 H   0  0  0  0  0  0  0  0  0  0  0  0
    4.4813   -9.0388    2.6304 H   0  0  0  0  0  0  0  0  0  0  0  0
    5.4243   -6.9113    0.1108 H   0  0  0  0  0  0  0  0  0  0  0  0
    6.6383   -7.0132    1.3882 H   0  0  0  0  0  0  0  0  0  0  0  0
    6.4723   -5.5328    0.4825 H   0  0  0  0  0  0  0  0  0  0  0  0
    6.7995   -6.8202    3.5027 H   0  0  0  0  0  0  0  0  0  0  0  0
    7.3825   -6.0224    5.5681 H   0  0  0  0  0  0  0  0  0  0  0  0
    4.9171   -6.1311    5.6976 H   0  0  0  0  0  0  0  0  0  0  0  0
    6.6834   -9.1990    3.6904 H   0  0  0  0  0  0  0  0  0  0  0  0
    7.0029  -10.1800    5.0248 H   0  0  0  0  0  0  0  0  0  0  0  0
    4.5883  -11.9889    2.8678 H   0  0  0  0  0  0  0  0  0  0  0  0
    6.2858  -11.7342    3.2438 H   0  0  0  0  0  0  0  0  0  0  0  0
    5.4171  -10.5921    2.2333 H   0  0  0  0  0  0  0  0  0  0  0  0
    5.4683  -12.4708    5.1997 H   0  0  0  0  0  0  0  0  0  0  0  0
    4.4239  -11.8001    7.3121 H   0  0  0  0  0  0  0  0  0  0  0  0
    3.0243  -12.9694    5.6192 H   0  0  0  0  0  0  0  0  0  0  0  0
    1.6753  -11.3762    4.2592 H   0  0  0  0  0  0  0  0  0  0  0  0
    3.2747   -9.9319    3.0560 H   0  0  0  0  0  0  0  0  0  0  0  0
   -0.3526   -5.8252    3.0772 H   0  0  0  0  0  0  0  0  0  0  0  0
   -0.9945   -7.2686    3.8340 H   0  0  0  0  0  0  0  0  0  0  0  0
   -0.9351   -5.3933    5.4110 H   0  0  0  0  0  0  0  0  0  0  0  0
   -0.3120   -6.5448    7.2382 H   0  0  0  0  0  0  0  0  0  0  0  0
   -0.5098   -7.7966    6.0515 H   0  0  0  0  0  0  0  0  0  0  0  0
    0.2665   -9.7476    6.2058 H   0  0  0  0  0  0  0  0  0  0  0  0
    1.7246  -10.6361    6.5724 H   0  0  0  0  0  0  0  0  0  0  0  0
    0.4670   -8.8152    8.6126 H   0  0  0  0  0  0  0  0  0  0  0  0
    0.5030  -10.5701    8.5061 H   0  0  0  0  0  0  0  0  0  0  0  0
    2.2754   -9.8035   10.0803 H   0  0  0  0  0  0  0  0  0  0  0  0
    2.9585  -10.6474    8.7057 H   0  0  0  0  0  0  0  0  0  0  0  0
    2.7332   -7.6127    9.0236 H   0  0  0  0  0  0  0  0  0  0  0  0
    4.1927   -8.5893    9.0223 H   0  0  0  0  0  0  0  0  0  0  0  0
    3.9754   -9.2695    6.8201 H   0  0  0  0  0  0  0  0  0  0  0  0
    3.9280   -7.4880    6.9802 H   0  0  0  0  0  0  0  0  0  0  0  0
   -0.1301   -2.9877    5.0510 H   0  0  0  0  0  0  0  0  0  0  0  0
    3.5081   -3.4253    4.1537 H   0  0  0  0  0  0  0  0  0  0  0  0
    3.8316   -2.8551    7.1520 H   0  0  0  0  0  0  0  0  0  0  0  0
    3.7844   -0.7891    5.8210 H   0  0  0  0  0  0  0  0  0  0  0  0
    5.0912   -1.4256    4.7855 H   0  0  0  0  0  0  0  0  0  0  0  0
    5.3591   -1.1660    6.5053 H   0  0  0  0  0  0  0  0  0  0  0  0
    5.7142   -3.7185    5.2444 H   0  0  0  0  0  0  0  0  0  0  0  0
    3.0187   -5.0561    8.6830 H   0  0  0  0  0  0  0  0  0  0  0  0
    1.4342   -5.3749    8.0434 H   0  0  0  0  0  0  0  0  0  0  0  0
    2.1344   -3.8081    7.8102 H   0  0  0  0  0  0  0  0  0  0  0  0
  1  2  1  0
  1 55  1  0
  1 56  1  0
  1 57  1  0
  2  3  1  0
  3  4  1  0
  3 58  1  0
  3 59  1  0
  4  5  2  0
  4  6  1  0
  6 12  1  0
  6  7  1  1
  6  8  1  0
  7 60  1  0
  8  9  2  0
  8 61  1  0
  9 10  1  0
  9 62  1  0
 10 54  1  0
 10 11  1  1
 10 12  1  0
 11 63  1  0
 12 13  1  6
 12 14  1  0
 13 64  1  0
 13 65  1  0
 13 66  1  0
 14 15  2  0
 14 16  1  0
 16 17  1  0
 16 18  1  0
 16 67  1  6
 17 68  1  0
 18 54  1  0
 18 19  1  0
 18 69  1  1
 19 20  2  0
 19 21  1  6
 21 22  1  0
 21 70  1  0
 21 71  1  0
 22 28  1  0
 22 23  1  6
 22 24  1  0
 23 72  1  0
 23 73  1  0
 23 74  1  0
 24 25  1  0
 24 26  1  0
 24 75  1  6
 25 76  1  0
 26 27  2  0
 26 77  1  0
 27 28  1  0
 27 78  1  0
 28 29  1  0
 28 79  1  6
 29 37  1  1
 29 54  1  0
 29 30  1  0
 30 31  2  0
 30 32  1  0
 32 33  1  0
 33 34  1  0
 33 80  1  0
 33 81  1  0
 34 35  1  0
 34 43  1  0
 34 82  1  1
 35 36  1  0
 35 83  1  0
 35 84  1  0
 36 37  1  0
 37 42  1  0
 37 38  1  0
 38 39  1  0
 38 85  1  0
 38 86  1  0
 39 40  1  0
 39 87  1  0
 39 88  1  0
 40 41  1  0
 40 89  1  0
 40 90  1  0
 41 42  1  0
 41 91  1  0
 41 92  1  0
 42 93  1  0
 42 94  1  0
 43 50  1  0
 43 44  2  0
 44 45  1  0
 44 95  1  0
 45 46  1  0
 46 47  1  0
 46 50  1  0
 46 96  1  6
 47 48  1  0
 47 49  1  0
 47 97  1  1
 48 98  1  0
 48 99  1  0
 48100  1  0
 49101  1  0
 50 51  1  1
 50 53  1  0
 51 52  1  0
 52102  1  0
 52103  1  0
 52104  1  0
 54 53  1  6
M  END
>  <i_m_ct_stereo_status>  (47) 
1

>  <s_m_source_file>  (47) 
/var/tmp/pbs.5075288.sched01/tmpeqwi9iw0/66la8jmv2o.sdf

>  <i_m_source_file_index>  (47) 
23

>  <i_lp_mmshare_version>  (47) 
48012

>  <i_f3d_flags>  (47) 
0

>  <s_epik_input>  (47) 
W09IXVtDQEhdMVtDSF09W0NIXVtDQEBIXTJbQ0BAXTEoW0NIM10pW0NIMl1bUytdKFtPLV0pW0NASF0zW0NASF0oW09IXSlDKD1PKVtDQF0oW0NIM10pKFtDQF0oW09IXSkoW0NIXT1bQ0hdNClDKD1PKVtDSDJdT1tDSDNdKVtDQEBdNChbT0hdKVtDQF0zNU9bQ0BAXShPW0NIM10pKFtDQEBIXShPW0NIXTYpW0NASF0oW0NIM10pW09IXSlDPTZbQ0BASF0oW0NIMl1PQzc9TylbQ0gyXU9DOChbQ0BdMjU3KVtDSDJdW0NIMl1bQ0gyXVtDSDJdW0NIMl04

>  <s_epik_cmdline>  (47) 
J2VwaWtfcHl0aG9uJywgJy1waHQnLCAnMi4wJywgJy1waCcsICc3LjAnLCAnLXRuJywgJzgnLCAnLW1hJywgJzIwMCcsICctaW1hZScsICc8aW5maWxlLm1hZT4nLCAnLW9tYWUnLCAnPG91dGZpbGUubWFlPic=

>  <r_lp_tautomer_probability>  (47) 
1

>  <r_epik_Ionization_Penalty>  (47) 
4.68219e-05

>  <r_epik_Ionization_Penalty_Charging>  (47) 
0

>  <r_epik_Ionization_Penalty_Neutral>  (47) 
4.68219e-05

>  <r_epik_State_Penalty>  (47) 
-0

>  <r_epik_Charging_Adjusted_Penalty>  (47) 
0

>  <i_epik_Tot_Q>  (47) 
0

>  <i_epik_Tot_abs_Q>  (47) 
2

>  <s_epik_Chemistry_Notes>  (47) 
This compound has an ester and may undergo hydrolysis at high or low pH.

>  <s_lp_Force_Field>  (47) 
OPLS3e

>  <r_lp_Energy>  (47) 
179.919

>  <b_lp_Chiralities_Consistent>  (47) 
1

>  <s_lp_Variant>  (47) 
39:0-1

>  <s_i_glide_gridfile>  (47) 
pfpi4k_grid

>  <i_i_glide_lignum>  (47) 
23

>  <i_i_glide_rotatable_bonds>  (47) 
10

>  <r_i_docking_score>  (47) 
-2.96531

>  <r_i_glide_ligand_efficiency>  (47) 
-0.0549131

>  <r_i_glide_ligand_efficiency_sa>  (47) 
-0.207559

>  <r_i_glide_ligand_efficiency_ln>  (47) 
-0.594371

>  <r_i_glide_gscore>  (47) 
-2.96531

>  <r_i_glide_lipo>  (47) 
-0.186578

>  <r_i_glide_hbond>  (47) 
0

>  <r_i_glide_metal>  (47) 
-0

>  <r_i_glide_rewards>  (47) 
-1.51324

>  <r_i_glide_evdw>  (47) 
-26.775

>  <r_i_glide_ecoul>  (47) 
-1.77078

>  <r_i_glide_erotb>  (47) 
0.107376

>  <r_i_glide_esite>  (47) 
-0.0157026

>  <r_i_glide_emodel>  (47) 
-43.2392

>  <r_i_glide_energy>  (47) 
-28.5458

>  <r_i_glide_einternal>  (47) 
5.41229

>  <r_i_glide_intrahb_reward>  (47) 
-1.5

>  <i_i_glide_confnum>  (47) 
2

>  <i_i_glide_posenum>  (47) 
2

>  <r_i_glide_eff_state_penalty>  (47) 
0

>  <ligand_id>  (47) 
39

>  <original_smiles>  (47) 
COCC(=O)C1(O)C=CC2(O)C1(C)C(=O)C(O)C1[S+]([O-])CC3(C)C(O)C=CC3C34C(=O)OCC(COC35CCCCC5)C3=COC(C(C)O)C3(OC)OC124

>  <smiles>  (47) 
[H]OC1([H])C(=O)C2(C([H])([H])[H])C(O[H])(C(=O)C([H])([H])OC([H])([H])[H])C([H])=C([H])C2(O[H])C23OC4(OC([H])([H])[H])C(=C([H])OC4([H])C([H])(O[H])C([H])([H])[H])C4([H])C([H])([H])OC(=O)C2(C2([H])C([H])=C([H])C([H])(O[H])C2(C([H])([H])[H])C([H])([H])S(=O)C13[H])C1(OC4([H])[H])C([H])([H])C([H])([H])C([H])([H])C([H])([H])C1([H])[H]

$$$$
41:0:0
     RDKit          3D

119128  0  0  1  0  0  0  0  0999 V2000
    5.0116   -6.6181    0.6035 C   0  0  0  0  0  0  0  0  0  0  0  0
    4.4216   -5.4498    0.9181 C   0  0  0  0  0  0  0  0  0  0  0  0
    3.0432   -5.1250    0.6253 C   0  0  0  0  0  0  0  0  0  0  0  0
    2.1869   -5.8599    0.1306 O   0  0  0  0  0  0  0  0  0  0  0  0
    2.8546   -3.8554    0.9930 O   0  0  0  0  0  0  0  0  0  0  0  0
    3.7973   -3.2373    1.8876 C   0  0  1  0  0  0  0  0  0  0  0  0
    3.9296   -1.7686    1.4061 C   0  0  0  0  0  0  0  0  0  0  0  0
    5.0982   -1.1032    1.2738 C   0  0  0  0  0  0  0  0  0  0  0  0
    2.6544   -1.0463    1.0090 C   0  0  0  0  0  0  0  0  0  0  0  0
    2.9957   -3.4687    3.2722 C   0  0  0  0  0  0  0  0  0  0  0  0
    2.8790   -2.7414    4.7841 C   0  0  2  0  0  0  0  0  0  0  0  0
    2.7923   -4.1244    5.5216 C   0  0  0  0  0  0  0  0  0  0  0  0
    1.3443   -2.1477    5.0625 C   0  0  0  0  0  0  0  0  0  0  0  0
    0.9448   -1.4146    3.7750 C   0  0  0  0  0  0  0  0  0  0  0  0
    0.3035   -3.3469    4.9214 C   0  0  0  0  0  0  0  0  0  0  0  0
    0.8492   -1.2529    6.4285 C   0  0  2  0  0  0  0  0  0  0  0  0
    0.9647    0.2366    6.5352 C   0  0  0  0  0  0  0  0  0  0  0  0
    0.4650    0.9517    7.4224 O   0  0  0  0  0  0  0  0  0  0  0  0
    1.4444    0.6152    5.5329 O   0  0  0  0  0  0  0  0  0  0  0  0
    1.5372    1.9335    5.2584 C   0  0  1  0  0  0  0  0  0  0  0  0
    3.0952    1.8861    5.1384 C   0  0  2  0  0  0  0  0  0  0  0  0
    3.3804    3.1081    4.4953 O   0  0  0  0  0  0  0  0  0  0  0  0
    3.6891    0.7413    4.2912 C   0  0  0  0  0  0  0  0  0  0  0  0
    3.6679    0.7202    3.0610 O   0  0  0  0  0  0  0  0  0  0  0  0
    4.5021   -0.2345    5.1489 C   0  0  1  0  0  0  0  0  0  0  0  0
    5.9703    0.1330    4.6956 C   0  0  0  0  0  0  0  0  0  0  0  0
    4.4611    0.3699    6.4164 O   0  0  0  0  0  0  0  0  0  0  0  0
    3.8961    1.6572    6.5151 C   0  0  1  0  0  0  0  0  0  0  0  0
    5.0541    2.6702    6.6661 C   0  0  0  0  0  0  0  0  0  0  0  0
    3.2308    1.4197    7.9339 C   0  0  1  0  0  0  0  0  0  0  0  0
    2.4037    2.4616    8.3990 O   0  0  0  0  0  0  0  0  0  0  0  0
    2.9306   -0.3743    8.5405 S   0  0  0  0  0  0  0  0  0  0  0  0
    2.7290   -0.2985   10.0556 O   0  0  0  0  0  0  0  0  0  0  0  0
    1.5060   -1.4830    7.8935 C   0  0  2  0  0  0  0  0  0  0  0  0
    1.8552   -2.8834    8.3892 C   0  0  1  0  0  0  0  0  0  0  0  0
    3.2735   -3.4114    8.4313 C   0  0  0  0  0  0  0  0  0  0  0  0
    4.4747   -3.3049    7.7879 C   0  0  0  0  0  0  0  0  0  0  0  0
    5.1627   -2.5751    6.5966 C   0  0  1  0  0  0  0  0  0  0  0  0
    6.0010   -1.5393    7.4570 C   0  0  0  0  0  0  0  0  0  0  0  0
    6.3528   -3.5580    6.0805 C   0  0  1  0  0  0  0  0  0  0  0  0
    7.4065   -3.8053    7.0262 O   0  0  0  0  0  0  0  0  0  0  0  0
    6.0423   -4.9407    5.4863 C   0  0  2  0  0  0  0  0  0  0  0  0
    5.5546   -5.8353    6.4917 O   0  0  0  0  0  0  0  0  0  0  0  0
    7.0684   -5.4895    4.6742 O   0  0  0  0  0  0  0  0  0  0  0  0
    5.8111   -5.3670    3.9936 C   0  0  1  0  0  0  0  0  0  0  0  0
    5.1790   -6.7319    3.7420 C   0  0  0  0  0  0  0  0  0  0  0  0
    6.1079   -4.5707    2.6734 C   0  0  0  0  0  0  0  0  0  0  0  0
    5.0334   -4.2462    1.5772 C   0  0  1  0  0  0  0  0  0  0  0  0
    5.8887   -3.7215    0.5709 O   0  0  0  0  0  0  0  0  0  0  0  0
    4.2363   -1.8900    5.3360 C   0  0  1  0  0  0  0  0  0  0  0  0
    5.0068   -2.2303    4.2247 O   0  0  0  0  0  0  0  0  0  0  0  0
    1.0524   -3.4293    9.5648 C   0  0  0  0  0  0  0  0  0  0  0  0
    0.8107   -3.8674    8.2331 O   0  0  0  0  0  0  0  0  0  0  0  0
    0.4522    1.9765    4.1324 C   0  0  2  0  0  0  0  0  0  0  0  0
    1.0374    1.8279    2.8511 O   0  0  0  0  0  0  0  0  0  0  0  0
   -0.3208    3.3078    4.1225 C   0  0  0  0  0  0  0  0  0  0  0  0
   -0.0822    4.4806    3.8584 O   0  0  0  0  0  0  0  0  0  0  0  0
   -1.5307    2.6430    4.5137 C   0  0  0  0  0  0  0  0  0  0  0  0
   -2.6904    3.1772    4.9191 C   0  0  0  0  0  0  0  0  0  0  0  0
   -0.9775    1.2053    4.3155 C   0  0  1  0  0  0  0  0  0  0  0  0
   -1.4405    0.7270    3.0683 O   0  0  0  0  0  0  0  0  0  0  0  0
   -1.5108    0.2189    5.5277 C   0  0  1  0  0  0  0  0  0  0  0  0
   -2.6345   -0.5057    5.0407 O   0  0  0  0  0  0  0  0  0  0  0  0
   -0.7589   -1.0307    6.3239 C   0  0  1  0  0  0  0  0  0  0  0  0
   -1.5067   -2.2358    6.4463 O   0  0  0  0  0  0  0  0  0  0  0  0
    6.0470   -6.8005    0.8551 H   0  0  0  0  0  0  0  0  0  0  0  0
    4.4691   -7.4074    0.1155 H   0  0  0  0  0  0  0  0  0  0  0  0
    6.0547   -1.5306    1.5463 H   0  0  0  0  0  0  0  0  0  0  0  0
    5.1008   -0.0927    0.8908 H   0  0  0  0  0  0  0  0  0  0  0  0
    2.1709   -0.4930    1.7849 H   0  0  0  0  0  0  0  0  0  0  0  0
    1.9231   -1.7676    0.6441 H   0  0  0  0  0  0  0  0  0  0  0  0
    2.8470   -0.3194    0.2128 H   0  0  0  0  0  0  0  0  0  0  0  0
    1.9834   -3.6999    2.9755 H   0  0  0  0  0  0  0  0  0  0  0  0
    3.3788   -4.4731    3.4094 H   0  0  0  0  0  0  0  0  0  0  0  0
    2.2254   -4.1314    6.4180 H   0  0  0  0  0  0  0  0  0  0  0  0
    3.7392   -4.5578    5.7099 H   0  0  0  0  0  0  0  0  0  0  0  0
    2.2691   -4.9294    5.0063 H   0  0  0  0  0  0  0  0  0  0  0  0
   -0.0388   -1.0005    3.8532 H   0  0  0  0  0  0  0  0  0  0  0  0
    0.8404   -2.0262    2.8889 H   0  0  0  0  0  0  0  0  0  0  0  0
    1.6464   -0.6514    3.5532 H   0  0  0  0  0  0  0  0  0  0  0  0
   -0.6457   -3.0245    4.4930 H   0  0  0  0  0  0  0  0  0  0  0  0
    0.1076   -3.8478    5.8722 H   0  0  0  0  0  0  0  0  0  0  0  0
    0.5264   -4.1455    4.2277 H   0  0  0  0  0  0  0  0  0  0  0  0
    1.2506    2.6194    6.0594 H   0  0  0  0  0  0  0  0  0  0  0  0
    2.9520    3.0852    3.6473 H   0  0  0  0  0  0  0  0  0  0  0  0
    6.1027    0.3168    3.6170 H   0  0  0  0  0  0  0  0  0  0  0  0
    6.6128   -0.6389    4.9233 H   0  0  0  0  0  0  0  0  0  0  0  0
    6.4062    0.9993    5.2063 H   0  0  0  0  0  0  0  0  0  0  0  0
    4.6830    3.6231    7.0340 H   0  0  0  0  0  0  0  0  0  0  0  0
    5.5604    2.8764    5.7275 H   0  0  0  0  0  0  0  0  0  0  0  0
    5.8098    2.3113    7.3603 H   0  0  0  0  0  0  0  0  0  0  0  0
    4.0678    1.5698    8.6091 H   0  0  0  0  0  0  0  0  0  0  0  0
    2.9456    3.1684    8.7040 H   0  0  0  0  0  0  0  0  0  0  0  0
    0.7117   -1.1937    8.5854 H   0  0  0  0  0  0  0  0  0  0  0  0
    3.3896   -4.1193    9.2383 H   0  0  0  0  0  0  0  0  0  0  0  0
    5.1981   -3.9304    8.2873 H   0  0  0  0  0  0  0  0  0  0  0  0
    6.7523   -0.9710    6.9221 H   0  0  0  0  0  0  0  0  0  0  0  0
    6.5638   -2.0014    8.2695 H   0  0  0  0  0  0  0  0  0  0  0  0
    5.4151   -0.8448    8.0409 H   0  0  0  0  0  0  0  0  0  0  0  0
    6.8900   -3.0299    5.3206 H   0  0  0  0  0  0  0  0  0  0  0  0
    7.0879   -4.3455    7.7287 H   0  0  0  0  0  0  0  0  0  0  0  0
    6.1803   -5.8384    7.1984 H   0  0  0  0  0  0  0  0  0  0  0  0
    4.1765   -6.6169    3.3406 H   0  0  0  0  0  0  0  0  0  0  0  0
    5.0990   -7.3369    4.6465 H   0  0  0  0  0  0  0  0  0  0  0  0
    5.7989   -7.3024    3.0575 H   0  0  0  0  0  0  0  0  0  0  0  0
    6.5389   -3.5882    2.8721 H   0  0  0  0  0  0  0  0  0  0  0  0
    6.9279   -5.1377    2.2054 H   0  0  0  0  0  0  0  0  0  0  0  0
    5.3707   -3.4611   -0.1742 H   0  0  0  0  0  0  0  0  0  0  0  0
    4.6416   -1.7877    3.4695 H   0  0  0  0  0  0  0  0  0  0  0  0
    1.4656   -4.2108   10.2046 H   0  0  0  0  0  0  0  0  0  0  0  0
    0.2579   -2.8324   10.0034 H   0  0  0  0  0  0  0  0  0  0  0  0
    0.5046    2.3235    2.2418 H   0  0  0  0  0  0  0  0  0  0  0  0
   -2.8293    4.2365    4.9870 H   0  0  0  0  0  0  0  0  0  0  0  0
   -3.5128    2.5634    5.2134 H   0  0  0  0  0  0  0  0  0  0  0  0
   -2.3646    0.9586    3.0138 H   0  0  0  0  0  0  0  0  0  0  0  0
   -1.8534    0.9022    6.3318 H   0  0  0  0  0  0  0  0  0  0  0  0
   -3.0629    0.1472    4.4660 H   0  0  0  0  0  0  0  0  0  0  0  0
   -1.0326   -0.7782    7.3357 H   0  0  0  0  0  0  0  0  0  0  0  0
   -1.3903   -2.7961    5.7529 H   0  0  0  0  0  0  0  0  0  0  0  0
  1  2  2  0
  1 66  1  0
  1 67  1  0
  2 48  1  0
  2  3  1  0
  3  4  2  0
  3  5  1  0
  5  6  1  0
  6 48  1  0
  6  7  1  6
  6 10  1  0
  7  8  2  0
  7  9  1  0
  8 68  1  0
  8 69  1  0
  9 70  1  0
  9 71  1  0
  9 72  1  0
 10 11  1  0
 10 73  1  0
 10 74  1  0
 11 50  1  0
 11 12  1  1
 11 13  1  0
 12 75  1  0
 12 76  1  0
 12 77  1  0
 13 14  1  0
 13 15  1  0
 16 13  1  6
 14 78  1  0
 14 79  1  0
 14 80  1  0
 15 81  1  0
 15 82  1  0
 15 83  1  0
 16 34  1  0
 16 64  1  0
 16 17  1  0
 17 18  2  0
 17 19  1  0
 19 20  1  0
 20 21  1  0
 20 54  1  0
 20 84  1  1
 21 28  1  0
 21 22  1  6
 21 23  1  0
 22 85  1  0
 23 24  2  0
 23 25  1  0
 25 50  1  0
 25 26  1  6
 25 27  1  0
 26 86  1  0
 26 87  1  0
 26 88  1  0
 27 28  1  0
 28 29  1  1
 28 30  1  0
 29 89  1  0
 29 90  1  0
 29 91  1  0
 30 31  1  0
 32 30  1  6
 30 92  1  1
 31 93  1  0
 32 33  2  0
 32 34  1  0
 34 35  1  0
 34 94  1  1
 35 53  1  6
 35 36  1  0
 35 52  1  0
 36 37  2  3
 36 95  1  0
 37 38  1  0
 37 96  1  0
 38 39  1  1
 38 40  1  0
 38 50  1  0
 39 97  1  0
 39 98  1  0
 39 99  1  0
 40 41  1  0
 40 42  1  0
 40100  1  6
 41101  1  0
 42 45  1  0
 42 43  1  1
 42 44  1  0
 43102  1  0
 44 45  1  0
 45 46  1  1
 45 47  1  0
 46103  1  0
 46104  1  0
 46105  1  0
 47 48  1  0
 47106  1  0
 47107  1  0
 48 49  1  6
 49108  1  0
 50 51  1  6
 51109  1  0
 52 53  1  0
 52110  1  0
 52111  1  0
 54 60  1  0
 54 55  1  6
 54 56  1  0
 55112  1  0
 56 57  2  0
 56 58  1  0
 58 59  2  0
 58 60  1  0
 59113  1  0
 59114  1  0
 60 61  1  6
 60 62  1  0
 61115  1  0
 62 63  1  0
 62 64  1  0
 62116  1  1
 63117  1  0
 64 65  1  0
 64118  1  1
 65119  1  0
M  END
>  <i_m_ct_stereo_status>  (48) 
1

>  <s_m_source_file>  (48) 
/var/tmp/pbs.5075288.sched01/tmpeqwi9iw0/66la8jmv2o.sdf

>  <i_m_source_file_index>  (48) 
26

>  <i_lp_mmshare_version>  (48) 
48012

>  <i_f3d_flags>  (48) 
0

>  <s_epik_input>  (48) 
W09IXVtDQEhdMVtDQEBdKE8yKShbT0hdKVtDQEBdMihbQ0gzXSlbQ0gyXVtDQEBdKFtPSF0pKEMoPVtDSDJdKUMoPU8pTzMpW0NAXTMoQyg9W0NIMl0pW0NIM10pW0NIMl1bQ0BdKFtDSDNdKShDNChbQ0gzXSlbQ0gzXSlbQ0BdKFtPSF0pKFtDQEBdMShbQ0gzXSkvW0NIXT1bQ0hdXEM1KFtDQEBIXTZbQ0BdNDc4KVtDSDJdTzUpW0NAQF05KFtDSDNdKUMoPU8pW0NAXShbT0hdKShbQ0BAXShPOSkoW0NIM10pW0NAQEhdKFtPSF0pW1MrXTZbTy1dKVtDQEhdKE9DNz1PKVtDQEBdMShbT0hdKVtDQF0oW09IXSkoQyhDMT1PKT1bQ0gyXSlbQ0BASF0oW09IXSlbQ0BIXThbT0hd

>  <s_epik_cmdline>  (48) 
J2VwaWtfcHl0aG9uJywgJy1waHQnLCAnMi4wJywgJy1waCcsICc3LjAnLCAnLXRuJywgJzgnLCAnLW1hJywgJzIwMCcsICctaW1hZScsICc8aW5maWxlLm1hZT4nLCAnLW9tYWUnLCAnPG91dGZpbGUubWFlPic=

>  <r_epik_Ionization_Penalty>  (48) 
0.00240258

>  <r_epik_Ionization_Penalty_Charging>  (48) 
0

>  <r_epik_Ionization_Penalty_Neutral>  (48) 
0.00240258

>  <r_epik_State_Penalty>  (48) 
0.00131194

>  <r_epik_Charging_Adjusted_Penalty>  (48) 
0.00131194

>  <i_epik_Tot_Q>  (48) 
0

>  <i_epik_Tot_abs_Q>  (48) 
2

>  <s_epik_Chemistry_Notes>  (48) 
This compound has an ester and may undergo hydrolysis at high or low pH. This compound contains an acetal/aminal-like group ( X-CH(R)-Y where X, Y are N, S, or O) that may be acid/base labile, releasing an aldehyde.

>  <s_lp_Force_Field>  (48) 
OPLS3e

>  <r_lp_Energy>  (48) 
496.344

>  <b_lp_Chiralities_Consistent>  (48) 
1

>  <s_lp_Variant>  (48) 
41:0-1

>  <s_i_glide_gridfile>  (48) 
pfpi4k_grid

>  <i_i_glide_lignum>  (48) 
26

>  <i_i_glide_rotatable_bonds>  (48) 
11

>  <r_i_docking_score>  (48) 
-1.2573

>  <r_i_glide_ligand_efficiency>  (48) 
-0.019343

>  <r_i_glide_ligand_efficiency_sa>  (48) 
-0.0777729

>  <r_i_glide_ligand_efficiency_ln>  (48) 
-0.242984

>  <r_i_glide_gscore>  (48) 
-1.2573

>  <r_i_glide_lipo>  (48) 
-0.483991

>  <r_i_glide_hbond>  (48) 
0

>  <r_i_glide_metal>  (48) 
-0

>  <r_i_glide_rewards>  (48) 
-0.00429813

>  <r_i_glide_evdw>  (48) 
-7.90418

>  <r_i_glide_ecoul>  (48) 
-8.50091

>  <r_i_glide_erotb>  (48) 
0.0253195

>  <r_i_glide_esite>  (48) 
-0.0742056

>  <r_i_glide_emodel>  (48) 
-14.6135

>  <r_i_glide_energy>  (48) 
-16.4051

>  <r_i_glide_einternal>  (48) 
8.94819

>  <r_i_glide_intrahb_reward>  (48) 
-0

>  <i_i_glide_confnum>  (48) 
6

>  <i_i_glide_posenum>  (48) 
19

>  <r_i_glide_eff_state_penalty>  (48) 
0

>  <ligand_id>  (48) 
41

>  <original_smiles>  (48) 
C=C1C(=O)OC2(C(=C)C)CC3(C)C(C)(C)C45C(=O)OC(C6(O)C(=O)C7(C)OC6(C)C(O)[S+]([O-])C4C4(C=CC(C)(C(O)C6(O)OC6(C)CC12O)C73O)CO4)C1(O)C(=O)C(=C)C1(O)C(O)C5O

>  <smiles>  (48) 
[H]OC1([H])S(=O)C2([H])C3(OC3([H])[H])C([H])=C([H])C3(C([H])([H])[H])C([H])(O[H])C4(O[H])OC4(C([H])([H])[H])C([H])([H])C4(O[H])C(=C([H])[H])C(=O)OC4(C(=C([H])[H])C([H])([H])[H])C([H])([H])C4(C([H])([H])[H])C3(O[H])C3(C([H])([H])[H])OC1(C([H])([H])[H])C(O[H])(C3=O)C1([H])OC(=O)C2(C([H])(O[H])C([H])(O[H])C2(O[H])C(=C([H])[H])C(=O)C12O[H])C4(C([H])([H])[H])C([H])([H])[H]

$$$$
41:0:1
     RDKit          3D

119128  0  0  1  0  0  0  0  0999 V2000
    4.9498   -6.4541    0.4863 C   0  0  0  0  0  0  0  0  0  0  0  0
    4.3666   -5.3037    0.8713 C   0  0  0  0  0  0  0  0  0  0  0  0
    2.9790   -4.9664    0.6122 C   0  0  0  0  0  0  0  0  0  0  0  0
    2.1145   -5.6729    0.0945 O   0  0  0  0  0  0  0  0  0  0  0  0
    2.7828   -3.7205    1.0486 O   0  0  0  0  0  0  0  0  0  0  0  0
    3.7517   -3.1422    1.9481 C   0  0  1  0  0  0  0  0  0  0  0  0
    3.8782   -1.6464    1.5397 C   0  0  0  0  0  0  0  0  0  0  0  0
    5.0315   -0.9840    1.3681 C   0  0  0  0  0  0  0  0  0  0  0  0
    2.5868   -0.8876    1.2553 C   0  0  0  0  0  0  0  0  0  0  0  0
    3.0008   -3.4429    3.3424 C   0  0  0  0  0  0  0  0  0  0  0  0
    2.9295   -2.7849    4.8885 C   0  0  2  0  0  0  0  0  0  0  0  0
    2.8683   -4.2018    5.5668 C   0  0  0  0  0  0  0  0  0  0  0  0
    1.4029   -2.2233    5.2397 C   0  0  0  0  0  0  0  0  0  0  0  0
    0.9400   -1.4396    4.0070 C   0  0  0  0  0  0  0  0  0  0  0  0
    0.3865   -3.4393    5.0434 C   0  0  0  0  0  0  0  0  0  0  0  0
    0.9456   -1.3891    6.6525 C   0  0  2  0  0  0  0  0  0  0  0  0
    1.0481    0.0966    6.8313 C   0  0  0  0  0  0  0  0  0  0  0  0
    0.5572    0.7528    7.7668 O   0  0  0  0  0  0  0  0  0  0  0  0
    1.4896    0.5372    5.8260 O   0  0  0  0  0  0  0  0  0  0  0  0
    1.5546    1.8639    5.6055 C   0  0  1  0  0  0  0  0  0  0  0  0
    3.1133    1.8301    5.4466 C   0  0  2  0  0  0  0  0  0  0  0  0
    3.3883    3.0957    4.8832 O   0  0  0  0  0  0  0  0  0  0  0  0
    3.7009    0.7318    4.5353 C   0  0  0  0  0  0  0  0  0  0  0  0
    3.6911    0.8057    3.3102 O   0  0  0  0  0  0  0  0  0  0  0  0
    4.5418   -0.2801    5.3154 C   0  0  1  0  0  0  0  0  0  0  0  0
    5.9653    0.1447    4.8403 C   0  0  0  0  0  0  0  0  0  0  0  0
    4.5305    0.2577    6.6087 O   0  0  0  0  0  0  0  0  0  0  0  0
    3.9521    1.5337    6.7880 C   0  0  1  0  0  0  0  0  0  0  0  0
    5.1107    2.5515    6.9550 C   0  0  0  0  0  0  0  0  0  0  0  0
    3.3369    1.2286    8.2204 C   0  0  1  0  0  0  0  0  0  0  0  0
    2.5158    2.2440    8.7581 O   0  0  0  0  0  0  0  0  0  0  0  0
    3.0776   -0.5950    8.7522 S   0  0  0  0  0  0  0  0  0  0  0  0
    2.9024   -0.5818   10.2746 O   0  0  0  0  0  0  0  0  0  0  0  0
    1.6361   -1.6783    8.0963 C   0  0  2  0  0  0  0  0  0  0  0  0
    2.0049   -3.1001    8.5149 C   0  0  1  0  0  0  0  0  0  0  0  0
    3.4295   -3.6176    8.4890 C   0  0  0  0  0  0  0  0  0  0  0  0
    4.6078   -3.4677    7.8262 C   0  0  0  0  0  0  0  0  0  0  0  0
    5.2540   -2.6842    6.6466 C   0  0  1  0  0  0  0  0  0  0  0  0
    6.1103   -1.6823    7.5242 C   0  0  0  0  0  0  0  0  0  0  0  0
    6.4216   -3.6545    6.0595 C   0  0  1  0  0  0  0  0  0  0  0  0
    7.4461   -3.9944    6.9932 O   0  0  0  0  0  0  0  0  0  0  0  0
    6.1041   -4.9977    5.4072 C   0  0  2  0  0  0  0  0  0  0  0  0
    5.6826   -5.9528    6.3710 O   0  0  0  0  0  0  0  0  0  0  0  0
    7.1225   -5.4889    4.5536 O   0  0  0  0  0  0  0  0  0  0  0  0
    5.8399   -5.3607    3.9122 C   0  0  1  0  0  0  0  0  0  0  0  0
    5.2174   -6.7062    3.6042 C   0  0  0  0  0  0  0  0  0  0  0  0
    6.0757   -4.5183    2.6238 C   0  0  0  0  0  0  0  0  0  0  0  0
    4.9880   -4.1289    1.5709 C   0  0  1  0  0  0  0  0  0  0  0  0
    5.8208   -3.5712    0.5571 O   0  0  0  0  0  0  0  0  0  0  0  0
    4.2921   -1.9483    5.4456 C   0  0  1  0  0  0  0  0  0  0  0  0
    5.0277   -2.2334    4.3020 O   0  0  0  0  0  0  0  0  0  0  0  0
    1.2353   -3.7030    9.6876 C   0  0  0  0  0  0  0  0  0  0  0  0
    0.9601   -4.0808    8.3465 O   0  0  0  0  0  0  0  0  0  0  0  0
    0.4282    1.9226    4.5052 C   0  0  2  0  0  0  0  0  0  0  0  0
    0.9594    1.7977    3.2035 O   0  0  0  0  0  0  0  0  0  0  0  0
   -0.3497    3.2584    4.5740 C   0  0  0  0  0  0  0  0  0  0  0  0
   -0.1219    4.4567    4.3484 O   0  0  0  0  0  0  0  0  0  0  0  0
   -1.5616    2.5791    4.9824 C   0  0  0  0  0  0  0  0  0  0  0  0
   -2.6946    3.1079    5.4808 C   0  0  0  0  0  0  0  0  0  0  0  0
   -0.9898    1.1543    4.7378 C   0  0  1  0  0  0  0  0  0  0  0  0
   -1.5369    0.6887    3.5117 O   0  0  0  0  0  0  0  0  0  0  0  0
   -1.4181    0.1453    5.9314 C   0  0  1  0  0  0  0  0  0  0  0  0
   -2.5843   -0.4337    5.6037 O   0  0  0  0  0  0  0  0  0  0  0  0
   -0.6395   -1.1790    6.5708 C   0  0  1  0  0  0  0  0  0  0  0  0
   -1.3807   -2.3940    6.6699 O   0  0  0  0  0  0  0  0  0  0  0  0
    5.9964   -6.6401    0.6913 H   0  0  0  0  0  0  0  0  0  0  0  0
    4.3985   -7.2247   -0.0289 H   0  0  0  0  0  0  0  0  0  0  0  0
    5.9976   -1.4283    1.5550 H   0  0  0  0  0  0  0  0  0  0  0  0
    5.0128    0.0424    1.0272 H   0  0  0  0  0  0  0  0  0  0  0  0
    2.1785   -0.3482    2.0772 H   0  0  0  0  0  0  0  0  0  0  0  0
    1.7749   -1.5597    0.9875 H   0  0  0  0  0  0  0  0  0  0  0  0
    2.7237   -0.1094    0.4925 H   0  0  0  0  0  0  0  0  0  0  0  0
    1.9824   -3.6666    3.0621 H   0  0  0  0  0  0  0  0  0  0  0  0
    3.3849   -4.4541    3.4247 H   0  0  0  0  0  0  0  0  0  0  0  0
    2.3264   -4.2531    6.4774 H   0  0  0  0  0  0  0  0  0  0  0  0
    3.8179   -4.6393    5.7141 H   0  0  0  0  0  0  0  0  0  0  0  0
    2.3346   -4.9905    5.0350 H   0  0  0  0  0  0  0  0  0  0  0  0
   -0.0409   -1.0286    4.1277 H   0  0  0  0  0  0  0  0  0  0  0  0
    0.8173   -2.0014    3.0864 H   0  0  0  0  0  0  0  0  0  0  0  0
    1.6264   -0.6494    3.8407 H   0  0  0  0  0  0  0  0  0  0  0  0
   -0.5699   -3.1184    4.6284 H   0  0  0  0  0  0  0  0  0  0  0  0
    0.2195   -3.9864    5.9737 H   0  0  0  0  0  0  0  0  0  0  0  0
    0.5804   -4.2135    4.3128 H   0  0  0  0  0  0  0  0  0  0  0  0
    1.2892    2.5017    6.4500 H   0  0  0  0  0  0  0  0  0  0  0  0
    4.2405    3.0538    4.4782 H   0  0  0  0  0  0  0  0  0  0  0  0
    6.0961    0.3535    3.7742 H   0  0  0  0  0  0  0  0  0  0  0  0
    6.5871   -0.6714    5.0626 H   0  0  0  0  0  0  0  0  0  0  0  0
    6.4226    0.9767    5.3676 H   0  0  0  0  0  0  0  0  0  0  0  0
    4.7438    3.4853    7.3749 H   0  0  0  0  0  0  0  0  0  0  0  0
    5.5982    2.8089    6.0181 H   0  0  0  0  0  0  0  0  0  0  0  0
    5.8900    2.1711    7.6126 H   0  0  0  0  0  0  0  0  0  0  0  0
    4.1947    1.3565    8.8758 H   0  0  0  0  0  0  0  0  0  0  0  0
    3.0614    2.8846    9.1837 H   0  0  0  0  0  0  0  0  0  0  0  0
    0.8521   -1.4272    8.8156 H   0  0  0  0  0  0  0  0  0  0  0  0
    3.5686   -4.3580    9.2603 H   0  0  0  0  0  0  0  0  0  0  0  0
    5.3490   -4.1152    8.2683 H   0  0  0  0  0  0  0  0  0  0  0  0
    6.8385   -1.0843    6.9920 H   0  0  0  0  0  0  0  0  0  0  0  0
    6.7030   -2.1766    8.2933 H   0  0  0  0  0  0  0  0  0  0  0  0
    5.5384   -1.0176    8.1534 H   0  0  0  0  0  0  0  0  0  0  0  0
    6.9688   -3.1125    5.3105 H   0  0  0  0  0  0  0  0  0  0  0  0
    8.1176   -4.4588    6.5103 H   0  0  0  0  0  0  0  0  0  0  0  0
    6.3647   -5.9942    7.0266 H   0  0  0  0  0  0  0  0  0  0  0  0
    4.2001   -6.5821    3.2394 H   0  0  0  0  0  0  0  0  0  0  0  0
    5.1665   -7.3506    4.4797 H   0  0  0  0  0  0  0  0  0  0  0  0
    5.8186   -7.2429    2.8746 H   0  0  0  0  0  0  0  0  0  0  0  0
    6.4760   -3.5523    2.8747 H   0  0  0  0  0  0  0  0  0  0  0  0
    6.9037   -5.0088    2.1086 H   0  0  0  0  0  0  0  0  0  0  0  0
    5.3065   -3.4225   -0.2234 H   0  0  0  0  0  0  0  0  0  0  0  0
    4.5279   -1.9404    3.5533 H   0  0  0  0  0  0  0  0  0  0  0  0
    1.6729   -4.5059   10.2796 H   0  0  0  0  0  0  0  0  0  0  0  0
    0.4516   -3.1302   10.1770 H   0  0  0  0  0  0  0  0  0  0  0  0
    0.3025    2.1430    2.6107 H   0  0  0  0  0  0  0  0  0  0  0  0
   -2.8157    4.1740    5.5614 H   0  0  0  0  0  0  0  0  0  0  0  0
   -3.5332    2.5471    5.8288 H   0  0  0  0  0  0  0  0  0  0  0  0
   -2.4362    0.9859    3.4295 H   0  0  0  0  0  0  0  0  0  0  0  0
   -1.6913    0.7960    6.7714 H   0  0  0  0  0  0  0  0  0  0  0  0
   -2.9805    0.0579    4.8837 H   0  0  0  0  0  0  0  0  0  0  0  0
   -0.9426   -1.0009    7.6015 H   0  0  0  0  0  0  0  0  0  0  0  0
   -1.3063   -2.8388    5.8454 H   0  0  0  0  0  0  0  0  0  0  0  0
  1  2  2  0
  1 66  1  0
  1 67  1  0
  2 48  1  0
  2  3  1  0
  3  4  2  0
  3  5  1  0
  5  6  1  0
  6 48  1  0
  6  7  1  6
  6 10  1  0
  7  8  2  0
  7  9  1  0
  8 68  1  0
  8 69  1  0
  9 70  1  0
  9 71  1  0
  9 72  1  0
 10 11  1  0
 10 73  1  0
 10 74  1  0
 11 50  1  0
 11 12  1  1
 11 13  1  0
 12 75  1  0
 12 76  1  0
 12 77  1  0
 13 14  1  0
 13 15  1  0
 16 13  1  6
 14 78  1  0
 14 79  1  0
 14 80  1  0
 15 81  1  0
 15 82  1  0
 15 83  1  0
 16 34  1  0
 16 64  1  0
 16 17  1  0
 17 18  2  0
 17 19  1  0
 19 20  1  0
 20 21  1  0
 20 54  1  0
 20 84  1  1
 21 28  1  0
 21 22  1  6
 21 23  1  0
 22 85  1  0
 23 24  2  0
 23 25  1  0
 25 50  1  0
 25 26  1  6
 25 27  1  0
 26 86  1  0
 26 87  1  0
 26 88  1  0
 27 28  1  0
 28 29  1  1
 28 30  1  0
 29 89  1  0
 29 90  1  0
 29 91  1  0
 30 31  1  0
 32 30  1  6
 30 92  1  1
 31 93  1  0
 32 33  2  0
 32 34  1  0
 34 35  1  0
 34 94  1  1
 35 53  1  6
 35 36  1  0
 35 52  1  0
 36 37  2  3
 36 95  1  0
 37 38  1  0
 37 96  1  0
 38 39  1  1
 38 40  1  0
 38 50  1  0
 39 97  1  0
 39 98  1  0
 39 99  1  0
 40 41  1  0
 40 42  1  0
 40100  1  6
 41101  1  0
 42 45  1  0
 42 43  1  1
 42 44  1  0
 43102  1  0
 44 45  1  0
 45 46  1  1
 45 47  1  0
 46103  1  0
 46104  1  0
 46105  1  0
 47 48  1  0
 47106  1  0
 47107  1  0
 48 49  1  6
 49108  1  0
 50 51  1  6
 51109  1  0
 52 53  1  0
 52110  1  0
 52111  1  0
 54 60  1  0
 54 55  1  6
 54 56  1  0
 55112  1  0
 56 57  2  0
 56 58  1  0
 58 59  2  0
 58 60  1  0
 59113  1  0
 59114  1  0
 60 61  1  6
 60 62  1  0
 61115  1  0
 62 63  1  0
 62 64  1  0
 62116  1  1
 63117  1  0
 64 65  1  0
 64118  1  1
 65119  1  0
M  END
>  <i_m_ct_stereo_status>  (49) 
1

>  <s_m_source_file>  (49) 
/var/tmp/pbs.5075288.sched01/tmpeqwi9iw0/66la8jmv2o.sdf

>  <i_m_source_file_index>  (49) 
26

>  <i_lp_mmshare_version>  (49) 
48012

>  <i_f3d_flags>  (49) 
0

>  <s_epik_input>  (49) 
W09IXVtDQEhdMVtDQEBdKE8yKShbT0hdKVtDQEBdMihbQ0gzXSlbQ0gyXVtDQEBdKFtPSF0pKEMoPVtDSDJdKUMoPU8pTzMpW0NAXTMoQyg9W0NIMl0pW0NIM10pW0NIMl1bQ0BdKFtDSDNdKShDNChbQ0gzXSlbQ0gzXSlbQ0BdKFtPSF0pKFtDQEBdMShbQ0gzXSkvW0NIXT1bQ0hdXEM1KFtDQEBIXTZbQ0BdNDc4KVtDSDJdTzUpW0NAQF05KFtDSDNdKUMoPU8pW0NAXShbT0hdKShbQ0BAXShPOSkoW0NIM10pW0NAQEhdKFtPSF0pW1MrXTZbTy1dKVtDQEhdKE9DNz1PKVtDQEBdMShbT0hdKVtDQF0oW09IXSkoQyhDMT1PKT1bQ0gyXSlbQ0BASF0oW09IXSlbQ0BIXThbT0hd

>  <s_epik_cmdline>  (49) 
J2VwaWtfcHl0aG9uJywgJy1waHQnLCAnMi4wJywgJy1waCcsICc3LjAnLCAnLXRuJywgJzgnLCAnLW1hJywgJzIwMCcsICctaW1hZScsICc8aW5maWxlLm1hZT4nLCAnLW9tYWUnLCAnPG91dGZpbGUubWFlPic=

>  <r_epik_Ionization_Penalty>  (49) 
0.00240258

>  <r_epik_Ionization_Penalty_Charging>  (49) 
0

>  <r_epik_Ionization_Penalty_Neutral>  (49) 
0.00240258

>  <r_epik_State_Penalty>  (49) 
0.00131194

>  <r_epik_Charging_Adjusted_Penalty>  (49) 
0.00131194

>  <i_epik_Tot_Q>  (49) 
0

>  <i_epik_Tot_abs_Q>  (49) 
2

>  <s_epik_Chemistry_Notes>  (49) 
This compound has an ester and may undergo hydrolysis at high or low pH. This compound contains an acetal/aminal-like group ( X-CH(R)-Y where X, Y are N, S, or O) that may be acid/base labile, releasing an aldehyde.

>  <s_lp_Force_Field>  (49) 
OPLS3e

>  <r_lp_Energy>  (49) 
496.344

>  <b_lp_Chiralities_Consistent>  (49) 
1

>  <s_lp_Variant>  (49) 
41:0-1

>  <s_i_glide_gridfile>  (49) 
pfpi4k_grid

>  <i_i_glide_lignum>  (49) 
26

>  <i_i_glide_rotatable_bonds>  (49) 
11

>  <r_i_docking_score>  (49) 
-0.524535

>  <r_i_glide_ligand_efficiency>  (49) 
-0.00806977

>  <r_i_glide_ligand_efficiency_sa>  (49) 
-0.0324463

>  <r_i_glide_ligand_efficiency_ln>  (49) 
-0.101371

>  <r_i_glide_gscore>  (49) 
-0.524535

>  <r_i_glide_lipo>  (49) 
-0.504372

>  <r_i_glide_hbond>  (49) 
0

>  <r_i_glide_metal>  (49) 
-0

>  <r_i_glide_rewards>  (49) 
-0.00639643

>  <r_i_glide_evdw>  (49) 
-8.91847

>  <r_i_glide_ecoul>  (49) 
-6.5253

>  <r_i_glide_erotb>  (49) 
0.0253195

>  <r_i_glide_esite>  (49) 
-0.0520195

>  <r_i_glide_emodel>  (49) 
-9.99409

>  <r_i_glide_energy>  (49) 
-15.4438

>  <r_i_glide_einternal>  (49) 
10.0348

>  <r_i_glide_intrahb_reward>  (49) 
-0

>  <i_i_glide_confnum>  (49) 
2

>  <i_i_glide_posenum>  (49) 
17

>  <r_i_glide_eff_state_penalty>  (49) 
0

>  <ligand_id>  (49) 
41

>  <original_smiles>  (49) 
C=C1C(=O)OC2(C(=C)C)CC3(C)C(C)(C)C45C(=O)OC(C6(O)C(=O)C7(C)OC6(C)C(O)[S+]([O-])C4C4(C=CC(C)(C(O)C6(O)OC6(C)CC12O)C73O)CO4)C1(O)C(=O)C(=C)C1(O)C(O)C5O

>  <smiles>  (49) 
[H]OC1([H])S(=O)C2([H])C3(OC3([H])[H])C([H])=C([H])C3(C([H])([H])[H])C([H])(O[H])C4(O[H])OC4(C([H])([H])[H])C([H])([H])C4(O[H])C(=C([H])[H])C(=O)OC4(C(=C([H])[H])C([H])([H])[H])C([H])([H])C4(C([H])([H])[H])C3(O[H])C3(C([H])([H])[H])OC1(C([H])([H])[H])C(O[H])(C3=O)C1([H])OC(=O)C2(C([H])(O[H])C([H])(O[H])C2(O[H])C(=C([H])[H])C(=O)C12O[H])C4(C([H])([H])[H])C([H])([H])[H]

$$$$
41:1:0
     RDKit          3D

119128  0  0  1  0  0  0  0  0999 V2000
    5.2019   -4.9337    0.0016 C   0  0  0  0  0  0  0  0  0  0  0  0
    4.2725   -4.2224    0.6653 C   0  0  0  0  0  0  0  0  0  0  0  0
    3.3023   -3.3667    0.0086 C   0  0  0  0  0  0  0  0  0  0  0  0
    2.9956   -3.3611   -1.1830 O   0  0  0  0  0  0  0  0  0  0  0  0
    2.7902   -2.5909    0.9679 O   0  0  0  0  0  0  0  0  0  0  0  0
    3.5905   -2.4795    2.1626 C   0  0  1  0  0  0  0  0  0  0  0  0
    4.7333   -1.4710    1.7604 C   0  0  0  0  0  0  0  0  0  0  0  0
    4.5453   -0.5098    0.8341 C   0  0  0  0  0  0  0  0  0  0  0  0
    6.1144   -1.5269    2.3828 C   0  0  0  0  0  0  0  0  0  0  0  0
    2.6141   -1.6755    3.2187 C   0  0  0  0  0  0  0  0  0  0  0  0
    2.2398   -1.9807    4.7938 C   0  0  2  0  0  0  0  0  0  0  0  0
    1.8204   -3.3970    4.4965 C   0  0  0  0  0  0  0  0  0  0  0  0
    0.7012   -1.3603    5.3706 C   0  0  0  0  0  0  0  0  0  0  0  0
    0.1441   -0.6201    4.1116 C   0  0  0  0  0  0  0  0  0  0  0  0
   -0.4207   -2.4948    5.5016 C   0  0  0  0  0  0  0  0  0  0  0  0
    0.3079   -0.4151    6.7286 C   0  0  2  0  0  0  0  0  0  0  0  0
    1.0236    0.8335    6.9799 C   0  0  0  0  0  0  0  0  0  0  0  0
    0.7302    1.6349    7.8874 O   0  0  0  0  0  0  0  0  0  0  0  0
    1.8135    1.0033    6.0868 O   0  0  0  0  0  0  0  0  0  0  0  0
    2.3932    2.2207    6.0002 C   0  0  1  0  0  0  0  0  0  0  0  0
    3.8542    1.7108    6.2478 C   0  0  2  0  0  0  0  0  0  0  0  0
    4.6394    2.8649    6.0214 O   0  0  0  0  0  0  0  0  0  0  0  0
    4.3340    0.5723    5.3217 C   0  0  0  0  0  0  0  0  0  0  0  0
    4.6424    0.7281    4.1383 O   0  0  0  0  0  0  0  0  0  0  0  0
    4.5254   -0.7376    6.1010 C   0  0  1  0  0  0  0  0  0  0  0  0
    6.0812   -0.8721    6.2409 C   0  0  0  0  0  0  0  0  0  0  0  0
    4.1061   -0.3687    7.4025 O   0  0  0  0  0  0  0  0  0  0  0  0
    4.1358    1.0147    7.6914 C   0  0  1  0  0  0  0  0  0  0  0  0
    5.5455    1.3955    8.2239 C   0  0  0  0  0  0  0  0  0  0  0  0
    3.1638    1.0052    8.9644 C   0  0  1  0  0  0  0  0  0  0  0  0
    2.8346    2.2964    9.4313 O   0  0  0  0  0  0  0  0  0  0  0  0
    2.0052   -0.4773    9.3770 S   0  0  0  0  0  0  0  0  0  0  0  0
    1.3882   -0.2196   10.7509 O   0  0  0  0  0  0  0  0  0  0  0  0
    0.5404   -1.0549    8.2323 C   0  0  2  0  0  0  0  0  0  0  0  0
    0.4253   -2.6236    8.4880 C   0  0  1  0  0  0  0  0  0  0  0  0
    1.4615   -3.5615    7.9389 C   0  0  0  0  0  0  0  0  0  0  0  0
    2.6059   -3.0420    7.5004 C   0  0  0  0  0  0  0  0  0  0  0  0
    3.8118   -3.3594    6.6778 C   0  0  1  0  0  0  0  0  0  0  0  0
    4.9619   -3.1870    7.7333 C   0  0  0  0  0  0  0  0  0  0  0  0
    4.1392   -4.8615    6.0651 C   0  0  1  0  0  0  0  0  0  0  0  0
    4.6084   -5.7359    7.0892 O   0  0  0  0  0  0  0  0  0  0  0  0
    3.1922   -5.7960    5.2829 C   0  0  2  0  0  0  0  0  0  0  0  0
    2.2262   -6.3804    6.1534 O   0  0  0  0  0  0  0  0  0  0  0  0
    3.9448   -6.6869    4.4030 O   0  0  0  0  0  0  0  0  0  0  0  0
    2.8070   -6.1036    3.7701 C   0  0  1  0  0  0  0  0  0  0  0  0
    1.7173   -7.1303    3.4888 C   0  0  0  0  0  0  0  0  0  0  0  0
    3.0315   -5.2938    2.4439 C   0  0  0  0  0  0  0  0  0  0  0  0
    4.0332   -4.0745    2.1562 C   0  0  1  0  0  0  0  0  0  0  0  0
    5.2240   -4.4128    2.8286 O   0  0  0  0  0  0  0  0  0  0  0  0
    3.7041   -2.0956    5.6436 C   0  0  1  0  0  0  0  0  0  0  0  0
    4.6447   -2.5474    4.7417 O   0  0  0  0  0  0  0  0  0  0  0  0
   -0.2714   -3.1011    9.7365 C   0  0  0  0  0  0  0  0  0  0  0  0
   -0.8970   -3.1632    8.4468 O   0  0  0  0  0  0  0  0  0  0  0  0
    1.6328    2.6665    4.7004 C   0  0  2  0  0  0  0  0  0  0  0  0
    2.3218    2.2660    3.5365 O   0  0  0  0  0  0  0  0  0  0  0  0
    1.5135    4.2013    4.6343 C   0  0  0  0  0  0  0  0  0  0  0  0
    2.2742    5.1658    4.5648 O   0  0  0  0  0  0  0  0  0  0  0  0
    0.0950    4.1004    4.6861 C   0  0  0  0  0  0  0  0  0  0  0  0
   -0.8047    5.1020    4.7923 C   0  0  0  0  0  0  0  0  0  0  0  0
   -0.0013    2.5708    4.6254 C   0  0  1  0  0  0  0  0  0  0  0  0
   -0.5189    2.2351    3.3420 O   0  0  0  0  0  0  0  0  0  0  0  0
   -1.0333    2.0287    5.7474 C   0  0  1  0  0  0  0  0  0  0  0  0
   -2.3311    2.4099    5.3513 O   0  0  0  0  0  0  0  0  0  0  0  0
   -1.0494    0.5213    6.4602 C   0  0  1  0  0  0  0  0  0  0  0  0
   -2.2282   -0.1615    6.0781 O   0  0  0  0  0  0  0  0  0  0  0  0
    5.9195   -5.5551    0.5188 H   0  0  0  0  0  0  0  0  0  0  0  0
    5.2507   -4.9095   -1.0784 H   0  0  0  0  0  0  0  0  0  0  0  0
    3.6051   -0.3587    0.3184 H   0  0  0  0  0  0  0  0  0  0  0  0
    5.3545    0.1542    0.5753 H   0  0  0  0  0  0  0  0  0  0  0  0
    6.6006   -2.4822    2.1872 H   0  0  0  0  0  0  0  0  0  0  0  0
    6.1008   -1.3045    3.4454 H   0  0  0  0  0  0  0  0  0  0  0  0
    6.7681   -0.7683    1.9437 H   0  0  0  0  0  0  0  0  0  0  0  0
    2.8593   -0.6210    3.1606 H   0  0  0  0  0  0  0  0  0  0  0  0
    1.7009   -1.7017    2.6489 H   0  0  0  0  0  0  0  0  0  0  0  0
    1.5427   -4.0107    5.3378 H   0  0  0  0  0  0  0  0  0  0  0  0
    2.7243   -3.7984    4.1644 H   0  0  0  0  0  0  0  0  0  0  0  0
    1.0926   -3.5315    3.6949 H   0  0  0  0  0  0  0  0  0  0  0  0
   -0.8254   -0.1534    4.1758 H   0  0  0  0  0  0  0  0  0  0  0  0
   -0.0854   -1.2998    3.2948 H   0  0  0  0  0  0  0  0  0  0  0  0
    0.8325    0.1349    3.7499 H   0  0  0  0  0  0  0  0  0  0  0  0
   -1.3213   -2.2195    6.0252 H   0  0  0  0  0  0  0  0  0  0  0  0
   -0.1715   -3.3771    6.0694 H   0  0  0  0  0  0  0  0  0  0  0  0
   -0.7678   -2.8725    4.5415 H   0  0  0  0  0  0  0  0  0  0  0  0
    2.1745    2.9395    6.7943 H   0  0  0  0  0  0  0  0  0  0  0  0
    4.4480    3.1629    5.1428 H   0  0  0  0  0  0  0  0  0  0  0  0
    6.5320   -1.6872    5.7028 H   0  0  0  0  0  0  0  0  0  0  0  0
    6.3919   -0.9697    7.2698 H   0  0  0  0  0  0  0  0  0  0  0  0
    6.6209   -0.0030    5.8899 H   0  0  0  0  0  0  0  0  0  0  0  0
    5.5025    2.3437    8.7681 H   0  0  0  0  0  0  0  0  0  0  0  0
    6.2832    1.5248    7.4320 H   0  0  0  0  0  0  0  0  0  0  0  0
    5.9231    0.6327    8.9085 H   0  0  0  0  0  0  0  0  0  0  0  0
    3.8412    0.7256    9.7657 H   0  0  0  0  0  0  0  0  0  0  0  0
    3.5207    2.5952   10.0006 H   0  0  0  0  0  0  0  0  0  0  0  0
   -0.2939   -0.6443    8.7930 H   0  0  0  0  0  0  0  0  0  0  0  0
    1.1902   -4.5993    7.7811 H   0  0  0  0  0  0  0  0  0  0  0  0
    2.6616   -2.0097    7.6508 H   0  0  0  0  0  0  0  0  0  0  0  0
    5.9520   -3.2991    7.2913 H   0  0  0  0  0  0  0  0  0  0  0  0
    4.8939   -3.9015    8.5502 H   0  0  0  0  0  0  0  0  0  0  0  0
    4.9431   -2.2571    8.3014 H   0  0  0  0  0  0  0  0  0  0  0  0
    5.0362   -4.7738    5.4570 H   0  0  0  0  0  0  0  0  0  0  0  0
    5.4205   -5.3814    7.4052 H   0  0  0  0  0  0  0  0  0  0  0  0
    2.7110   -6.8217    6.8400 H   0  0  0  0  0  0  0  0  0  0  0  0
    0.7383   -6.6419    3.4389 H   0  0  0  0  0  0  0  0  0  0  0  0
    1.6739   -7.9053    4.2559 H   0  0  0  0  0  0  0  0  0  0  0  0
    1.9021   -7.6414    2.5469 H   0  0  0  0  0  0  0  0  0  0  0  0
    3.2875   -6.0894    1.7462 H   0  0  0  0  0  0  0  0  0  0  0  0
    2.0440   -4.9869    2.1053 H   0  0  0  0  0  0  0  0  0  0  0  0
    5.0762   -4.3244    3.7563 H   0  0  0  0  0  0  0  0  0  0  0  0
    4.7359   -1.9001    4.0504 H   0  0  0  0  0  0  0  0  0  0  0  0
   -0.0579   -4.0771   10.1678 H   0  0  0  0  0  0  0  0  0  0  0  0
   -0.7013   -2.3606   10.4137 H   0  0  0  0  0  0  0  0  0  0  0  0
    1.9340    2.7141    2.8015 H   0  0  0  0  0  0  0  0  0  0  0  0
   -0.4733    6.1226    4.8260 H   0  0  0  0  0  0  0  0  0  0  0  0
   -1.8525    4.8759    4.8255 H   0  0  0  0  0  0  0  0  0  0  0  0
   -0.2503    2.9054    2.7285 H   0  0  0  0  0  0  0  0  0  0  0  0
   -0.9251    2.7261    6.5802 H   0  0  0  0  0  0  0  0  0  0  0  0
   -2.5076    1.9911    4.5239 H   0  0  0  0  0  0  0  0  0  0  0  0
   -1.4280    0.7552    7.4549 H   0  0  0  0  0  0  0  0  0  0  0  0
   -2.2416   -0.1935    5.1422 H   0  0  0  0  0  0  0  0  0  0  0  0
  1  2  2  0
  1 66  1  0
  1 67  1  0
  2 48  1  0
  2  3  1  0
  3  4  2  0
  3  5  1  0
  5  6  1  0
  6 48  1  0
  6  7  1  6
  6 10  1  0
  7  8  2  0
  7  9  1  0
  8 68  1  0
  8 69  1  0
  9 70  1  0
  9 71  1  0
  9 72  1  0
 10 11  1  0
 10 73  1  0
 10 74  1  0
 11 50  1  0
 11 12  1  6
 11 13  1  0
 12 75  1  0
 12 76  1  0
 12 77  1  0
 13 14  1  0
 13 15  1  0
 16 13  1  6
 14 78  1  0
 14 79  1  0
 14 80  1  0
 15 81  1  0
 15 82  1  0
 15 83  1  0
 16 34  1  0
 16 64  1  0
 16 17  1  0
 17 18  2  0
 17 19  1  0
 19 20  1  0
 20 21  1  0
 20 54  1  0
 20 84  1  1
 21 28  1  0
 21 22  1  1
 21 23  1  0
 22 85  1  0
 23 24  2  0
 23 25  1  0
 25 50  1  0
 25 26  1  1
 25 27  1  0
 26 86  1  0
 26 87  1  0
 26 88  1  0
 27 28  1  0
 28 29  1  1
 28 30  1  0
 29 89  1  0
 29 90  1  0
 29 91  1  0
 30 31  1  0
 32 30  1  6
 30 92  1  1
 31 93  1  0
 32 33  2  0
 32 34  1  0
 34 35  1  0
 34 94  1  1
 35 53  1  6
 35 36  1  0
 35 52  1  0
 36 37  2  3
 36 95  1  0
 37 38  1  0
 37 96  1  0
 38 39  1  1
 38 40  1  0
 38 50  1  0
 39 97  1  0
 39 98  1  0
 39 99  1  0
 40 41  1  0
 40 42  1  0
 40100  1  6
 41101  1  0
 42 45  1  0
 42 43  1  1
 42 44  1  0
 43102  1  0
 44 45  1  0
 45 46  1  1
 45 47  1  0
 46103  1  0
 46104  1  0
 46105  1  0
 47 48  1  0
 47106  1  0
 47107  1  0
 48 49  1  1
 49108  1  0
 50 51  1  6
 51109  1  0
 52 53  1  0
 52110  1  0
 52111  1  0
 54 60  1  0
 54 55  1  6
 54 56  1  0
 55112  1  0
 56 57  2  0
 56 58  1  0
 58 59  2  0
 58 60  1  0
 59113  1  0
 59114  1  0
 60 61  1  6
 60 62  1  0
 61115  1  0
 62 63  1  0
 62 64  1  0
 62116  1  1
 63117  1  0
 64 65  1  0
 64118  1  1
 65119  1  0
M  END
>  <i_m_ct_stereo_status>  (50) 
1

>  <s_m_source_file>  (50) 
/var/tmp/pbs.5075288.sched01/tmpeqwi9iw0/66la8jmv2o.sdf

>  <i_m_source_file_index>  (50) 
27

>  <i_lp_mmshare_version>  (50) 
48012

>  <i_f3d_flags>  (50) 
0

>  <s_epik_input>  (50) 
W09IXVtDQEhdMVtDQEBdKE8yKShbT0hdKVtDQEBdMihbQ0gzXSlbQ0gyXVtDQEBdKFtPSF0pKEMoPVtDSDJdKUMoPU8pTzMpW0NAXTMoQyg9W0NIMl0pW0NIM10pW0NIMl1bQ0BdKFtDSDNdKShDNChbQ0gzXSlbQ0gzXSlbQ0BdKFtPSF0pKFtDQEBdMShbQ0gzXSkvW0NIXT1bQ0hdXEM1KFtDQEBIXTZbQ0BdNDc4KVtDSDJdTzUpW0NAQF05KFtDSDNdKUMoPU8pW0NAXShbT0hdKShbQ0BAXShPOSkoW0NIM10pW0NAQEhdKFtPSF0pW1MrXTZbTy1dKVtDQEhdKE9DNz1PKVtDQEBdMShbT0hdKVtDQF0oW09IXSkoQyhDMT1PKT1bQ0gyXSlbQ0BASF0oW09IXSlbQ0BIXThbT0hd

>  <s_epik_cmdline>  (50) 
J2VwaWtfcHl0aG9uJywgJy1waHQnLCAnMi4wJywgJy1waCcsICc3LjAnLCAnLXRuJywgJzgnLCAnLW1hJywgJzIwMCcsICctaW1hZScsICc8aW5maWxlLm1hZT4nLCAnLW9tYWUnLCAnPG91dGZpbGUubWFlPic=

>  <r_epik_Ionization_Penalty>  (50) 
0.00240258

>  <r_epik_Ionization_Penalty_Charging>  (50) 
0

>  <r_epik_Ionization_Penalty_Neutral>  (50) 
0.00240258

>  <r_epik_State_Penalty>  (50) 
0.00131194

>  <r_epik_Charging_Adjusted_Penalty>  (50) 
0.00131194

>  <i_epik_Tot_Q>  (50) 
0

>  <i_epik_Tot_abs_Q>  (50) 
2

>  <s_epik_Chemistry_Notes>  (50) 
This compound has an ester and may undergo hydrolysis at high or low pH. This compound contains an acetal/aminal-like group ( X-CH(R)-Y where X, Y are N, S, or O) that may be acid/base labile, releasing an aldehyde.

>  <s_lp_Force_Field>  (50) 
OPLS3e

>  <r_lp_Energy>  (50) 
456.544

>  <b_lp_Chiralities_Consistent>  (50) 
1

>  <s_lp_Variant>  (50) 
41:0-2

>  <s_i_glide_gridfile>  (50) 
pfpi4k_grid

>  <i_i_glide_lignum>  (50) 
27

>  <i_i_glide_rotatable_bonds>  (50) 
11

>  <r_i_docking_score>  (50) 
-3.47564

>  <r_i_glide_ligand_efficiency>  (50) 
-0.0534714

>  <r_i_glide_ligand_efficiency_sa>  (50) 
-0.214994

>  <r_i_glide_ligand_efficiency_ln>  (50) 
-0.671702

>  <r_i_glide_gscore>  (50) 
-3.47564

>  <r_i_glide_lipo>  (50) 
-0.434984

>  <r_i_glide_hbond>  (50) 
-0.124684

>  <r_i_glide_metal>  (50) 
-0

>  <r_i_glide_rewards>  (50) 
-0.53193

>  <r_i_glide_evdw>  (50) 
-30.133

>  <r_i_glide_ecoul>  (50) 
-5.89435

>  <r_i_glide_erotb>  (50) 
0.0253195

>  <r_i_glide_esite>  (50) 
-0.0185623

>  <r_i_glide_emodel>  (50) 
-44.7507

>  <r_i_glide_energy>  (50) 
-36.0274

>  <r_i_glide_einternal>  (50) 
6.24932

>  <r_i_glide_intrahb_reward>  (50) 
-0.5

>  <i_i_glide_confnum>  (50) 
4

>  <i_i_glide_posenum>  (50) 
26

>  <r_i_glide_eff_state_penalty>  (50) 
0

>  <ligand_id>  (50) 
41

>  <original_smiles>  (50) 
C=C1C(=O)OC2(C(=C)C)CC3(C)C(C)(C)C45C(=O)OC(C6(O)C(=O)C7(C)OC6(C)C(O)[S+]([O-])C4C4(C=CC(C)(C(O)C6(O)OC6(C)CC12O)C73O)CO4)C1(O)C(=O)C(=C)C1(O)C(O)C5O

>  <smiles>  (50) 
[H]OC1([H])S(=O)C2([H])C3(OC3([H])[H])C([H])=C([H])C3(C([H])([H])[H])C([H])(O[H])C4(O[H])OC4(C([H])([H])[H])C([H])([H])C4(O[H])C(=C([H])[H])C(=O)OC4(C(=C([H])[H])C([H])([H])[H])C([H])([H])C4(C([H])([H])[H])C3(O[H])C3(C([H])([H])[H])OC1(C([H])([H])[H])C(O[H])(C3=O)C1([H])OC(=O)C2(C([H])(O[H])C([H])(O[H])C2(O[H])C(=C([H])[H])C(=O)C12O[H])C4(C([H])([H])[H])C([H])([H])[H]

$$$$
41:1:1
     RDKit          3D

119128  0  0  1  0  0  0  0  0999 V2000
    5.0364   -5.0532   -0.3135 C   0  0  0  0  0  0  0  0  0  0  0  0
    4.1524   -4.3250    0.3954 C   0  0  0  0  0  0  0  0  0  0  0  0
    3.3228   -3.2944   -0.2007 C   0  0  0  0  0  0  0  0  0  0  0  0
    3.0504   -3.1536   -1.3916 O   0  0  0  0  0  0  0  0  0  0  0  0
    2.8688   -2.5431    0.8098 O   0  0  0  0  0  0  0  0  0  0  0  0
    3.5848   -2.6820    2.0483 C   0  0  1  0  0  0  0  0  0  0  0  0
    4.8479   -1.7775    1.8376 C   0  0  0  0  0  0  0  0  0  0  0  0
    6.0707   -2.0606    2.2960 C   0  0  0  0  0  0  0  0  0  0  0  0
    4.6994   -0.4893    1.0238 C   0  0  0  0  0  0  0  0  0  0  0  0
    2.6490   -1.9011    3.1580 C   0  0  0  0  0  0  0  0  0  0  0  0
    2.2173   -2.3228    4.6910 C   0  0  2  0  0  0  0  0  0  0  0  0
    1.6900   -3.6586    4.2446 C   0  0  0  0  0  0  0  0  0  0  0  0
    0.7301   -1.6206    5.3050 C   0  0  0  0  0  0  0  0  0  0  0  0
    0.2719   -0.7150    4.1178 C   0  0  0  0  0  0  0  0  0  0  0  0
   -0.4873   -2.6482    5.2994 C   0  0  0  0  0  0  0  0  0  0  0  0
    0.3810   -0.7815    6.7375 C   0  0  2  0  0  0  0  0  0  0  0  0
    1.2018    0.3624    7.1210 C   0  0  0  0  0  0  0  0  0  0  0  0
    0.9645    1.0935    8.1003 O   0  0  0  0  0  0  0  0  0  0  0  0
    2.0287    0.5460    6.2625 O   0  0  0  0  0  0  0  0  0  0  0  0
    2.7159    1.7067    6.3151 C   0  0  1  0  0  0  0  0  0  0  0  0
    4.1142    1.0395    6.5407 C   0  0  2  0  0  0  0  0  0  0  0  0
    5.0096    2.1303    6.4498 O   0  0  0  0  0  0  0  0  0  0  0  0
    4.5149   -0.0380    5.5098 C   0  0  0  0  0  0  0  0  0  0  0  0
    4.8596    0.2085    4.3535 O   0  0  0  0  0  0  0  0  0  0  0  0
    4.5659   -1.4339    6.1535 C   0  0  1  0  0  0  0  0  0  0  0  0
    6.1127   -1.7280    6.3161 C   0  0  0  0  0  0  0  0  0  0  0  0
    4.1528   -1.1664    7.4767 O   0  0  0  0  0  0  0  0  0  0  0  0
    4.2897    0.1726    7.9064 C   0  0  1  0  0  0  0  0  0  0  0  0
    5.7102    0.3676    8.5092 C   0  0  0  0  0  0  0  0  0  0  0  0
    3.2960    0.1175    9.1624 C   0  0  1  0  0  0  0  0  0  0  0  0
    3.0758    1.3730    9.7696 O   0  0  0  0  0  0  0  0  0  0  0  0
    1.9902   -1.2832    9.3973 S   0  0  0  0  0  0  0  0  0  0  0  0
    1.3400   -1.0912   10.7681 O   0  0  0  0  0  0  0  0  0  0  0  0
    0.5155   -1.5927    8.1692 C   0  0  2  0  0  0  0  0  0  0  0  0
    0.2443   -3.1450    8.2619 C   0  0  1  0  0  0  0  0  0  0  0  0
    1.2081   -4.1313    7.6374 C   0  0  0  0  0  0  0  0  0  0  0  0
    2.4062   -3.6808    7.2776 C   0  0  0  0  0  0  0  0  0  0  0  0
    3.6085   -4.0258    6.4493 C   0  0  1  0  0  0  0  0  0  0  0  0
    4.7358   -4.0720    7.5407 C   0  0  0  0  0  0  0  0  0  0  0  0
    3.8194   -5.4764    5.6971 C   0  0  1  0  0  0  0  0  0  0  0  0
    4.1539   -6.5102    6.6119 O   0  0  0  0  0  0  0  0  0  0  0  0
    2.8034   -6.2493    4.8052 C   0  0  2  0  0  0  0  0  0  0  0  0
    1.7632   -6.8249    5.5810 O   0  0  0  0  0  0  0  0  0  0  0  0
    3.5003   -7.1091    3.8714 O   0  0  0  0  0  0  0  0  0  0  0  0
    2.4485   -6.3678    3.2722 C   0  0  1  0  0  0  0  0  0  0  0  0
    1.2745   -7.2572    2.8584 C   0  0  0  0  0  0  0  0  0  0  0  0
    2.7645   -5.4509    2.0249 C   0  0  0  0  0  0  0  0  0  0  0  0
    3.8783   -4.3106    1.8891 C   0  0  1  0  0  0  0  0  0  0  0  0
    4.9993   -4.8682    2.5399 O   0  0  0  0  0  0  0  0  0  0  0  0
    3.6432   -2.6561    5.5447 C   0  0  1  0  0  0  0  0  0  0  0  0
    4.5686   -3.0855    4.6079 O   0  0  0  0  0  0  0  0  0  0  0  0
   -0.5446   -3.6862    9.4374 C   0  0  0  0  0  0  0  0  0  0  0  0
   -1.1314   -3.5303    8.1406 O   0  0  0  0  0  0  0  0  0  0  0  0
    2.0250    2.3414    5.0588 C   0  0  2  0  0  0  0  0  0  0  0  0
    2.7068    2.0066    3.8700 O   0  0  0  0  0  0  0  0  0  0  0  0
    2.0398    3.8834    5.1533 C   0  0  0  0  0  0  0  0  0  0  0  0
    2.8794    4.7830    5.1953 O   0  0  0  0  0  0  0  0  0  0  0  0
    0.6055    3.9229    5.1544 C   0  0  0  0  0  0  0  0  0  0  0  0
   -0.2038    4.9851    5.3377 C   0  0  0  0  0  0  0  0  0  0  0  0
    0.3860    2.4139    4.9497 C   0  0  1  0  0  0  0  0  0  0  0  0
   -0.1306    2.2466    3.6391 O   0  0  0  0  0  0  0  0  0  0  0  0
   -0.7302    1.8516    5.9824 C   0  0  1  0  0  0  0  0  0  0  0  0
   -1.9959    2.3551    5.5930 O   0  0  0  0  0  0  0  0  0  0  0  0
   -0.8930    0.2881    6.5372 C   0  0  1  0  0  0  0  0  0  0  0  0
   -2.1334   -0.2386    6.0742 O   0  0  0  0  0  0  0  0  0  0  0  0
    5.6758   -5.7888    0.1530 H   0  0  0  0  0  0  0  0  0  0  0  0
    5.1271   -4.9215   -1.3811 H   0  0  0  0  0  0  0  0  0  0  0  0
    6.2447   -2.9406    2.8726 H   0  0  0  0  0  0  0  0  0  0  0  0
    6.9007   -1.3998    2.1015 H   0  0  0  0  0  0  0  0  0  0  0  0
    4.0034    0.2159    1.4829 H   0  0  0  0  0  0  0  0  0  0  0  0
    4.3767   -0.6866    0.0007 H   0  0  0  0  0  0  0  0  0  0  0  0
    5.6629    0.0181    0.9376 H   0  0  0  0  0  0  0  0  0  0  0  0
    2.9977   -0.8774    3.2172 H   0  0  0  0  0  0  0  0  0  0  0  0
    1.7592   -1.7910    2.5593 H   0  0  0  0  0  0  0  0  0  0  0  0
    1.3305   -4.3247    5.0109 H   0  0  0  0  0  0  0  0  0  0  0  0
    2.5664   -4.1070    3.8980 H   0  0  0  0  0  0  0  0  0  0  0  0
    0.9800   -3.6517    3.4174 H   0  0  0  0  0  0  0  0  0  0  0  0
   -0.6574   -0.1794    4.2132 H   0  0  0  0  0  0  0  0  0  0  0  0
    0.0083   -1.2902    3.2375 H   0  0  0  0  0  0  0  0  0  0  0  0
    1.0297    0.0063    3.8383 H   0  0  0  0  0  0  0  0  0  0  0  0
   -1.3766   -2.3371    5.8225 H   0  0  0  0  0  0  0  0  0  0  0  0
   -0.3404   -3.6065    5.7736 H   0  0  0  0  0  0  0  0  0  0  0  0
   -0.8345   -2.8856    4.2993 H   0  0  0  0  0  0  0  0  0  0  0  0
    2.5446    2.3562    7.1772 H   0  0  0  0  0  0  0  0  0  0  0  0
    4.8664    2.5399    5.6070 H   0  0  0  0  0  0  0  0  0  0  0  0
    6.5244   -2.5152    5.6853 H   0  0  0  0  0  0  0  0  0  0  0  0
    6.3865   -1.9943    7.3347 H   0  0  0  0  0  0  0  0  0  0  0  0
    6.7316   -0.8575    6.0881 H   0  0  0  0  0  0  0  0  0  0  0  0
    5.7358    1.2534    9.1495 H   0  0  0  0  0  0  0  0  0  0  0  0
    6.4855    0.5101    7.7580 H   0  0  0  0  0  0  0  0  0  0  0  0
    6.0018   -0.4890    9.1243 H   0  0  0  0  0  0  0  0  0  0  0  0
    3.9223   -0.3084    9.9470 H   0  0  0  0  0  0  0  0  0  0  0  0
    2.6613    1.9447    9.1400 H   0  0  0  0  0  0  0  0  0  0  0  0
   -0.2902   -1.1558    8.7566 H   0  0  0  0  0  0  0  0  0  0  0  0
    0.8394   -5.1111    7.3788 H   0  0  0  0  0  0  0  0  0  0  0  0
    2.5542   -2.6806    7.5299 H   0  0  0  0  0  0  0  0  0  0  0  0
    5.7216   -4.2320    7.1079 H   0  0  0  0  0  0  0  0  0  0  0  0
    4.5793   -4.8686    8.2663 H   0  0  0  0  0  0  0  0  0  0  0  0
    4.7819   -3.2115    8.1991 H   0  0  0  0  0  0  0  0  0  0  0  0
    4.7405   -5.4050    5.1239 H   0  0  0  0  0  0  0  0  0  0  0  0
    4.5128   -7.2328    6.1076 H   0  0  0  0  0  0  0  0  0  0  0  0
    2.1671   -7.3685    6.2506 H   0  0  0  0  0  0  0  0  0  0  0  0
    0.3493   -6.6793    2.8413 H   0  0  0  0  0  0  0  0  0  0  0  0
    1.1434   -8.0963    3.5439 H   0  0  0  0  0  0  0  0  0  0  0  0
    1.4432   -7.6895    1.8730 H   0  0  0  0  0  0  0  0  0  0  0  0
    2.9804   -6.1934    1.2558 H   0  0  0  0  0  0  0  0  0  0  0  0
    1.8178   -5.0196    1.7040 H   0  0  0  0  0  0  0  0  0  0  0  0
    4.8359   -4.8517    3.4714 H   0  0  0  0  0  0  0  0  0  0  0  0
    4.7482   -2.3649    4.0185 H   0  0  0  0  0  0  0  0  0  0  0  0
   -0.4323   -4.7181    9.7558 H   0  0  0  0  0  0  0  0  0  0  0  0
   -0.9027   -2.9856   10.1894 H   0  0  0  0  0  0  0  0  0  0  0  0
    2.6514    1.0688    3.7552 H   0  0  0  0  0  0  0  0  0  0  0  0
    0.1963    5.9813    5.4831 H   0  0  0  0  0  0  0  0  0  0  0  0
   -1.2714    4.8455    5.3352 H   0  0  0  0  0  0  0  0  0  0  0  0
    0.2431    2.9281    3.0933 H   0  0  0  0  0  0  0  0  0  0  0  0
   -0.5860    2.4474    6.8852 H   0  0  0  0  0  0  0  0  0  0  0  0
   -2.1614    2.0549    4.7098 H   0  0  0  0  0  0  0  0  0  0  0  0
   -1.2587    0.4746    7.5481 H   0  0  0  0  0  0  0  0  0  0  0  0
   -2.1203   -0.2471    5.1313 H   0  0  0  0  0  0  0  0  0  0  0  0
  1  2  2  0
  1 66  1  0
  1 67  1  0
  2 48  1  0
  2  3  1  0
  3  4  2  0
  3  5  1  0
  5  6  1  0
  6 48  1  0
  6  7  1  6
  6 10  1  0
  7  8  2  0
  7  9  1  0
  8 68  1  0
  8 69  1  0
  9 70  1  0
  9 71  1  0
  9 72  1  0
 10 11  1  0
 10 73  1  0
 10 74  1  0
 11 50  1  0
 11 12  1  6
 11 13  1  0
 12 75  1  0
 12 76  1  0
 12 77  1  0
 13 14  1  0
 13 15  1  0
 16 13  1  6
 14 78  1  0
 14 79  1  0
 14 80  1  0
 15 81  1  0
 15 82  1  0
 15 83  1  0
 16 34  1  0
 16 64  1  0
 16 17  1  0
 17 18  2  0
 17 19  1  0
 19 20  1  0
 20 21  1  0
 20 54  1  0
 20 84  1  1
 21 28  1  0
 21 22  1  1
 21 23  1  0
 22 85  1  0
 23 24  2  0
 23 25  1  0
 25 50  1  0
 25 26  1  1
 25 27  1  0
 26 86  1  0
 26 87  1  0
 26 88  1  0
 27 28  1  0
 28 29  1  1
 28 30  1  0
 29 89  1  0
 29 90  1  0
 29 91  1  0
 30 31  1  0
 32 30  1  6
 30 92  1  1
 31 93  1  0
 32 33  2  0
 32 34  1  0
 34 35  1  0
 34 94  1  1
 35 53  1  6
 35 36  1  0
 35 52  1  0
 36 37  2  3
 36 95  1  0
 37 38  1  0
 37 96  1  0
 38 39  1  1
 38 40  1  0
 38 50  1  0
 39 97  1  0
 39 98  1  0
 39 99  1  0
 40 41  1  0
 40 42  1  0
 40100  1  6
 41101  1  0
 42 45  1  0
 42 43  1  1
 42 44  1  0
 43102  1  0
 44 45  1  0
 45 46  1  1
 45 47  1  0
 46103  1  0
 46104  1  0
 46105  1  0
 47 48  1  0
 47106  1  0
 47107  1  0
 48 49  1  1
 49108  1  0
 50 51  1  6
 51109  1  0
 52 53  1  0
 52110  1  0
 52111  1  0
 54 60  1  0
 54 55  1  6
 54 56  1  0
 55112  1  0
 56 57  2  0
 56 58  1  0
 58 59  2  0
 58 60  1  0
 59113  1  0
 59114  1  0
 60 61  1  6
 60 62  1  0
 61115  1  0
 62 63  1  0
 62 64  1  0
 62116  1  1
 63117  1  0
 64 65  1  0
 64118  1  1
 65119  1  0
M  END
>  <i_m_ct_stereo_status>  (51) 
1

>  <s_m_source_file>  (51) 
/var/tmp/pbs.5075288.sched01/tmpeqwi9iw0/66la8jmv2o.sdf

>  <i_m_source_file_index>  (51) 
27

>  <i_lp_mmshare_version>  (51) 
48012

>  <i_f3d_flags>  (51) 
0

>  <s_epik_input>  (51) 
W09IXVtDQEhdMVtDQEBdKE8yKShbT0hdKVtDQEBdMihbQ0gzXSlbQ0gyXVtDQEBdKFtPSF0pKEMoPVtDSDJdKUMoPU8pTzMpW0NAXTMoQyg9W0NIMl0pW0NIM10pW0NIMl1bQ0BdKFtDSDNdKShDNChbQ0gzXSlbQ0gzXSlbQ0BdKFtPSF0pKFtDQEBdMShbQ0gzXSkvW0NIXT1bQ0hdXEM1KFtDQEBIXTZbQ0BdNDc4KVtDSDJdTzUpW0NAQF05KFtDSDNdKUMoPU8pW0NAXShbT0hdKShbQ0BAXShPOSkoW0NIM10pW0NAQEhdKFtPSF0pW1MrXTZbTy1dKVtDQEhdKE9DNz1PKVtDQEBdMShbT0hdKVtDQF0oW09IXSkoQyhDMT1PKT1bQ0gyXSlbQ0BASF0oW09IXSlbQ0BIXThbT0hd

>  <s_epik_cmdline>  (51) 
J2VwaWtfcHl0aG9uJywgJy1waHQnLCAnMi4wJywgJy1waCcsICc3LjAnLCAnLXRuJywgJzgnLCAnLW1hJywgJzIwMCcsICctaW1hZScsICc8aW5maWxlLm1hZT4nLCAnLW9tYWUnLCAnPG91dGZpbGUubWFlPic=

>  <r_epik_Ionization_Penalty>  (51) 
0.00240258

>  <r_epik_Ionization_Penalty_Charging>  (51) 
0

>  <r_epik_Ionization_Penalty_Neutral>  (51) 
0.00240258

>  <r_epik_State_Penalty>  (51) 
0.00131194

>  <r_epik_Charging_Adjusted_Penalty>  (51) 
0.00131194

>  <i_epik_Tot_Q>  (51) 
0

>  <i_epik_Tot_abs_Q>  (51) 
2

>  <s_epik_Chemistry_Notes>  (51) 
This compound has an ester and may undergo hydrolysis at high or low pH. This compound contains an acetal/aminal-like group ( X-CH(R)-Y where X, Y are N, S, or O) that may be acid/base labile, releasing an aldehyde.

>  <s_lp_Force_Field>  (51) 
OPLS3e

>  <r_lp_Energy>  (51) 
456.544

>  <b_lp_Chiralities_Consistent>  (51) 
1

>  <s_lp_Variant>  (51) 
41:0-2

>  <s_i_glide_gridfile>  (51) 
pfpi4k_grid

>  <i_i_glide_lignum>  (51) 
27

>  <i_i_glide_rotatable_bonds>  (51) 
11

>  <r_i_docking_score>  (51) 
-3.28008

>  <r_i_glide_ligand_efficiency>  (51) 
-0.0504627

>  <r_i_glide_ligand_efficiency_sa>  (51) 
-0.202897

>  <r_i_glide_ligand_efficiency_ln>  (51) 
-0.633906

>  <r_i_glide_gscore>  (51) 
-3.28008

>  <r_i_glide_lipo>  (51) 
-0.337975

>  <r_i_glide_hbond>  (51) 
-0.0819663

>  <r_i_glide_metal>  (51) 
-0

>  <r_i_glide_rewards>  (51) 
-0.546066

>  <r_i_glide_evdw>  (51) 
-35.1653

>  <r_i_glide_ecoul>  (51) 
-3.84057

>  <r_i_glide_erotb>  (51) 
0.0253195

>  <r_i_glide_esite>  (51) 
-0.00503759

>  <r_i_glide_emodel>  (51) 
-49.2134

>  <r_i_glide_energy>  (51) 
-39.0059

>  <r_i_glide_einternal>  (51) 
2.95011

>  <r_i_glide_intrahb_reward>  (51) 
-0.5

>  <i_i_glide_confnum>  (51) 
1

>  <i_i_glide_posenum>  (51) 
1

>  <r_i_glide_eff_state_penalty>  (51) 
0

>  <ligand_id>  (51) 
41

>  <original_smiles>  (51) 
C=C1C(=O)OC2(C(=C)C)CC3(C)C(C)(C)C45C(=O)OC(C6(O)C(=O)C7(C)OC6(C)C(O)[S+]([O-])C4C4(C=CC(C)(C(O)C6(O)OC6(C)CC12O)C73O)CO4)C1(O)C(=O)C(=C)C1(O)C(O)C5O

>  <smiles>  (51) 
[H]OC1([H])S(=O)C2([H])C3(OC3([H])[H])C([H])=C([H])C3(C([H])([H])[H])C([H])(O[H])C4(O[H])OC4(C([H])([H])[H])C([H])([H])C4(O[H])C(=C([H])[H])C(=O)OC4(C(=C([H])[H])C([H])([H])[H])C([H])([H])C4(C([H])([H])[H])C3(O[H])C3(C([H])([H])[H])OC1(C([H])([H])[H])C(O[H])(C3=O)C1([H])OC(=O)C2(C([H])(O[H])C([H])(O[H])C2(O[H])C(=C([H])[H])C(=O)C12O[H])C4(C([H])([H])[H])C([H])([H])[H]

$$$$
41:1:2
     RDKit          3D

119128  0  0  1  0  0  0  0  0999 V2000
    4.9393   -5.1010   -0.4220 C   0  0  0  0  0  0  0  0  0  0  0  0
    4.0818   -4.3596    0.3043 C   0  0  0  0  0  0  0  0  0  0  0  0
    3.2844   -3.2909   -0.2685 C   0  0  0  0  0  0  0  0  0  0  0  0
    3.0146   -3.1133   -1.4548 O   0  0  0  0  0  0  0  0  0  0  0  0
    2.8627   -2.5458    0.7596 O   0  0  0  0  0  0  0  0  0  0  0  0
    3.5758   -2.7329    1.9939 C   0  0  1  0  0  0  0  0  0  0  0  0
    4.8683   -1.8675    1.7957 C   0  0  0  0  0  0  0  0  0  0  0  0
    6.0910   -2.2051    2.2237 C   0  0  0  0  0  0  0  0  0  0  0  0
    4.7440   -0.5432    1.0317 C   0  0  0  0  0  0  0  0  0  0  0  0
    2.6659   -1.9401    3.1162 C   0  0  0  0  0  0  0  0  0  0  0  0
    2.2224   -2.3736    4.6406 C   0  0  2  0  0  0  0  0  0  0  0  0
    1.6509   -3.6824    4.1702 C   0  0  0  0  0  0  0  0  0  0  0  0
    0.7601   -1.6344    5.2719 C   0  0  0  0  0  0  0  0  0  0  0  0
    0.3303   -0.6910    4.1019 C   0  0  0  0  0  0  0  0  0  0  0  0
   -0.4913   -2.6215    5.2550 C   0  0  0  0  0  0  0  0  0  0  0  0
    0.4412   -0.8095    6.7197 C   0  0  2  0  0  0  0  0  0  0  0  0
    1.3026    0.2994    7.1209 C   0  0  0  0  0  0  0  0  0  0  0  0
    1.0903    1.0194    8.1147 O   0  0  0  0  0  0  0  0  0  0  0  0
    2.1334    0.4706    6.2655 O   0  0  0  0  0  0  0  0  0  0  0  0
    2.8589    1.6064    6.3395 C   0  0  1  0  0  0  0  0  0  0  0  0
    4.2344    0.8886    6.5502 C   0  0  2  0  0  0  0  0  0  0  0  0
    5.1664    1.9501    6.4776 O   0  0  0  0  0  0  0  0  0  0  0  0
    4.5972   -0.1819    5.4977 C   0  0  0  0  0  0  0  0  0  0  0  0
    4.9513    0.0734    4.3479 O   0  0  0  0  0  0  0  0  0  0  0  0
    4.5995   -1.5903    6.1161 C   0  0  1  0  0  0  0  0  0  0  0  0
    6.1356   -1.9359    6.2790 C   0  0  0  0  0  0  0  0  0  0  0  0
    4.1976   -1.3358    7.4440 O   0  0  0  0  0  0  0  0  0  0  0  0
    4.3826   -0.0110    7.8987 C   0  0  1  0  0  0  0  0  0  0  0  0
    5.8102    0.1246    8.5025 C   0  0  0  0  0  0  0  0  0  0  0  0
    3.3901   -0.0537    9.1546 C   0  0  1  0  0  0  0  0  0  0  0  0
    3.2131    1.1952    9.7859 O   0  0  0  0  0  0  0  0  0  0  0  0
    2.0376   -1.4128    9.3680 S   0  0  0  0  0  0  0  0  0  0  0  0
    1.3946   -1.2253   10.7419 O   0  0  0  0  0  0  0  0  0  0  0  0
    0.5515   -1.6519    8.1373 C   0  0  2  0  0  0  0  0  0  0  0  0
    0.2296   -3.1970    8.2008 C   0  0  1  0  0  0  0  0  0  0  0  0
    1.1559   -4.2018    7.5551 C   0  0  0  0  0  0  0  0  0  0  0  0
    2.3677   -3.7857    7.1974 C   0  0  0  0  0  0  0  0  0  0  0  0
    3.5595   -4.1551    6.3589 C   0  0  1  0  0  0  0  0  0  0  0  0
    4.6807   -4.2601    7.4524 C   0  0  0  0  0  0  0  0  0  0  0  0
    3.7233   -5.5928    5.5744 C   0  0  1  0  0  0  0  0  0  0  0  0
    4.0226   -6.6552    6.4708 O   0  0  0  0  0  0  0  0  0  0  0  0
    2.6792   -6.3197    4.6778 C   0  0  2  0  0  0  0  0  0  0  0  0
    1.6150   -6.8668    5.4484 O   0  0  0  0  0  0  0  0  0  0  0  0
    3.3337   -7.1970    3.7321 O   0  0  0  0  0  0  0  0  0  0  0  0
    2.3155   -6.3984    3.1472 C   0  0  1  0  0  0  0  0  0  0  0  0
    1.1072   -7.2355    2.7188 C   0  0  0  0  0  0  0  0  0  0  0  0
    2.6642   -5.4709    1.9173 C   0  0  0  0  0  0  0  0  0  0  0  0
    3.8172   -4.3689    1.8014 C   0  0  1  0  0  0  0  0  0  0  0  0
    4.9196   -4.9853    2.4342 O   0  0  0  0  0  0  0  0  0  0  0  0
    3.6376   -2.7665    5.4836 C   0  0  1  0  0  0  0  0  0  0  0  0
    4.5546   -3.1890    4.5371 O   0  0  0  0  0  0  0  0  0  0  0  0
   -0.5731   -3.7295    9.3689 C   0  0  0  0  0  0  0  0  0  0  0  0
   -1.1565   -3.5338    8.0757 O   0  0  0  0  0  0  0  0  0  0  0  0
    2.1878    2.2861    5.0967 C   0  0  2  0  0  0  0  0  0  0  0  0
    2.8591    1.9499    3.9038 O   0  0  0  0  0  0  0  0  0  0  0  0
    2.2570    3.8257    5.2198 C   0  0  0  0  0  0  0  0  0  0  0  0
    3.1260    4.6950    5.2756 O   0  0  0  0  0  0  0  0  0  0  0  0
    0.8240    3.9153    5.2247 C   0  0  0  0  0  0  0  0  0  0  0  0
    0.0539    5.0017    5.4305 C   0  0  0  0  0  0  0  0  0  0  0  0
    0.5526    2.4168    4.9910 C   0  0  1  0  0  0  0  0  0  0  0  0
    0.0267    2.2941    3.6802 O   0  0  0  0  0  0  0  0  0  0  0  0
   -0.5812    1.8717    6.0157 C   0  0  1  0  0  0  0  0  0  0  0  0
   -1.8305    2.4186    5.6355 O   0  0  0  0  0  0  0  0  0  0  0  0
   -0.7950    0.3051    6.5425 C   0  0  1  0  0  0  0  0  0  0  0  0
   -2.0546   -0.1710    6.0765 O   0  0  0  0  0  0  0  0  0  0  0  0
    5.5541   -5.8673    0.0263 H   0  0  0  0  0  0  0  0  0  0  0  0
    5.0277   -4.9545   -1.4884 H   0  0  0  0  0  0  0  0  0  0  0  0
    6.2592   -3.0960    2.7850 H   0  0  0  0  0  0  0  0  0  0  0  0
    6.9333   -1.5630    2.0228 H   0  0  0  0  0  0  0  0  0  0  0  0
    4.0868    0.1687    1.5361 H   0  0  0  0  0  0  0  0  0  0  0  0
    4.3832   -0.6808    0.0108 H   0  0  0  0  0  0  0  0  0  0  0  0
    5.7200   -0.0612    0.9415 H   0  0  0  0  0  0  0  0  0  0  0  0
    3.0482   -0.9307    3.1973 H   0  0  0  0  0  0  0  0  0  0  0  0
    1.7802   -1.7867    2.5218 H   0  0  0  0  0  0  0  0  0  0  0  0
    1.2701   -4.3501    4.9240 H   0  0  0  0  0  0  0  0  0  0  0  0
    2.5151   -4.1506    3.8151 H   0  0  0  0  0  0  0  0  0  0  0  0
    0.9401   -3.6365    3.3454 H   0  0  0  0  0  0  0  0  0  0  0  0
   -0.5790   -0.1235    4.2100 H   0  0  0  0  0  0  0  0  0  0  0  0
    0.0453   -1.2364    3.2083 H   0  0  0  0  0  0  0  0  0  0  0  0
    1.1112    0.0098    3.8354 H   0  0  0  0  0  0  0  0  0  0  0  0
   -1.3687   -2.2942    5.7871 H   0  0  0  0  0  0  0  0  0  0  0  0
   -0.3772   -3.5971    5.7036 H   0  0  0  0  0  0  0  0  0  0  0  0
   -0.8510   -2.8186    4.2498 H   0  0  0  0  0  0  0  0  0  0  0  0
    2.7118    2.2450    7.2161 H   0  0  0  0  0  0  0  0  0  0  0  0
    5.0392    2.3759    5.6411 H   0  0  0  0  0  0  0  0  0  0  0  0
    6.5336   -2.7099    5.6315 H   0  0  0  0  0  0  0  0  0  0  0  0
    6.4015   -2.2650    7.2802 H   0  0  0  0  0  0  0  0  0  0  0  0
    6.7800   -1.0753    6.0849 H   0  0  0  0  0  0  0  0  0  0  0  0
    5.8672    0.9963    9.1580 H   0  0  0  0  0  0  0  0  0  0  0  0
    6.5883    0.2584    7.7534 H   0  0  0  0  0  0  0  0  0  0  0  0
    6.0756   -0.7534    9.0987 H   0  0  0  0  0  0  0  0  0  0  0  0
    4.0017   -0.5165    9.9293 H   0  0  0  0  0  0  0  0  0  0  0  0
    2.8249    1.7938    9.1656 H   0  0  0  0  0  0  0  0  0  0  0  0
   -0.2394   -1.1985    8.7335 H   0  0  0  0  0  0  0  0  0  0  0  0
    0.7545   -5.1628    7.2802 H   0  0  0  0  0  0  0  0  0  0  0  0
    2.5500   -2.7962    7.4707 H   0  0  0  0  0  0  0  0  0  0  0  0
    5.6623   -4.4441    7.0165 H   0  0  0  0  0  0  0  0  0  0  0  0
    4.4970   -5.0667    8.1622 H   0  0  0  0  0  0  0  0  0  0  0  0
    4.7546   -3.4156    8.1286 H   0  0  0  0  0  0  0  0  0  0  0  0
    4.6387   -5.5339    4.9877 H   0  0  0  0  0  0  0  0  0  0  0  0
    4.3452   -7.3833    5.9523 H   0  0  0  0  0  0  0  0  0  0  0  0
    1.9998   -7.4346    6.1058 H   0  0  0  0  0  0  0  0  0  0  0  0
    0.2033   -6.6239    2.7157 H   0  0  0  0  0  0  0  0  0  0  0  0
    0.9477   -8.0821    3.3894 H   0  0  0  0  0  0  0  0  0  0  0  0
    1.2578   -7.6564    1.7257 H   0  0  0  0  0  0  0  0  0  0  0  0
    2.8497   -6.2058    1.1326 H   0  0  0  0  0  0  0  0  0  0  0  0
    1.7366   -4.9977    1.6096 H   0  0  0  0  0  0  0  0  0  0  0  0
    5.6891   -4.4690    2.2637 H   0  0  0  0  0  0  0  0  0  0  0  0
    4.7361   -2.4657    3.9542 H   0  0  0  0  0  0  0  0  0  0  0  0
   -0.4970   -4.7714    9.6663 H   0  0  0  0  0  0  0  0  0  0  0  0
   -0.9122   -3.0337   10.1348 H   0  0  0  0  0  0  0  0  0  0  0  0
    2.7677    1.0184    3.7710 H   0  0  0  0  0  0  0  0  0  0  0  0
    0.4847    5.9823    5.5934 H   0  0  0  0  0  0  0  0  0  0  0  0
   -1.0169    4.9007    5.4295 H   0  0  0  0  0  0  0  0  0  0  0  0
    0.3817    3.0043    3.1578 H   0  0  0  0  0  0  0  0  0  0  0  0
   -0.4186    2.4473    6.9285 H   0  0  0  0  0  0  0  0  0  0  0  0
   -2.0014    2.1437    4.7455 H   0  0  0  0  0  0  0  0  0  0  0  0
   -1.1553    0.4802    7.5575 H   0  0  0  0  0  0  0  0  0  0  0  0
   -2.0390   -0.1728    5.1332 H   0  0  0  0  0  0  0  0  0  0  0  0
  1  2  2  0
  1 66  1  0
  1 67  1  0
  2 48  1  0
  2  3  1  0
  3  4  2  0
  3  5  1  0
  5  6  1  0
  6 48  1  0
  6  7  1  6
  6 10  1  0
  7  8  2  0
  7  9  1  0
  8 68  1  0
  8 69  1  0
  9 70  1  0
  9 71  1  0
  9 72  1  0
 10 11  1  0
 10 73  1  0
 10 74  1  0
 11 50  1  0
 11 12  1  6
 11 13  1  0
 12 75  1  0
 12 76  1  0
 12 77  1  0
 13 14  1  0
 13 15  1  0
 16 13  1  6
 14 78  1  0
 14 79  1  0
 14 80  1  0
 15 81  1  0
 15 82  1  0
 15 83  1  0
 16 34  1  0
 16 64  1  0
 16 17  1  0
 17 18  2  0
 17 19  1  0
 19 20  1  0
 20 21  1  0
 20 54  1  0
 20 84  1  1
 21 28  1  0
 21 22  1  1
 21 23  1  0
 22 85  1  0
 23 24  2  0
 23 25  1  0
 25 50  1  0
 25 26  1  1
 25 27  1  0
 26 86  1  0
 26 87  1  0
 26 88  1  0
 27 28  1  0
 28 29  1  1
 28 30  1  0
 29 89  1  0
 29 90  1  0
 29 91  1  0
 30 31  1  0
 32 30  1  6
 30 92  1  1
 31 93  1  0
 32 33  2  0
 32 34  1  0
 34 35  1  0
 34 94  1  1
 35 53  1  6
 35 36  1  0
 35 52  1  0
 36 37  2  3
 36 95  1  0
 37 38  1  0
 37 96  1  0
 38 39  1  1
 38 40  1  0
 38 50  1  0
 39 97  1  0
 39 98  1  0
 39 99  1  0
 40 41  1  0
 40 42  1  0
 40100  1  6
 41101  1  0
 42 45  1  0
 42 43  1  1
 42 44  1  0
 43102  1  0
 44 45  1  0
 45 46  1  1
 45 47  1  0
 46103  1  0
 46104  1  0
 46105  1  0
 47 48  1  0
 47106  1  0
 47107  1  0
 48 49  1  1
 49108  1  0
 50 51  1  6
 51109  1  0
 52 53  1  0
 52110  1  0
 52111  1  0
 54 60  1  0
 54 55  1  6
 54 56  1  0
 55112  1  0
 56 57  2  0
 56 58  1  0
 58 59  2  0
 58 60  1  0
 59113  1  0
 59114  1  0
 60 61  1  6
 60 62  1  0
 61115  1  0
 62 63  1  0
 62 64  1  0
 62116  1  1
 63117  1  0
 64 65  1  0
 64118  1  1
 65119  1  0
M  END
>  <i_m_ct_stereo_status>  (52) 
1

>  <s_m_source_file>  (52) 
/var/tmp/pbs.5075288.sched01/tmpeqwi9iw0/66la8jmv2o.sdf

>  <i_m_source_file_index>  (52) 
27

>  <i_lp_mmshare_version>  (52) 
48012

>  <i_f3d_flags>  (52) 
0

>  <s_epik_input>  (52) 
W09IXVtDQEhdMVtDQEBdKE8yKShbT0hdKVtDQEBdMihbQ0gzXSlbQ0gyXVtDQEBdKFtPSF0pKEMoPVtDSDJdKUMoPU8pTzMpW0NAXTMoQyg9W0NIMl0pW0NIM10pW0NIMl1bQ0BdKFtDSDNdKShDNChbQ0gzXSlbQ0gzXSlbQ0BdKFtPSF0pKFtDQEBdMShbQ0gzXSkvW0NIXT1bQ0hdXEM1KFtDQEBIXTZbQ0BdNDc4KVtDSDJdTzUpW0NAQF05KFtDSDNdKUMoPU8pW0NAXShbT0hdKShbQ0BAXShPOSkoW0NIM10pW0NAQEhdKFtPSF0pW1MrXTZbTy1dKVtDQEhdKE9DNz1PKVtDQEBdMShbT0hdKVtDQF0oW09IXSkoQyhDMT1PKT1bQ0gyXSlbQ0BASF0oW09IXSlbQ0BIXThbT0hd

>  <s_epik_cmdline>  (52) 
J2VwaWtfcHl0aG9uJywgJy1waHQnLCAnMi4wJywgJy1waCcsICc3LjAnLCAnLXRuJywgJzgnLCAnLW1hJywgJzIwMCcsICctaW1hZScsICc8aW5maWxlLm1hZT4nLCAnLW9tYWUnLCAnPG91dGZpbGUubWFlPic=

>  <r_epik_Ionization_Penalty>  (52) 
0.00240258

>  <r_epik_Ionization_Penalty_Charging>  (52) 
0

>  <r_epik_Ionization_Penalty_Neutral>  (52) 
0.00240258

>  <r_epik_State_Penalty>  (52) 
0.00131194

>  <r_epik_Charging_Adjusted_Penalty>  (52) 
0.00131194

>  <i_epik_Tot_Q>  (52) 
0

>  <i_epik_Tot_abs_Q>  (52) 
2

>  <s_epik_Chemistry_Notes>  (52) 
This compound has an ester and may undergo hydrolysis at high or low pH. This compound contains an acetal/aminal-like group ( X-CH(R)-Y where X, Y are N, S, or O) that may be acid/base labile, releasing an aldehyde.

>  <s_lp_Force_Field>  (52) 
OPLS3e

>  <r_lp_Energy>  (52) 
456.544

>  <b_lp_Chiralities_Consistent>  (52) 
1

>  <s_lp_Variant>  (52) 
41:0-2

>  <s_i_glide_gridfile>  (52) 
pfpi4k_grid

>  <i_i_glide_lignum>  (52) 
27

>  <i_i_glide_rotatable_bonds>  (52) 
11

>  <r_i_docking_score>  (52) 
-2.7174

>  <r_i_glide_ligand_efficiency>  (52) 
-0.0418061

>  <r_i_glide_ligand_efficiency_sa>  (52) 
-0.168091

>  <r_i_glide_ligand_efficiency_ln>  (52) 
-0.525163

>  <r_i_glide_gscore>  (52) 
-2.7174

>  <r_i_glide_lipo>  (52) 
-0.306178

>  <r_i_glide_hbond>  (52) 
-0.0765252

>  <r_i_glide_metal>  (52) 
-0

>  <r_i_glide_rewards>  (52) 
-0.0553618

>  <r_i_glide_evdw>  (52) 
-35.336

>  <r_i_glide_ecoul>  (52) 
-3.56242

>  <r_i_glide_erotb>  (52) 
0.0253195

>  <r_i_glide_esite>  (52) 
-0.00348812

>  <r_i_glide_emodel>  (52) 
-43.0033

>  <r_i_glide_energy>  (52) 
-38.8984

>  <r_i_glide_einternal>  (52) 
2.86848

>  <r_i_glide_intrahb_reward>  (52) 
-0

>  <i_i_glide_confnum>  (52) 
3

>  <i_i_glide_posenum>  (52) 
11

>  <r_i_glide_eff_state_penalty>  (52) 
0

>  <ligand_id>  (52) 
41

>  <original_smiles>  (52) 
C=C1C(=O)OC2(C(=C)C)CC3(C)C(C)(C)C45C(=O)OC(C6(O)C(=O)C7(C)OC6(C)C(O)[S+]([O-])C4C4(C=CC(C)(C(O)C6(O)OC6(C)CC12O)C73O)CO4)C1(O)C(=O)C(=C)C1(O)C(O)C5O

>  <smiles>  (52) 
[H]OC1([H])S(=O)C2([H])C3(OC3([H])[H])C([H])=C([H])C3(C([H])([H])[H])C([H])(O[H])C4(O[H])OC4(C([H])([H])[H])C([H])([H])C4(O[H])C(=C([H])[H])C(=O)OC4(C(=C([H])[H])C([H])([H])[H])C([H])([H])C4(C([H])([H])[H])C3(O[H])C3(C([H])([H])[H])OC1(C([H])([H])[H])C(O[H])(C3=O)C1([H])OC(=O)C2(C([H])(O[H])C([H])(O[H])C2(O[H])C(=C([H])[H])C(=O)C12O[H])C4(C([H])([H])[H])C([H])([H])[H]

$$$$
41:2:0
     RDKit          3D

119128  0  0  1  0  0  0  0  0999 V2000
    5.1358   -5.5694    0.0292 C   0  0  0  0  0  0  0  0  0  0  0  0
    4.4188   -4.9171    0.9600 C   0  0  0  0  0  0  0  0  0  0  0  0
    2.9648   -4.8238    0.9304 C   0  0  0  0  0  0  0  0  0  0  0  0
    2.1766   -5.5213    0.2942 O   0  0  0  0  0  0  0  0  0  0  0  0
    2.6131   -3.8546    1.7876 O   0  0  0  0  0  0  0  0  0  0  0  0
    3.6834   -3.0241    2.2546 C   0  0  1  0  0  0  0  0  0  0  0  0
    3.8212   -1.8887    1.1747 C   0  0  0  0  0  0  0  0  0  0  0  0
    3.0394   -1.7813    0.0801 C   0  0  0  0  0  0  0  0  0  0  0  0
    4.8632   -0.7934    1.3682 C   0  0  0  0  0  0  0  0  0  0  0  0
    3.1777   -2.2101    3.5566 C   0  0  0  0  0  0  0  0  0  0  0  0
    2.6309   -2.7035    5.0161 C   0  0  2  0  0  0  0  0  0  0  0  0
    2.2514   -4.1625    4.6375 C   0  0  0  0  0  0  0  0  0  0  0  0
    1.0816   -2.0688    5.4276 C   0  0  0  0  0  0  0  0  0  0  0  0
    0.2635   -1.8223    4.0908 C   0  0  0  0  0  0  0  0  0  0  0  0
    0.0457   -3.0912    6.0644 C   0  0  0  0  0  0  0  0  0  0  0  0
    1.0132   -0.7219    6.3482 C   0  0  2  0  0  0  0  0  0  0  0  0
    2.0276    0.1458    5.7402 C   0  0  0  0  0  0  0  0  0  0  0  0
    2.3247    0.2088    4.5511 O   0  0  0  0  0  0  0  0  0  0  0  0
    2.2725    1.0448    6.5876 O   0  0  0  0  0  0  0  0  0  0  0  0
    3.1509    2.0404    6.4301 C   0  0  1  0  0  0  0  0  0  0  0  0
    4.5299    1.3240    6.6630 C   0  0  2  0  0  0  0  0  0  0  0  0
    5.5107    2.3403    6.5493 O   0  0  0  0  0  0  0  0  0  0  0  0
    4.9538    0.0949    5.7998 C   0  0  0  0  0  0  0  0  0  0  0  0
    5.4257    0.2204    4.6624 O   0  0  0  0  0  0  0  0  0  0  0  0
    4.8302   -1.2585    6.5749 C   0  0  1  0  0  0  0  0  0  0  0  0
    6.3541   -1.5639    6.9156 C   0  0  0  0  0  0  0  0  0  0  0  0
    4.2557   -0.7696    7.7920 O   0  0  0  0  0  0  0  0  0  0  0  0
    4.4923    0.6239    8.0956 C   0  0  1  0  0  0  0  0  0  0  0  0
    5.8746    0.7499    8.8254 C   0  0  0  0  0  0  0  0  0  0  0  0
    3.4252    1.0071    9.2298 C   0  0  1  0  0  0  0  0  0  0  0  0
    3.6038    2.3438    9.6610 O   0  0  0  0  0  0  0  0  0  0  0  0
    1.5892    0.5391    9.1311 S   0  0  0  0  0  0  0  0  0  0  0  0
    0.8329    1.8206    8.7651 O   0  0  0  0  0  0  0  0  0  0  0  0
    1.1990   -0.9498    8.0002 C   0  0  2  0  0  0  0  0  0  0  0  0
    1.8553   -2.1662    8.7534 C   0  0  2  0  0  0  0  0  0  0  0  0
    1.8557   -3.5511    8.2591 C   0  0  0  0  0  0  0  0  0  0  0  0
    2.7855   -4.3011    7.6462 C   0  0  0  0  0  0  0  0  0  0  0  0
    4.1416   -3.8881    7.1308 C   0  0  1  0  0  0  0  0  0  0  0  0
    4.9189   -3.5949    8.4599 C   0  0  0  0  0  0  0  0  0  0  0  0
    4.9679   -5.1839    6.6131 C   0  0  1  0  0  0  0  0  0  0  0  0
    5.1463   -6.1382    7.6505 O   0  0  0  0  0  0  0  0  0  0  0  0
    4.4826   -6.1113    5.4742 C   0  0  2  0  0  0  0  0  0  0  0  0
    3.3926   -6.9466    5.8034 O   0  0  0  0  0  0  0  0  0  0  0  0
    5.5843   -6.8216    4.9134 O   0  0  0  0  0  0  0  0  0  0  0  0
    4.7790   -6.1436    3.9502 C   0  0  1  0  0  0  0  0  0  0  0  0
    4.0744   -7.1489    3.0492 C   0  0  0  0  0  0  0  0  0  0  0  0
    5.5618   -5.0573    3.1773 C   0  0  0  0  0  0  0  0  0  0  0  0
    4.9204   -4.0650    2.1046 C   0  0  1  0  0  0  0  0  0  0  0  0
    6.0951   -3.3895    1.6734 O   0  0  0  0  0  0  0  0  0  0  0  0
    3.9923   -2.6398    6.0622 C   0  0  1  0  0  0  0  0  0  0  0  0
    4.9775   -3.0147    5.1501 O   0  0  0  0  0  0  0  0  0  0  0  0
    1.4852   -2.3003   10.2503 C   0  0  0  0  0  0  0  0  0  0  0  0
    2.7729   -1.9018    9.8385 O   0  0  0  0  0  0  0  0  0  0  0  0
    2.5561    2.8467    5.2442 C   0  0  2  0  0  0  0  0  0  0  0  0
    3.4127    2.8688    4.1337 O   0  0  0  0  0  0  0  0  0  0  0  0
    2.3033    4.2698    5.8017 C   0  0  0  0  0  0  0  0  0  0  0  0
    2.8977    5.3444    5.9643 O   0  0  0  0  0  0  0  0  0  0  0  0
    0.9261    3.9255    5.9840 C   0  0  0  0  0  0  0  0  0  0  0  0
    0.0586    4.3817    6.9106 C   0  0  0  0  0  0  0  0  0  0  0  0
    0.9447    2.8168    4.9314 C   0  0  1  0  0  0  0  0  0  0  0  0
    0.5891    3.4845    3.7347 O   0  0  0  0  0  0  0  0  0  0  0  0
   -0.1966    1.6566    5.1238 C   0  0  1  0  0  0  0  0  0  0  0  0
   -0.4844    1.1338    3.8417 O   0  0  0  0  0  0  0  0  0  0  0  0
   -0.1898    0.3772    6.1476 C   0  0  1  0  0  0  0  0  0  0  0  0
   -1.4596   -0.2412    6.1143 O   0  0  0  0  0  0  0  0  0  0  0  0
    6.2194   -5.5822    0.0581 H   0  0  0  0  0  0  0  0  0  0  0  0
    4.6501   -6.1045   -0.7726 H   0  0  0  0  0  0  0  0  0  0  0  0
    2.2466   -2.4722   -0.1689 H   0  0  0  0  0  0  0  0  0  0  0  0
    3.1674   -0.9641   -0.6150 H   0  0  0  0  0  0  0  0  0  0  0  0
    5.3854   -0.8596    2.3197 H   0  0  0  0  0  0  0  0  0  0  0  0
    4.3799    0.1840    1.3047 H   0  0  0  0  0  0  0  0  0  0  0  0
    5.6146   -0.8350    0.5787 H   0  0  0  0  0  0  0  0  0  0  0  0
    3.9049   -1.4365    3.7463 H   0  0  0  0  0  0  0  0  0  0  0  0
    2.4070   -1.6491    3.0724 H   0  0  0  0  0  0  0  0  0  0  0  0
    2.0451   -4.8575    5.4316 H   0  0  0  0  0  0  0  0  0  0  0  0
    3.0311   -4.6093    4.0745 H   0  0  0  0  0  0  0  0  0  0  0  0
    1.3944   -4.2533    3.9793 H   0  0  0  0  0  0  0  0  0  0  0  0
   -0.7979   -1.6422    4.2465 H   0  0  0  0  0  0  0  0  0  0  0  0
    0.2721   -2.6655    3.4053 H   0  0  0  0  0  0  0  0  0  0  0  0
    0.5747   -0.9836    3.4881 H   0  0  0  0  0  0  0  0  0  0  0  0
   -0.4536   -2.6945    6.9441 H   0  0  0  0  0  0  0  0  0  0  0  0
    0.4138   -4.0668    6.3465 H   0  0  0  0  0  0  0  0  0  0  0  0
   -0.7825   -3.3731    5.4138 H   0  0  0  0  0  0  0  0  0  0  0  0
    3.0402    2.6570    7.3256 H   0  0  0  0  0  0  0  0  0  0  0  0
    5.4311    2.7014    5.6765 H   0  0  0  0  0  0  0  0  0  0  0  0
    7.0448   -0.7980    6.5601 H   0  0  0  0  0  0  0  0  0  0  0  0
    6.7865   -2.4899    6.5419 H   0  0  0  0  0  0  0  0  0  0  0  0
    6.5277   -1.6027    7.9866 H   0  0  0  0  0  0  0  0  0  0  0  0
    5.9880    1.7117    9.3317 H   0  0  0  0  0  0  0  0  0  0  0  0
    6.7395    0.6848    8.1655 H   0  0  0  0  0  0  0  0  0  0  0  0
    5.9839   -0.0181    9.5968 H   0  0  0  0  0  0  0  0  0  0  0  0
    3.7210    0.4350   10.1065 H   0  0  0  0  0  0  0  0  0  0  0  0
    2.7510    2.6395    9.9455 H   0  0  0  0  0  0  0  0  0  0  0  0
    0.1487   -1.0689    8.2731 H   0  0  0  0  0  0  0  0  0  0  0  0
    0.9643   -4.0774    8.5368 H   0  0  0  0  0  0  0  0  0  0  0  0
    2.5183   -5.3328    7.5147 H   0  0  0  0  0  0  0  0  0  0  0  0
    5.9971   -3.6958    8.3550 H   0  0  0  0  0  0  0  0  0  0  0  0
    4.6521   -4.3039    9.2468 H   0  0  0  0  0  0  0  0  0  0  0  0
    4.7363   -2.6420    8.9197 H   0  0  0  0  0  0  0  0  0  0  0  0
    5.9857   -4.8692    6.3642 H   0  0  0  0  0  0  0  0  0  0  0  0
    5.7938   -6.7670    7.3562 H   0  0  0  0  0  0  0  0  0  0  0  0
    3.6046   -7.4066    6.6094 H   0  0  0  0  0  0  0  0  0  0  0  0
    3.0768   -6.7964    2.7882 H   0  0  0  0  0  0  0  0  0  0  0  0
    3.9570   -8.1032    3.5642 H   0  0  0  0  0  0  0  0  0  0  0  0
    4.6557   -7.3447    2.1486 H   0  0  0  0  0  0  0  0  0  0  0  0
    6.1852   -4.5418    3.8902 H   0  0  0  0  0  0  0  0  0  0  0  0
    6.3213   -5.6302    2.6395 H   0  0  0  0  0  0  0  0  0  0  0  0
    5.8564   -2.7855    0.9836 H   0  0  0  0  0  0  0  0  0  0  0  0
    5.8020   -3.0507    5.6048 H   0  0  0  0  0  0  0  0  0  0  0  0
    0.8962   -1.5300   10.7336 H   0  0  0  0  0  0  0  0  0  0  0  0
    1.5074   -3.2533   10.7704 H   0  0  0  0  0  0  0  0  0  0  0  0
    3.4594    1.9868    3.7870 H   0  0  0  0  0  0  0  0  0  0  0  0
    0.3249    5.1786    7.6072 H   0  0  0  0  0  0  0  0  0  0  0  0
   -0.9248    3.9520    6.9748 H   0  0  0  0  0  0  0  0  0  0  0  0
    0.8155    2.9257    3.0096 H   0  0  0  0  0  0  0  0  0  0  0  0
   -1.1148    2.1983    5.3786 H   0  0  0  0  0  0  0  0  0  0  0  0
    0.3280    0.8400    3.4502 H   0  0  0  0  0  0  0  0  0  0  0  0
   -0.2905    0.8834    7.0929 H   0  0  0  0  0  0  0  0  0  0  0  0
   -1.6019   -0.5003    5.2132 H   0  0  0  0  0  0  0  0  0  0  0  0
  1  2  2  0
  1 66  1  0
  1 67  1  0
  2 48  1  0
  2  3  1  0
  3  4  2  0
  3  5  1  0
  5  6  1  0
  6 48  1  0
  6  7  1  6
  6 10  1  0
  7  8  2  0
  7  9  1  0
  8 68  1  0
  8 69  1  0
  9 70  1  0
  9 71  1  0
  9 72  1  0
 10 11  1  0
 10 73  1  0
 10 74  1  0
 11 50  1  0
 11 12  1  6
 11 13  1  0
 12 75  1  0
 12 76  1  0
 12 77  1  0
 13 14  1  0
 13 15  1  0
 16 13  1  6
 14 78  1  0
 14 79  1  0
 14 80  1  0
 15 81  1  0
 15 82  1  0
 15 83  1  0
 16 34  1  0
 16 64  1  0
 16 17  1  0
 17 18  2  0
 17 19  1  0
 19 20  1  0
 20 21  1  0
 20 54  1  0
 20 84  1  1
 21 28  1  0
 21 22  1  1
 21 23  1  0
 22 85  1  0
 23 24  2  0
 23 25  1  0
 25 50  1  0
 25 26  1  1
 25 27  1  0
 26 86  1  0
 26 87  1  0
 26 88  1  0
 27 28  1  0
 28 29  1  1
 28 30  1  0
 29 89  1  0
 29 90  1  0
 29 91  1  0
 30 31  1  0
 32 30  1  6
 30 92  1  1
 31 93  1  0
 32 33  2  0
 32 34  1  0
 34 35  1  0
 34 94  1  1
 35 53  1  1
 35 36  1  0
 35 52  1  0
 36 37  2  3
 36 95  1  0
 37 38  1  0
 37 96  1  0
 38 39  1  1
 38 40  1  0
 38 50  1  0
 39 97  1  0
 39 98  1  0
 39 99  1  0
 40 41  1  0
 40 42  1  0
 40100  1  6
 41101  1  0
 42 45  1  0
 42 43  1  6
 42 44  1  0
 43102  1  0
 44 45  1  0
 45 46  1  6
 45 47  1  0
 46103  1  0
 46104  1  0
 46105  1  0
 47 48  1  0
 47106  1  0
 47107  1  0
 48 49  1  6
 49108  1  0
 50 51  1  6
 51109  1  0
 52 53  1  0
 52110  1  0
 52111  1  0
 54 60  1  0
 54 55  1  6
 54 56  1  0
 55112  1  0
 56 57  2  0
 56 58  1  0
 58 59  2  0
 58 60  1  0
 59113  1  0
 59114  1  0
 60 61  1  6
 60 62  1  0
 61115  1  0
 62 63  1  0
 62 64  1  0
 62116  1  1
 63117  1  0
 64 65  1  0
 64118  1  1
 65119  1  0
M  END
>  <i_m_ct_stereo_status>  (53) 
1

>  <s_m_source_file>  (53) 
/var/tmp/pbs.5075288.sched01/tmpeqwi9iw0/66la8jmv2o.sdf

>  <i_m_source_file_index>  (53) 
28

>  <i_lp_mmshare_version>  (53) 
48012

>  <i_f3d_flags>  (53) 
0

>  <s_epik_input>  (53) 
W09IXVtDQEhdMVtDQEBdKE8yKShbT0hdKVtDQEBdMihbQ0gzXSlbQ0gyXVtDQEBdKFtPSF0pKEMoPVtDSDJdKUMoPU8pTzMpW0NAXTMoQyg9W0NIMl0pW0NIM10pW0NIMl1bQ0BdKFtDSDNdKShDNChbQ0gzXSlbQ0gzXSlbQ0BdKFtPSF0pKFtDQEBdMShbQ0gzXSkvW0NIXT1bQ0hdXEM1KFtDQEBIXTZbQ0BdNDc4KVtDSDJdTzUpW0NAQF05KFtDSDNdKUMoPU8pW0NAXShbT0hdKShbQ0BAXShPOSkoW0NIM10pW0NAQEhdKFtPSF0pW1MrXTZbTy1dKVtDQEhdKE9DNz1PKVtDQEBdMShbT0hdKVtDQF0oW09IXSkoQyhDMT1PKT1bQ0gyXSlbQ0BASF0oW09IXSlbQ0BIXThbT0hd

>  <s_epik_cmdline>  (53) 
J2VwaWtfcHl0aG9uJywgJy1waHQnLCAnMi4wJywgJy1waCcsICc3LjAnLCAnLXRuJywgJzgnLCAnLW1hJywgJzIwMCcsICctaW1hZScsICc8aW5maWxlLm1hZT4nLCAnLW9tYWUnLCAnPG91dGZpbGUubWFlPic=

>  <r_epik_Ionization_Penalty>  (53) 
0.00240258

>  <r_epik_Ionization_Penalty_Charging>  (53) 
0

>  <r_epik_Ionization_Penalty_Neutral>  (53) 
0.00240258

>  <r_epik_State_Penalty>  (53) 
0.00131194

>  <r_epik_Charging_Adjusted_Penalty>  (53) 
0.00131194

>  <i_epik_Tot_Q>  (53) 
0

>  <i_epik_Tot_abs_Q>  (53) 
2

>  <s_epik_Chemistry_Notes>  (53) 
This compound has an ester and may undergo hydrolysis at high or low pH. This compound contains an acetal/aminal-like group ( X-CH(R)-Y where X, Y are N, S, or O) that may be acid/base labile, releasing an aldehyde.

>  <s_lp_Force_Field>  (53) 
OPLS3e

>  <r_lp_Energy>  (53) 
415.375

>  <b_lp_Chiralities_Consistent>  (53) 
1

>  <s_lp_Variant>  (53) 
41:0-3

>  <s_i_glide_gridfile>  (53) 
pfpi4k_grid

>  <i_i_glide_lignum>  (53) 
28

>  <i_i_glide_rotatable_bonds>  (53) 
11

>  <r_i_docking_score>  (53) 
-3.44869

>  <r_i_glide_ligand_efficiency>  (53) 
-0.0530567

>  <r_i_glide_ligand_efficiency_sa>  (53) 
-0.213327

>  <r_i_glide_ligand_efficiency_ln>  (53) 
-0.666492

>  <r_i_glide_gscore>  (53) 
-3.44869

>  <r_i_glide_lipo>  (53) 
-0.27902

>  <r_i_glide_hbond>  (53) 
0

>  <r_i_glide_metal>  (53) 
-0

>  <r_i_glide_rewards>  (53) 
-1.02771

>  <r_i_glide_evdw>  (53) 
-35.4388

>  <r_i_glide_ecoul>  (53) 
-2.53578

>  <r_i_glide_erotb>  (53) 
0.0253195

>  <r_i_glide_esite>  (53) 
-0.0149652

>  <r_i_glide_emodel>  (53) 
-54.5725

>  <r_i_glide_energy>  (53) 
-37.9746

>  <r_i_glide_einternal>  (53) 
3.57387

>  <r_i_glide_intrahb_reward>  (53) 
-1

>  <i_i_glide_confnum>  (53) 
1

>  <i_i_glide_posenum>  (53) 
24

>  <r_i_glide_eff_state_penalty>  (53) 
0

>  <ligand_id>  (53) 
41

>  <original_smiles>  (53) 
C=C1C(=O)OC2(C(=C)C)CC3(C)C(C)(C)C45C(=O)OC(C6(O)C(=O)C7(C)OC6(C)C(O)[S+]([O-])C4C4(C=CC(C)(C(O)C6(O)OC6(C)CC12O)C73O)CO4)C1(O)C(=O)C(=C)C1(O)C(O)C5O

>  <smiles>  (53) 
[H]OC1([H])S(=O)C2([H])C3(OC3([H])[H])C([H])=C([H])C3(C([H])([H])[H])C([H])(O[H])C4(O[H])OC4(C([H])([H])[H])C([H])([H])C4(O[H])C(=C([H])[H])C(=O)OC4(C(=C([H])[H])C([H])([H])[H])C([H])([H])C4(C([H])([H])[H])C3(O[H])C3(C([H])([H])[H])OC1(C([H])([H])[H])C(O[H])(C3=O)C1([H])OC(=O)C2(C([H])(O[H])C([H])(O[H])C2(O[H])C(=C([H])[H])C(=O)C12O[H])C4(C([H])([H])[H])C([H])([H])[H]

$$$$
41:2:1
     RDKit          3D

119128  0  0  1  0  0  0  0  0999 V2000
    5.1262   -6.4587    1.3153 C   0  0  0  0  0  0  0  0  0  0  0  0
    4.3332   -5.6750    2.0690 C   0  0  0  0  0  0  0  0  0  0  0  0
    2.8816   -5.8050    2.0967 C   0  0  0  0  0  0  0  0  0  0  0  0
    2.2156   -6.7579    1.6956 O   0  0  0  0  0  0  0  0  0  0  0  0
    2.3877   -4.6894    2.6610 O   0  0  0  0  0  0  0  0  0  0  0  0
    3.3321   -3.6175    2.8244 C   0  0  1  0  0  0  0  0  0  0  0  0
    3.2886   -2.8299    1.4568 C   0  0  0  0  0  0  0  0  0  0  0  0
    2.5500   -3.1866    0.3824 C   0  0  0  0  0  0  0  0  0  0  0  0
    4.0907   -1.5411    1.3033 C   0  0  0  0  0  0  0  0  0  0  0  0
    2.7385   -2.5496    3.8857 C   0  0  0  0  0  0  0  0  0  0  0  0
    2.3101   -2.6724    5.4560 C   0  0  2  0  0  0  0  0  0  0  0  0
    2.1479   -4.2155    5.5202 C   0  0  0  0  0  0  0  0  0  0  0  0
    0.7008   -2.1593    5.7766 C   0  0  0  0  0  0  0  0  0  0  0  0
   -0.1622   -2.4067    4.4828 C   0  0  0  0  0  0  0  0  0  0  0  0
   -0.1647   -3.0983    6.7199 C   0  0  0  0  0  0  0  0  0  0  0  0
    0.4432   -0.6246    6.2775 C   0  0  2  0  0  0  0  0  0  0  0  0
    1.2997    0.1636    5.3896 C   0  0  0  0  0  0  0  0  0  0  0  0
    1.5846   -0.0906    4.2264 O   0  0  0  0  0  0  0  0  0  0  0  0
    1.4122    1.2949    5.9199 O   0  0  0  0  0  0  0  0  0  0  0  0
    2.1368    2.3022    5.4283 C   0  0  1  0  0  0  0  0  0  0  0  0
    3.6025    1.8772    5.7852 C   0  0  2  0  0  0  0  0  0  0  0  0
    4.3847    2.9624    5.3353 O   0  0  0  0  0  0  0  0  0  0  0  0
    4.2083    0.5286    5.2791 C   0  0  0  0  0  0  0  0  0  0  0  0
    4.6760    0.3940    4.1444 O   0  0  0  0  0  0  0  0  0  0  0  0
    4.2958   -0.5504    6.4083 C   0  0  1  0  0  0  0  0  0  0  0  0
    5.8571   -0.5335    6.7233 C   0  0  0  0  0  0  0  0  0  0  0  0
    3.6778    0.1830    7.4726 O   0  0  0  0  0  0  0  0  0  0  0  0
    3.7080    1.6231    7.3548 C   0  0  1  0  0  0  0  0  0  0  0  0
    5.0718    2.1384    7.9329 C   0  0  0  0  0  0  0  0  0  0  0  0
    2.6201    2.1848    8.3846 C   0  0  1  0  0  0  0  0  0  0  0  0
    2.6411    3.6062    8.3617 O   0  0  0  0  0  0  0  0  0  0  0  0
    0.8744    1.4559    8.5450 S   0  0  0  0  0  0  0  0  0  0  0  0
   -0.1038    2.4295    7.8766 O   0  0  0  0  0  0  0  0  0  0  0  0
    0.6942   -0.3389    7.9086 C   0  0  2  0  0  0  0  0  0  0  0  0
    1.5380   -1.1949    8.9278 C   0  0  2  0  0  0  0  0  0  0  0  0
    1.7354   -2.6499    8.8386 C   0  0  0  0  0  0  0  0  0  0  0  0
    2.7528   -3.4086    8.4051 C   0  0  0  0  0  0  0  0  0  0  0  0
    4.0232   -2.9798    7.7143 C   0  0  1  0  0  0  0  0  0  0  0  0
    4.7713   -2.2155    8.8593 C   0  0  0  0  0  0  0  0  0  0  0  0
    5.0241   -4.2401    7.5300 C   0  0  1  0  0  0  0  0  0  0  0  0
    5.3665   -4.8242    8.7794 O   0  0  0  0  0  0  0  0  0  0  0  0
    4.6594   -5.5107    6.7277 C   0  0  2  0  0  0  0  0  0  0  0  0
    3.7125   -6.3615    7.3479 O   0  0  0  0  0  0  0  0  0  0  0  0
    5.8406   -6.1947    6.3217 O   0  0  0  0  0  0  0  0  0  0  0  0
    4.9257   -5.9376    5.2568 C   0  0  1  0  0  0  0  0  0  0  0  0
    4.3633   -7.2459    4.7173 C   0  0  0  0  0  0  0  0  0  0  0  0
    5.5206   -5.0175    4.1655 C   0  0  0  0  0  0  0  0  0  0  0  0
    4.7151   -4.4682    2.9014 C   0  0  1  0  0  0  0  0  0  0  0  0
    5.7576   -3.7653    2.2370 O   0  0  0  0  0  0  0  0  0  0  0  0
    3.6672   -2.1224    6.3526 C   0  0  1  0  0  0  0  0  0  0  0  0
    4.6781   -2.6065    5.5253 O   0  0  0  0  0  0  0  0  0  0  0  0
    1.2166   -0.9477   10.4194 C   0  0  0  0  0  0  0  0  0  0  0  0
    2.4234   -0.5101    9.8387 O   0  0  0  0  0  0  0  0  0  0  0  0
    1.4228    2.6602    4.0959 C   0  0  2  0  0  0  0  0  0  0  0  0
    2.2717    2.5383    2.9748 O   0  0  0  0  0  0  0  0  0  0  0  0
    0.9644    4.1280    4.2741 C   0  0  0  0  0  0  0  0  0  0  0  0
    1.3773    5.2712    4.0781 O   0  0  0  0  0  0  0  0  0  0  0  0
   -0.3416    3.6599    4.5979 C   0  0  0  0  0  0  0  0  0  0  0  0
   -1.2404    4.2344    5.4238 C   0  0  0  0  0  0  0  0  0  0  0  0
   -0.1735    2.3135    3.9043 C   0  0  1  0  0  0  0  0  0  0  0  0
   -0.6846    2.5301    2.5949 O   0  0  0  0  0  0  0  0  0  0  0  0
   -1.1319    1.1371    4.5274 C   0  0  1  0  0  0  0  0  0  0  0  0
   -1.3858    0.2023    3.5196 O   0  0  0  0  0  0  0  0  0  0  0  0
   -0.9090    0.2056    5.8482 C   0  0  1  0  0  0  0  0  0  0  0  0
   -2.0836   -0.5429    6.0511 O   0  0  0  0  0  0  0  0  0  0  0  0
    6.1999   -6.3128    1.2726 H   0  0  0  0  0  0  0  0  0  0  0  0
    4.7102   -7.2642    0.7281 H   0  0  0  0  0  0  0  0  0  0  0  0
    1.9239   -4.0650    0.3367 H   0  0  0  0  0  0  0  0  0  0  0  0
    2.5516   -2.5763   -0.5114 H   0  0  0  0  0  0  0  0  0  0  0  0
    4.6100   -1.2301    2.2036 H   0  0  0  0  0  0  0  0  0  0  0  0
    3.4206   -0.7366    0.9928 H   0  0  0  0  0  0  0  0  0  0  0  0
    4.8518   -1.6480    0.5317 H   0  0  0  0  0  0  0  0  0  0  0  0
    3.3426   -1.6601    3.8288 H   0  0  0  0  0  0  0  0  0  0  0  0
    1.8905   -2.2528    3.3040 H   0  0  0  0  0  0  0  0  0  0  0  0
    2.0627   -4.6788    6.4861 H   0  0  0  0  0  0  0  0  0  0  0  0
    2.9729   -4.6914    5.0542 H   0  0  0  0  0  0  0  0  0  0  0  0
    1.3035   -4.6088    4.9657 H   0  0  0  0  0  0  0  0  0  0  0  0
   -1.2295   -2.3160    4.6531 H   0  0  0  0  0  0  0  0  0  0  0  0
   -0.0470   -3.4040    4.0704 H   0  0  0  0  0  0  0  0  0  0  0  0
    0.0057   -1.7365    3.6558 H   0  0  0  0  0  0  0  0  0  0  0  0
   -0.6916   -2.5390    7.4860 H   0  0  0  0  0  0  0  0  0  0  0  0
    0.3491   -3.8951    7.2397 H   0  0  0  0  0  0  0  0  0  0  0  0
   -0.9596   -3.6608    6.2236 H   0  0  0  0  0  0  0  0  0  0  0  0
    1.9522    3.1260    6.1209 H   0  0  0  0  0  0  0  0  0  0  0  0
    4.2799    2.9929    4.3920 H   0  0  0  0  0  0  0  0  0  0  0  0
    6.4199    0.1856    6.1247 H   0  0  0  0  0  0  0  0  0  0  0  0
    6.4156   -1.4603    6.6000 H   0  0  0  0  0  0  0  0  0  0  0  0
    6.0549   -0.2372    7.7495 H   0  0  0  0  0  0  0  0  0  0  0  0
    5.0646    3.2085    8.1398 H   0  0  0  0  0  0  0  0  0  0  0  0
    5.9219    2.0046    7.2683 H   0  0  0  0  0  0  0  0  0  0  0  0
    5.3099    1.6488    8.8801 H   0  0  0  0  0  0  0  0  0  0  0  0
    3.0049    1.9326    9.3712 H   0  0  0  0  0  0  0  0  0  0  0  0
    3.2661    3.9081    9.0078 H   0  0  0  0  0  0  0  0  0  0  0  0
   -0.3218   -0.5224    8.2646 H   0  0  0  0  0  0  0  0  0  0  0  0
    0.9376   -3.1940    9.3066 H   0  0  0  0  0  0  0  0  0  0  0  0
    2.6371   -4.4605    8.5859 H   0  0  0  0  0  0  0  0  0  0  0  0
    5.8508   -2.1920    8.7210 H   0  0  0  0  0  0  0  0  0  0  0  0
    4.6289   -2.7006    9.8286 H   0  0  0  0  0  0  0  0  0  0  0  0
    4.4557   -1.2059    9.0430 H   0  0  0  0  0  0  0  0  0  0  0  0
    5.9774   -3.8702    7.1410 H   0  0  0  0  0  0  0  0  0  0  0  0
    6.1166   -5.3860    8.6381 H   0  0  0  0  0  0  0  0  0  0  0  0
    3.9880   -6.4983    8.2459 H   0  0  0  0  0  0  0  0  0  0  0  0
    3.3198   -7.1221    4.4310 H   0  0  0  0  0  0  0  0  0  0  0  0
    4.3980   -8.0195    5.4847 H   0  0  0  0  0  0  0  0  0  0  0  0
    4.9517   -7.6086    3.8751 H   0  0  0  0  0  0  0  0  0  0  0  0
    6.0784   -4.2399    4.6655 H   0  0  0  0  0  0  0  0  0  0  0  0
    6.3466   -5.6074    3.7626 H   0  0  0  0  0  0  0  0  0  0  0  0
    5.4235   -3.4212    1.4203 H   0  0  0  0  0  0  0  0  0  0  0  0
    5.5093   -2.3920    5.9153 H   0  0  0  0  0  0  0  0  0  0  0  0
    0.5284   -0.1625   10.7048 H   0  0  0  0  0  0  0  0  0  0  0  0
    1.3933   -1.6987   11.1842 H   0  0  0  0  0  0  0  0  0  0  0  0
    1.7997    2.8996    2.2364 H   0  0  0  0  0  0  0  0  0  0  0  0
   -1.0461    5.2021    5.8776 H   0  0  0  0  0  0  0  0  0  0  0  0
   -2.1491    3.7229    5.6714 H   0  0  0  0  0  0  0  0  0  0  0  0
   -0.2557    3.2753    2.1835 H   0  0  0  0  0  0  0  0  0  0  0  0
   -2.1159    1.5981    4.6704 H   0  0  0  0  0  0  0  0  0  0  0  0
   -1.9742    0.6289    2.8875 H   0  0  0  0  0  0  0  0  0  0  0  0
   -1.0723    0.9316    6.6194 H   0  0  0  0  0  0  0  0  0  0  0  0
   -2.2299   -1.0022    5.2350 H   0  0  0  0  0  0  0  0  0  0  0  0
  1  2  2  0
  1 66  1  0
  1 67  1  0
  2 48  1  0
  2  3  1  0
  3  4  2  0
  3  5  1  0
  5  6  1  0
  6 48  1  0
  6  7  1  6
  6 10  1  0
  7  8  2  0
  7  9  1  0
  8 68  1  0
  8 69  1  0
  9 70  1  0
  9 71  1  0
  9 72  1  0
 10 11  1  0
 10 73  1  0
 10 74  1  0
 11 50  1  0
 11 12  1  1
 11 13  1  0
 12 75  1  0
 12 76  1  0
 12 77  1  0
 13 14  1  0
 13 15  1  0
 16 13  1  1
 14 78  1  0
 14 79  1  0
 14 80  1  0
 15 81  1  0
 15 82  1  0
 15 83  1  0
 16 34  1  0
 16 64  1  0
 16 17  1  0
 17 18  2  0
 17 19  1  0
 19 20  1  0
 20 21  1  0
 20 54  1  0
 20 84  1  1
 21 28  1  0
 21 22  1  1
 21 23  1  0
 22 85  1  0
 23 24  2  0
 23 25  1  0
 25 50  1  0
 25 26  1  1
 25 27  1  0
 26 86  1  0
 26 87  1  0
 26 88  1  0
 27 28  1  0
 28 29  1  1
 28 30  1  0
 29 89  1  0
 29 90  1  0
 29 91  1  0
 30 31  1  0
 32 30  1  6
 30 92  1  1
 31 93  1  0
 32 33  2  0
 32 34  1  0
 34 35  1  0
 34 94  1  1
 35 53  1  1
 35 36  1  0
 35 52  1  0
 36 37  2  3
 36 95  1  0
 37 38  1  0
 37 96  1  0
 38 39  1  1
 38 40  1  0
 38 50  1  0
 39 97  1  0
 39 98  1  0
 39 99  1  0
 40 41  1  0
 40 42  1  0
 40100  1  6
 41101  1  0
 42 45  1  0
 42 43  1  1
 42 44  1  0
 43102  1  0
 44 45  1  0
 45 46  1  6
 45 47  1  0
 46103  1  0
 46104  1  0
 46105  1  0
 47 48  1  0
 47106  1  0
 47107  1  0
 48 49  1  6
 49108  1  0
 50 51  1  6
 51109  1  0
 52 53  1  0
 52110  1  0
 52111  1  0
 54 60  1  0
 54 55  1  6
 54 56  1  0
 55112  1  0
 56 57  2  0
 56 58  1  0
 58 59  2  0
 58 60  1  0
 59113  1  0
 59114  1  0
 60 61  1  6
 60 62  1  0
 61115  1  0
 62 63  1  0
 62 64  1  0
 62116  1  1
 63117  1  0
 64 65  1  0
 64118  1  1
 65119  1  0
M  END
>  <i_m_ct_stereo_status>  (54) 
1

>  <s_m_source_file>  (54) 
/var/tmp/pbs.5075288.sched01/tmpeqwi9iw0/66la8jmv2o.sdf

>  <i_m_source_file_index>  (54) 
28

>  <i_lp_mmshare_version>  (54) 
48012

>  <i_f3d_flags>  (54) 
0

>  <s_epik_input>  (54) 
W09IXVtDQEhdMVtDQEBdKE8yKShbT0hdKVtDQEBdMihbQ0gzXSlbQ0gyXVtDQEBdKFtPSF0pKEMoPVtDSDJdKUMoPU8pTzMpW0NAXTMoQyg9W0NIMl0pW0NIM10pW0NIMl1bQ0BdKFtDSDNdKShDNChbQ0gzXSlbQ0gzXSlbQ0BdKFtPSF0pKFtDQEBdMShbQ0gzXSkvW0NIXT1bQ0hdXEM1KFtDQEBIXTZbQ0BdNDc4KVtDSDJdTzUpW0NAQF05KFtDSDNdKUMoPU8pW0NAXShbT0hdKShbQ0BAXShPOSkoW0NIM10pW0NAQEhdKFtPSF0pW1MrXTZbTy1dKVtDQEhdKE9DNz1PKVtDQEBdMShbT0hdKVtDQF0oW09IXSkoQyhDMT1PKT1bQ0gyXSlbQ0BASF0oW09IXSlbQ0BIXThbT0hd

>  <s_epik_cmdline>  (54) 
J2VwaWtfcHl0aG9uJywgJy1waHQnLCAnMi4wJywgJy1waCcsICc3LjAnLCAnLXRuJywgJzgnLCAnLW1hJywgJzIwMCcsICctaW1hZScsICc8aW5maWxlLm1hZT4nLCAnLW9tYWUnLCAnPG91dGZpbGUubWFlPic=

>  <r_epik_Ionization_Penalty>  (54) 
0.00240258

>  <r_epik_Ionization_Penalty_Charging>  (54) 
0

>  <r_epik_Ionization_Penalty_Neutral>  (54) 
0.00240258

>  <r_epik_State_Penalty>  (54) 
0.00131194

>  <r_epik_Charging_Adjusted_Penalty>  (54) 
0.00131194

>  <i_epik_Tot_Q>  (54) 
0

>  <i_epik_Tot_abs_Q>  (54) 
2

>  <s_epik_Chemistry_Notes>  (54) 
This compound has an ester and may undergo hydrolysis at high or low pH. This compound contains an acetal/aminal-like group ( X-CH(R)-Y where X, Y are N, S, or O) that may be acid/base labile, releasing an aldehyde.

>  <s_lp_Force_Field>  (54) 
OPLS3e

>  <r_lp_Energy>  (54) 
415.375

>  <b_lp_Chiralities_Consistent>  (54) 
1

>  <s_lp_Variant>  (54) 
41:0-3

>  <s_i_glide_gridfile>  (54) 
pfpi4k_grid

>  <i_i_glide_lignum>  (54) 
28

>  <i_i_glide_rotatable_bonds>  (54) 
11

>  <r_i_docking_score>  (54) 
-3.36194

>  <r_i_glide_ligand_efficiency>  (54) 
-0.0517222

>  <r_i_glide_ligand_efficiency_sa>  (54) 
-0.207961

>  <r_i_glide_ligand_efficiency_ln>  (54) 
-0.649728

>  <r_i_glide_gscore>  (54) 
-3.36194

>  <r_i_glide_lipo>  (54) 
-0.17977

>  <r_i_glide_hbond>  (54) 
0

>  <r_i_glide_metal>  (54) 
-0

>  <r_i_glide_rewards>  (54) 
-0.507886

>  <r_i_glide_evdw>  (54) 
-31.7706

>  <r_i_glide_ecoul>  (54) 
-7.12561

>  <r_i_glide_erotb>  (54) 
0.0253195

>  <r_i_glide_esite>  (54) 
-0.0422356

>  <r_i_glide_emodel>  (54) 
-47.8933

>  <r_i_glide_energy>  (54) 
-38.8962

>  <r_i_glide_einternal>  (54) 
7.17575

>  <r_i_glide_intrahb_reward>  (54) 
-0.5

>  <i_i_glide_confnum>  (54) 
3

>  <i_i_glide_posenum>  (54) 
1

>  <r_i_glide_eff_state_penalty>  (54) 
0

>  <ligand_id>  (54) 
41

>  <original_smiles>  (54) 
C=C1C(=O)OC2(C(=C)C)CC3(C)C(C)(C)C45C(=O)OC(C6(O)C(=O)C7(C)OC6(C)C(O)[S+]([O-])C4C4(C=CC(C)(C(O)C6(O)OC6(C)CC12O)C73O)CO4)C1(O)C(=O)C(=C)C1(O)C(O)C5O

>  <smiles>  (54) 
[H]OC1([H])S(=O)C2([H])C3(OC3([H])[H])C([H])=C([H])C3(C([H])([H])[H])C([H])(O[H])C4(O[H])OC4(C([H])([H])[H])C([H])([H])C4(O[H])C(=C([H])[H])C(=O)OC4(C(=C([H])[H])C([H])([H])[H])C([H])([H])C4(C([H])([H])[H])C3(O[H])C3(C([H])([H])[H])OC1(C([H])([H])[H])C(O[H])(C3=O)C1([H])OC(=O)C2(C([H])(O[H])C([H])(O[H])C2(O[H])C(=C([H])[H])C(=O)C12O[H])C4(C([H])([H])[H])C([H])([H])[H]

$$$$
41:2:2
     RDKit          3D

119128  0  0  1  0  0  0  0  0999 V2000
    5.1279   -6.4935    1.1034 C   0  0  0  0  0  0  0  0  0  0  0  0
    4.3510   -5.7170    1.8832 C   0  0  0  0  0  0  0  0  0  0  0  0
    2.8974   -5.8262    1.9195 C   0  0  0  0  0  0  0  0  0  0  0  0
    2.2141   -6.7616    1.5068 O   0  0  0  0  0  0  0  0  0  0  0  0
    2.4273   -4.7214    2.5219 O   0  0  0  0  0  0  0  0  0  0  0  0
    3.3876   -3.6666    2.6973 C   0  0  1  0  0  0  0  0  0  0  0  0
    3.3384   -2.8452    1.3537 C   0  0  0  0  0  0  0  0  0  0  0  0
    2.5346   -3.1318    0.3058 C   0  0  0  0  0  0  0  0  0  0  0  0
    4.2161   -1.6080    1.1979 C   0  0  0  0  0  0  0  0  0  0  0  0
    2.8254   -2.6073    3.7829 C   0  0  0  0  0  0  0  0  0  0  0  0
    2.4089   -2.7615    5.3560 C   0  0  2  0  0  0  0  0  0  0  0  0
    2.2250   -4.3034    5.3890 C   0  0  0  0  0  0  0  0  0  0  0  0
    0.8079   -2.2384    5.7068 C   0  0  0  0  0  0  0  0  0  0  0  0
   -0.0722   -2.4449    4.4200 C   0  0  0  0  0  0  0  0  0  0  0  0
   -0.0623   -3.1861    6.6405 C   0  0  0  0  0  0  0  0  0  0  0  0
    0.5765   -0.7131    6.2462 C   0  0  2  0  0  0  0  0  0  0  0  0
    1.4318    0.0835    5.3645 C   0  0  0  0  0  0  0  0  0  0  0  0
    1.7049   -0.1408    4.1912 O   0  0  0  0  0  0  0  0  0  0  0  0
    1.5623    1.1994    5.9237 O   0  0  0  0  0  0  0  0  0  0  0  0
    2.2931    2.2142    5.4561 C   0  0  1  0  0  0  0  0  0  0  0  0
    3.7594    1.7564    5.7788 C   0  0  2  0  0  0  0  0  0  0  0  0
    4.5682    2.8297    5.3556 O   0  0  0  0  0  0  0  0  0  0  0  0
    4.3395    0.4129    5.2349 C   0  0  0  0  0  0  0  0  0  0  0  0
    4.7634    0.2947    4.0810 O   0  0  0  0  0  0  0  0  0  0  0  0
    4.4281   -0.6928    6.3384 C   0  0  1  0  0  0  0  0  0  0  0  0
    5.9920   -0.7016    6.6354 C   0  0  0  0  0  0  0  0  0  0  0  0
    3.8299    0.0234    7.4265 O   0  0  0  0  0  0  0  0  0  0  0  0
    3.8767    1.4652    7.3402 C   0  0  1  0  0  0  0  0  0  0  0  0
    5.2536    1.9525    7.9136 C   0  0  0  0  0  0  0  0  0  0  0  0
    2.8076    2.0206    8.3935 C   0  0  1  0  0  0  0  0  0  0  0  0
    2.8472    3.4404    8.4048 O   0  0  0  0  0  0  0  0  0  0  0  0
    1.0540    1.3108    8.5556 S   0  0  0  0  0  0  0  0  0  0  0  0
    0.0785    2.3073    7.9246 O   0  0  0  0  0  0  0  0  0  0  0  0
    0.8462   -0.4696    7.8811 C   0  0  2  0  0  0  0  0  0  0  0  0
    1.6871   -1.3575    8.8726 C   0  0  2  0  0  0  0  0  0  0  0  0
    1.8666   -2.8131    8.7474 C   0  0  0  0  0  0  0  0  0  0  0  0
    2.8691   -3.5717    8.2868 C   0  0  0  0  0  0  0  0  0  0  0  0
    4.1378   -3.1451    7.5942 C   0  0  1  0  0  0  0  0  0  0  0  0
    4.9064   -2.4126    8.7465 C   0  0  0  0  0  0  0  0  0  0  0  0
    5.1249   -4.4107    7.3805 C   0  0  1  0  0  0  0  0  0  0  0  0
    5.5292   -4.9938    8.6156 O   0  0  0  0  0  0  0  0  0  0  0  0
    4.7341   -5.6601    6.5533 C   0  0  2  0  0  0  0  0  0  0  0  0
    3.7625   -6.4949    7.1586 O   0  0  0  0  0  0  0  0  0  0  0  0
    5.8909   -6.3600    6.1046 O   0  0  0  0  0  0  0  0  0  0  0  0
    4.9706   -6.0546    5.0612 C   0  0  1  0  0  0  0  0  0  0  0  0
    4.3899   -7.3451    4.4963 C   0  0  0  0  0  0  0  0  0  0  0  0
    5.5692   -5.1210    3.9826 C   0  0  0  0  0  0  0  0  0  0  0  0
    4.7604   -4.5366    2.7372 C   0  0  1  0  0  0  0  0  0  0  0  0
    5.8109   -3.8457    2.0755 O   0  0  0  0  0  0  0  0  0  0  0  0
    3.7791   -2.2539    6.2538 C   0  0  1  0  0  0  0  0  0  0  0  0
    4.7743   -2.7246    5.4012 O   0  0  0  0  0  0  0  0  0  0  0  0
    1.3858   -1.1396   10.3742 C   0  0  0  0  0  0  0  0  0  0  0  0
    2.5905   -0.7041    9.7902 O   0  0  0  0  0  0  0  0  0  0  0  0
    1.5629    2.5933    4.1374 C   0  0  2  0  0  0  0  0  0  0  0  0
    2.4062    2.4369    3.0216 O   0  0  0  0  0  0  0  0  0  0  0  0
    1.1261    4.0736    4.3240 C   0  0  0  0  0  0  0  0  0  0  0  0
    1.5620    5.2176    4.1883 O   0  0  0  0  0  0  0  0  0  0  0  0
   -0.1869    3.6178    4.6704 C   0  0  0  0  0  0  0  0  0  0  0  0
   -1.0600    4.1873    5.5234 C   0  0  0  0  0  0  0  0  0  0  0  0
   -0.0421    2.2677    3.9615 C   0  0  1  0  0  0  0  0  0  0  0  0
   -0.5702    2.4783    2.6553 O   0  0  0  0  0  0  0  0  0  0  0  0
   -1.0103    1.0932    4.5625 C   0  0  1  0  0  0  0  0  0  0  0  0
   -1.3345    0.1827    3.5422 O   0  0  0  0  0  0  0  0  0  0  0  0
   -0.7729    0.1354    5.8597 C   0  0  1  0  0  0  0  0  0  0  0  0
   -1.9431   -0.6202    6.0558 O   0  0  0  0  0  0  0  0  0  0  0  0
    6.2035   -6.3619    1.0588 H   0  0  0  0  0  0  0  0  0  0  0  0
    4.6977   -7.2796    0.5014 H   0  0  0  0  0  0  0  0  0  0  0  0
    1.8495   -3.9676    0.2793 H   0  0  0  0  0  0  0  0  0  0  0  0
    2.5433   -2.5059   -0.5767 H   0  0  0  0  0  0  0  0  0  0  0  0
    4.7726   -1.3560    2.0967 H   0  0  0  0  0  0  0  0  0  0  0  0
    3.5960   -0.7536    0.9177 H   0  0  0  0  0  0  0  0  0  0  0  0
    4.9404   -1.7554    0.3968 H   0  0  0  0  0  0  0  0  0  0  0  0
    3.4458   -1.7284    3.7154 H   0  0  0  0  0  0  0  0  0  0  0  0
    1.9695   -2.2908    3.2234 H   0  0  0  0  0  0  0  0  0  0  0  0
    2.1425   -4.7866    6.3447 H   0  0  0  0  0  0  0  0  0  0  0  0
    3.0383   -4.7799    4.9037 H   0  0  0  0  0  0  0  0  0  0  0  0
    1.3698   -4.6748    4.8368 H   0  0  0  0  0  0  0  0  0  0  0  0
   -1.1389   -2.3553    4.5972 H   0  0  0  0  0  0  0  0  0  0  0  0
    0.0311   -3.4317    3.9794 H   0  0  0  0  0  0  0  0  0  0  0  0
    0.0945   -1.7569    3.6048 H   0  0  0  0  0  0  0  0  0  0  0  0
   -0.5849   -2.6387    7.4213 H   0  0  0  0  0  0  0  0  0  0  0  0
    0.4466   -3.9999    7.1374 H   0  0  0  0  0  0  0  0  0  0  0  0
   -0.8655   -3.7322    6.1383 H   0  0  0  0  0  0  0  0  0  0  0  0
    2.1255    3.0266    6.1640 H   0  0  0  0  0  0  0  0  0  0  0  0
    4.4706    2.8884    4.4124 H   0  0  0  0  0  0  0  0  0  0  0  0
    6.5571    0.0240    6.0450 H   0  0  0  0  0  0  0  0  0  0  0  0
    6.5379   -1.6313    6.4872 H   0  0  0  0  0  0  0  0  0  0  0  0
    6.2046   -0.4305    7.6655 H   0  0  0  0  0  0  0  0  0  0  0  0
    5.2600    3.0203    8.1405 H   0  0  0  0  0  0  0  0  0  0  0  0
    6.0939    1.8220    7.2339 H   0  0  0  0  0  0  0  0  0  0  0  0
    5.4932    1.4391    8.8480 H   0  0  0  0  0  0  0  0  0  0  0  0
    3.1999    1.7392    9.3703 H   0  0  0  0  0  0  0  0  0  0  0  0
    3.4257    3.7170    9.1055 H   0  0  0  0  0  0  0  0  0  0  0  0
   -0.1690   -0.6525    8.2421 H   0  0  0  0  0  0  0  0  0  0  0  0
    1.0634   -3.3567    9.2090 H   0  0  0  0  0  0  0  0  0  0  0  0
    2.7347   -4.6267    8.4383 H   0  0  0  0  0  0  0  0  0  0  0  0
    5.9845   -2.4009    8.5972 H   0  0  0  0  0  0  0  0  0  0  0  0
    4.7673   -2.9142    9.7069 H   0  0  0  0  0  0  0  0  0  0  0  0
    4.6085   -1.4030    8.9562 H   0  0  0  0  0  0  0  0  0  0  0  0
    6.0667   -4.0439    6.9692 H   0  0  0  0  0  0  0  0  0  0  0  0
    4.7719   -5.3262    9.0705 H   0  0  0  0  0  0  0  0  0  0  0  0
    4.1216   -6.8484    7.9633 H   0  0  0  0  0  0  0  0  0  0  0  0
    3.3450   -7.2051    4.2220 H   0  0  0  0  0  0  0  0  0  0  0  0
    4.4257   -8.1349    5.2480 H   0  0  0  0  0  0  0  0  0  0  0  0
    4.9681   -7.6954    3.6429 H   0  0  0  0  0  0  0  0  0  0  0  0
    6.1412   -4.3607    4.4937 H   0  0  0  0  0  0  0  0  0  0  0  0
    6.3837   -5.7123    3.5612 H   0  0  0  0  0  0  0  0  0  0  0  0
    5.4884   -3.5552    1.2333 H   0  0  0  0  0  0  0  0  0  0  0  0
    5.6125   -2.4945    5.7667 H   0  0  0  0  0  0  0  0  0  0  0  0
    0.7140   -0.3480   10.6803 H   0  0  0  0  0  0  0  0  0  0  0  0
    1.5567   -1.9076   11.1212 H   0  0  0  0  0  0  0  0  0  0  0  0
    2.5176    1.5034    2.8945 H   0  0  0  0  0  0  0  0  0  0  0  0
   -0.8572    5.1534    5.9871 H   0  0  0  0  0  0  0  0  0  0  0  0
   -1.9753    3.6762    5.7696 H   0  0  0  0  0  0  0  0  0  0  0  0
   -0.1674    3.2421    2.2578 H   0  0  0  0  0  0  0  0  0  0  0  0
   -1.9785    1.5734    4.7313 H   0  0  0  0  0  0  0  0  0  0  0  0
   -1.8757    0.6509    2.9148 H   0  0  0  0  0  0  0  0  0  0  0  0
   -0.9217    0.8503    6.6438 H   0  0  0  0  0  0  0  0  0  0  0  0
   -2.0646   -1.0941    5.2426 H   0  0  0  0  0  0  0  0  0  0  0  0
  1  2  2  0
  1 66  1  0
  1 67  1  0
  2 48  1  0
  2  3  1  0
  3  4  2  0
  3  5  1  0
  5  6  1  0
  6 48  1  0
  6  7  1  6
  6 10  1  0
  7  8  2  0
  7  9  1  0
  8 68  1  0
  8 69  1  0
  9 70  1  0
  9 71  1  0
  9 72  1  0
 10 11  1  0
 10 73  1  0
 10 74  1  0
 11 50  1  0
 11 12  1  1
 11 13  1  0
 12 75  1  0
 12 76  1  0
 12 77  1  0
 13 14  1  0
 13 15  1  0
 16 13  1  6
 14 78  1  0
 14 79  1  0
 14 80  1  0
 15 81  1  0
 15 82  1  0
 15 83  1  0
 16 34  1  0
 16 64  1  0
 16 17  1  0
 17 18  2  0
 17 19  1  0
 19 20  1  0
 20 21  1  0
 20 54  1  0
 20 84  1  1
 21 28  1  0
 21 22  1  1
 21 23  1  0
 22 85  1  0
 23 24  2  0
 23 25  1  0
 25 50  1  0
 25 26  1  1
 25 27  1  0
 26 86  1  0
 26 87  1  0
 26 88  1  0
 27 28  1  0
 28 29  1  1
 28 30  1  0
 29 89  1  0
 29 90  1  0
 29 91  1  0
 30 31  1  0
 32 30  1  6
 30 92  1  1
 31 93  1  0
 32 33  2  0
 32 34  1  0
 34 35  1  0
 34 94  1  1
 35 53  1  1
 35 36  1  0
 35 52  1  0
 36 37  2  3
 36 95  1  0
 37 38  1  0
 37 96  1  0
 38 39  1  1
 38 40  1  0
 38 50  1  0
 39 97  1  0
 39 98  1  0
 39 99  1  0
 40 41  1  0
 40 42  1  0
 40100  1  6
 41101  1  0
 42 45  1  0
 42 43  1  1
 42 44  1  0
 43102  1  0
 44 45  1  0
 45 46  1  6
 45 47  1  0
 46103  1  0
 46104  1  0
 46105  1  0
 47 48  1  0
 47106  1  0
 47107  1  0
 48 49  1  6
 49108  1  0
 50 51  1  6
 51109  1  0
 52 53  1  0
 52110  1  0
 52111  1  0
 54 60  1  0
 54 55  1  6
 54 56  1  0
 55112  1  0
 56 57  2  0
 56 58  1  0
 58 59  2  0
 58 60  1  0
 59113  1  0
 59114  1  0
 60 61  1  6
 60 62  1  0
 61115  1  0
 62 63  1  0
 62 64  1  0
 62116  1  1
 63117  1  0
 64 65  1  0
 64118  1  1
 65119  1  0
M  END
>  <i_m_ct_stereo_status>  (55) 
1

>  <s_m_source_file>  (55) 
/var/tmp/pbs.5075288.sched01/tmpeqwi9iw0/66la8jmv2o.sdf

>  <i_m_source_file_index>  (55) 
28

>  <i_lp_mmshare_version>  (55) 
48012

>  <i_f3d_flags>  (55) 
0

>  <s_epik_input>  (55) 
W09IXVtDQEhdMVtDQEBdKE8yKShbT0hdKVtDQEBdMihbQ0gzXSlbQ0gyXVtDQEBdKFtPSF0pKEMoPVtDSDJdKUMoPU8pTzMpW0NAXTMoQyg9W0NIMl0pW0NIM10pW0NIMl1bQ0BdKFtDSDNdKShDNChbQ0gzXSlbQ0gzXSlbQ0BdKFtPSF0pKFtDQEBdMShbQ0gzXSkvW0NIXT1bQ0hdXEM1KFtDQEBIXTZbQ0BdNDc4KVtDSDJdTzUpW0NAQF05KFtDSDNdKUMoPU8pW0NAXShbT0hdKShbQ0BAXShPOSkoW0NIM10pW0NAQEhdKFtPSF0pW1MrXTZbTy1dKVtDQEhdKE9DNz1PKVtDQEBdMShbT0hdKVtDQF0oW09IXSkoQyhDMT1PKT1bQ0gyXSlbQ0BASF0oW09IXSlbQ0BIXThbT0hd

>  <s_epik_cmdline>  (55) 
J2VwaWtfcHl0aG9uJywgJy1waHQnLCAnMi4wJywgJy1waCcsICc3LjAnLCAnLXRuJywgJzgnLCAnLW1hJywgJzIwMCcsICctaW1hZScsICc8aW5maWxlLm1hZT4nLCAnLW9tYWUnLCAnPG91dGZpbGUubWFlPic=

>  <r_epik_Ionization_Penalty>  (55) 
0.00240258

>  <r_epik_Ionization_Penalty_Charging>  (55) 
0

>  <r_epik_Ionization_Penalty_Neutral>  (55) 
0.00240258

>  <r_epik_State_Penalty>  (55) 
0.00131194

>  <r_epik_Charging_Adjusted_Penalty>  (55) 
0.00131194

>  <i_epik_Tot_Q>  (55) 
0

>  <i_epik_Tot_abs_Q>  (55) 
2

>  <s_epik_Chemistry_Notes>  (55) 
This compound has an ester and may undergo hydrolysis at high or low pH. This compound contains an acetal/aminal-like group ( X-CH(R)-Y where X, Y are N, S, or O) that may be acid/base labile, releasing an aldehyde.

>  <s_lp_Force_Field>  (55) 
OPLS3e

>  <r_lp_Energy>  (55) 
415.375

>  <b_lp_Chiralities_Consistent>  (55) 
1

>  <s_lp_Variant>  (55) 
41:0-3

>  <s_i_glide_gridfile>  (55) 
pfpi4k_grid

>  <i_i_glide_lignum>  (55) 
28

>  <i_i_glide_rotatable_bonds>  (55) 
11

>  <r_i_docking_score>  (55) 
-3.18609

>  <r_i_glide_ligand_efficiency>  (55) 
-0.0490168

>  <r_i_glide_ligand_efficiency_sa>  (55) 
-0.197083

>  <r_i_glide_ligand_efficiency_ln>  (55) 
-0.615743

>  <r_i_glide_gscore>  (55) 
-3.18609

>  <r_i_glide_lipo>  (55) 
-0.227561

>  <r_i_glide_hbond>  (55) 
0

>  <r_i_glide_metal>  (55) 
-0

>  <r_i_glide_rewards>  (55) 
-0.517789

>  <r_i_glide_evdw>  (55) 
-31.8491

>  <r_i_glide_ecoul>  (55) 
-5.60025

>  <r_i_glide_erotb>  (55) 
0.0253195

>  <r_i_glide_esite>  (55) 
-0.0335691

>  <r_i_glide_emodel>  (55) 
-48.2127

>  <r_i_glide_energy>  (55) 
-37.4494

>  <r_i_glide_einternal>  (55) 
3.443

>  <r_i_glide_intrahb_reward>  (55) 
-0.5

>  <i_i_glide_confnum>  (55) 
3

>  <i_i_glide_posenum>  (55) 
21

>  <r_i_glide_eff_state_penalty>  (55) 
0

>  <ligand_id>  (55) 
41

>  <original_smiles>  (55) 
C=C1C(=O)OC2(C(=C)C)CC3(C)C(C)(C)C45C(=O)OC(C6(O)C(=O)C7(C)OC6(C)C(O)[S+]([O-])C4C4(C=CC(C)(C(O)C6(O)OC6(C)CC12O)C73O)CO4)C1(O)C(=O)C(=C)C1(O)C(O)C5O

>  <smiles>  (55) 
[H]OC1([H])S(=O)C2([H])C3(OC3([H])[H])C([H])=C([H])C3(C([H])([H])[H])C([H])(O[H])C4(O[H])OC4(C([H])([H])[H])C([H])([H])C4(O[H])C(=C([H])[H])C(=O)OC4(C(=C([H])[H])C([H])([H])[H])C([H])([H])C4(C([H])([H])[H])C3(O[H])C3(C([H])([H])[H])OC1(C([H])([H])[H])C(O[H])(C3=O)C1([H])OC(=O)C2(C([H])(O[H])C([H])(O[H])C2(O[H])C(=C([H])[H])C(=O)C12O[H])C4(C([H])([H])[H])C([H])([H])[H]

$$$$
41:3:0
     RDKit          3D

119128  0  0  1  0  0  0  0  0999 V2000
    5.8720   -4.3545   -0.6957 C   0  0  0  0  0  0  0  0  0  0  0  0
    4.8539   -3.7397   -0.0924 C   0  0  0  0  0  0  0  0  0  0  0  0
    3.9915   -2.7952   -0.7746 C   0  0  0  0  0  0  0  0  0  0  0  0
    3.8433   -2.6637   -1.9898 O   0  0  0  0  0  0  0  0  0  0  0  0
    3.3987   -2.0894    0.1784 O   0  0  0  0  0  0  0  0  0  0  0  0
    4.0145   -2.1526    1.4681 C   0  0  1  0  0  0  0  0  0  0  0  0
    5.1538   -1.1245    1.2858 C   0  0  0  0  0  0  0  0  0  0  0  0
    4.9093    0.1444    0.9168 C   0  0  0  0  0  0  0  0  0  0  0  0
    6.5966   -1.5307    1.4774 C   0  0  0  0  0  0  0  0  0  0  0  0
    2.9276   -1.4487    2.4871 C   0  0  0  0  0  0  0  0  0  0  0  0
    2.4043   -1.8935    3.9773 C   0  0  2  0  0  0  0  0  0  0  0  0
    2.0500   -3.2776    3.4938 C   0  0  0  0  0  0  0  0  0  0  0  0
    0.8287   -1.3177    4.4551 C   0  0  0  0  0  0  0  0  0  0  0  0
    0.3895   -0.4904    3.2038 C   0  0  0  0  0  0  0  0  0  0  0  0
   -0.2315   -2.4688    4.4131 C   0  0  0  0  0  0  0  0  0  0  0  0
    0.2281   -0.5168    5.8137 C   0  0  2  0  0  0  0  0  0  0  0  0
    0.8455    0.7294    6.2490 C   0  0  0  0  0  0  0  0  0  0  0  0
    0.4332    1.4379    7.1755 O   0  0  0  0  0  0  0  0  0  0  0  0
    1.7261    0.9784    5.4640 O   0  0  0  0  0  0  0  0  0  0  0  0
    2.2762    2.1997    5.5276 C   0  0  1  0  0  0  0  0  0  0  0  0
    3.7071    1.6881    5.9141 C   0  0  2  0  0  0  0  0  0  0  0  0
    4.5065    2.8523    5.8732 O   0  0  0  0  0  0  0  0  0  0  0  0
    4.3040    0.6082    5.0037 C   0  0  0  0  0  0  0  0  0  0  0  0
    4.7439    0.8245    3.8675 O   0  0  0  0  0  0  0  0  0  0  0  0
    4.4100   -0.7380    5.6988 C   0  0  1  0  0  0  0  0  0  0  0  0
    5.9274   -0.8674    6.0601 C   0  0  0  0  0  0  0  0  0  0  0  0
    3.8192   -0.4779    6.9539 O   0  0  0  0  0  0  0  0  0  0  0  0
    3.8309    0.8820    7.3235 C   0  0  1  0  0  0  0  0  0  0  0  0
    5.1703    1.2174    8.0365 C   0  0  0  0  0  0  0  0  0  0  0  0
    2.7300    0.7115    8.4596 C   0  0  1  0  0  0  0  0  0  0  0  0
    2.2907    1.9192    9.0314 O   0  0  0  0  0  0  0  0  0  0  0  0
    1.6096   -0.8479    8.5911 S   0  0  0  0  0  0  0  0  0  0  0  0
    0.7853   -0.6255    9.8562 O   0  0  0  0  0  0  0  0  0  0  0  0
    0.2842   -1.3007    7.2486 C   0  0  2  0  0  0  0  0  0  0  0  0
    0.1258   -2.8887    7.3068 C   0  0  2  0  0  0  0  0  0  0  0  0
    1.2907   -3.7692    6.8994 C   0  0  0  0  0  0  0  0  0  0  0  0
    2.4302   -3.1715    6.5568 C   0  0  0  0  0  0  0  0  0  0  0  0
    3.7503   -3.4026    5.8846 C   0  0  1  0  0  0  0  0  0  0  0  0
    4.7311   -3.3233    7.1090 C   0  0  0  0  0  0  0  0  0  0  0  0
    4.1855   -4.8211    5.1850 C   0  0  1  0  0  0  0  0  0  0  0  0
    4.5031   -5.7905    6.1752 O   0  0  0  0  0  0  0  0  0  0  0  0
    3.3445   -5.7217    4.2244 C   0  0  2  0  0  0  0  0  0  0  0  0
    2.3080   -6.3881    4.9281 O   0  0  0  0  0  0  0  0  0  0  0  0
    4.2151   -6.5078    3.3589 O   0  0  0  0  0  0  0  0  0  0  0  0
    3.1439   -5.8914    2.6663 C   0  0  1  0  0  0  0  0  0  0  0  0
    2.1114   -6.9095    2.1717 C   0  0  0  0  0  0  0  0  0  0  0  0
    3.4860   -4.9790    1.4380 C   0  0  0  0  0  0  0  0  0  0  0  0
    4.4857   -3.7336    1.3763 C   0  0  1  0  0  0  0  0  0  0  0  0
    5.6148   -4.1374    2.1360 O   0  0  0  0  0  0  0  0  0  0  0  0
    3.7574   -2.0550    4.9649 C   0  0  1  0  0  0  0  0  0  0  0  0
    4.8174   -2.3530    4.1210 O   0  0  0  0  0  0  0  0  0  0  0  0
   -1.2184   -3.5815    7.1796 C   0  0  0  0  0  0  0  0  0  0  0  0
   -0.6063   -3.3374    8.4531 O   0  0  0  0  0  0  0  0  0  0  0  0
    1.6603    2.6777    4.1678 C   0  0  2  0  0  0  0  0  0  0  0  0
    2.5014    2.3852    3.0689 O   0  0  0  0  0  0  0  0  0  0  0  0
    1.5106    4.2071    4.1922 C   0  0  0  0  0  0  0  0  0  0  0  0
    2.2420    5.2064    4.3077 O   0  0  0  0  0  0  0  0  0  0  0  0
    0.1052    4.0922    4.0971 C   0  0  0  0  0  0  0  0  0  0  0  0
   -0.7944    5.0765    4.2151 C   0  0  0  0  0  0  0  0  0  0  0  0
    0.0372    2.5735    3.8969 C   0  0  1  0  0  0  0  0  0  0  0  0
   -0.3567    2.3655    2.5471 O   0  0  0  0  0  0  0  0  0  0  0  0
   -1.1065    1.9236    4.8420 C   0  0  1  0  0  0  0  0  0  0  0  0
   -2.3719    2.2502    4.3143 O   0  0  0  0  0  0  0  0  0  0  0  0
   -1.1326    0.3780    5.4524 C   0  0  1  0  0  0  0  0  0  0  0  0
   -2.2401   -0.3162    4.9136 O   0  0  0  0  0  0  0  0  0  0  0  0
    6.5488   -5.0024   -0.1547 H   0  0  0  0  0  0  0  0  0  0  0  0
    6.0558   -4.1834   -1.7480 H   0  0  0  0  0  0  0  0  0  0  0  0
    3.9183    0.5411    0.7521 H   0  0  0  0  0  0  0  0  0  0  0  0
    5.7584    0.7986    0.8039 H   0  0  0  0  0  0  0  0  0  0  0  0
    6.9210   -2.2613    0.7335 H   0  0  0  0  0  0  0  0  0  0  0  0
    6.6024   -1.9131    2.5134 H   0  0  0  0  0  0  0  0  0  0  0  0
    7.2478   -0.6689    1.3861 H   0  0  0  0  0  0  0  0  0  0  0  0
    3.1337   -0.4000    2.6186 H   0  0  0  0  0  0  0  0  0  0  0  0
    2.1086   -1.4111    1.7938 H   0  0  0  0  0  0  0  0  0  0  0  0
    1.6794   -3.9849    4.2158 H   0  0  0  0  0  0  0  0  0  0  0  0
    2.9970   -3.6343    3.2474 H   0  0  0  0  0  0  0  0  0  0  0  0
    1.4294   -3.3306    2.5992 H   0  0  0  0  0  0  0  0  0  0  0  0
   -0.6304   -0.1494    3.1621 H   0  0  0  0  0  0  0  0  0  0  0  0
    0.2715   -1.1041    2.3198 H   0  0  0  0  0  0  0  0  0  0  0  0
    1.0475    0.3439    2.9835 H   0  0  0  0  0  0  0  0  0  0  0  0
   -1.2167   -2.2643    4.7877 H   0  0  0  0  0  0  0  0  0  0  0  0
   -0.0519   -3.4103    4.9035 H   0  0  0  0  0  0  0  0  0  0  0  0
   -0.3965   -2.7081    3.3813 H   0  0  0  0  0  0  0  0  0  0  0  0
    1.9419    2.8414    6.3462 H   0  0  0  0  0  0  0  0  0  0  0  0
    4.4015    3.2327    5.0108 H   0  0  0  0  0  0  0  0  0  0  0  0
    6.3707   -1.7607    5.6791 H   0  0  0  0  0  0  0  0  0  0  0  0
    6.1120   -0.9900    7.1301 H   0  0  0  0  0  0  0  0  0  0  0  0
    6.5167    0.0027    5.7356 H   0  0  0  0  0  0  0  0  0  0  0  0
    5.0442    2.1172    8.6487 H   0  0  0  0  0  0  0  0  0  0  0  0
    5.9855    1.4195    7.3353 H   0  0  0  0  0  0  0  0  0  0  0  0
    5.4838    0.3870    8.6828 H   0  0  0  0  0  0  0  0  0  0  0  0
    3.3375    0.3594    9.2859 H   0  0  0  0  0  0  0  0  0  0  0  0
    1.5323    1.6989    9.5579 H   0  0  0  0  0  0  0  0  0  0  0  0
   -0.5887   -0.9132    7.7492 H   0  0  0  0  0  0  0  0  0  0  0  0
    1.1034   -4.8211    6.7372 H   0  0  0  0  0  0  0  0  0  0  0  0
    2.3880   -2.1392    6.6857 H   0  0  0  0  0  0  0  0  0  0  0  0
    5.7711   -3.3949    6.8064 H   0  0  0  0  0  0  0  0  0  0  0  0
    4.5554   -4.1055    7.8401 H   0  0  0  0  0  0  0  0  0  0  0  0
    4.6090   -2.4514    7.7506 H   0  0  0  0  0  0  0  0  0  0  0  0
    5.1278   -4.6543    4.6931 H   0  0  0  0  0  0  0  0  0  0  0  0
    5.2813   -5.4754    6.6185 H   0  0  0  0  0  0  0  0  0  0  0  0
    2.7276   -6.8652    5.6541 H   0  0  0  0  0  0  0  0  0  0  0  0
    1.1359   -6.4275    2.0431 H   0  0  0  0  0  0  0  0  0  0  0  0
    2.0034   -7.7460    2.8661 H   0  0  0  0  0  0  0  0  0  0  0  0
    2.4286   -7.3322    1.2237 H   0  0  0  0  0  0  0  0  0  0  0  0
    3.8336   -5.7181    0.7220 H   0  0  0  0  0  0  0  0  0  0  0  0
    2.5369   -4.6634    1.0144 H   0  0  0  0  0  0  0  0  0  0  0  0
    5.7978   -5.0540    1.9712 H   0  0  0  0  0  0  0  0  0  0  0  0
    4.9473   -1.6467    3.5003 H   0  0  0  0  0  0  0  0  0  0  0  0
   -2.0716   -2.9361    6.9076 H   0  0  0  0  0  0  0  0  0  0  0  0
   -1.3046   -4.6327    6.9391 H   0  0  0  0  0  0  0  0  0  0  0  0
    2.5233    1.4412    2.9544 H   0  0  0  0  0  0  0  0  0  0  0  0
   -0.4207    6.0841    4.3552 H   0  0  0  0  0  0  0  0  0  0  0  0
   -1.8451    4.8538    4.1404 H   0  0  0  0  0  0  0  0  0  0  0  0
   -0.1313    3.1486    2.0344 H   0  0  0  0  0  0  0  0  0  0  0  0
   -1.1175    2.5711    5.7236 H   0  0  0  0  0  0  0  0  0  0  0  0
   -2.3706    1.9874    3.3923 H   0  0  0  0  0  0  0  0  0  0  0  0
   -1.6287    0.5486    6.4074 H   0  0  0  0  0  0  0  0  0  0  0  0
   -2.6976    0.2715    4.3115 H   0  0  0  0  0  0  0  0  0  0  0  0
  1  2  2  0
  1 66  1  0
  1 67  1  0
  2 48  1  0
  2  3  1  0
  3  4  2  0
  3  5  1  0
  5  6  1  0
  6 48  1  0
  6  7  1  6
  6 10  1  0
  7  8  2  0
  7  9  1  0
  8 68  1  0
  8 69  1  0
  9 70  1  0
  9 71  1  0
  9 72  1  0
 10 11  1  0
 10 73  1  0
 10 74  1  0
 11 50  1  0
 11 12  1  6
 11 13  1  0
 12 75  1  0
 12 76  1  0
 12 77  1  0
 13 14  1  0
 13 15  1  0
 16 13  1  6
 14 78  1  0
 14 79  1  0
 14 80  1  0
 15 81  1  0
 15 82  1  0
 15 83  1  0
 16 34  1  0
 16 64  1  0
 16 17  1  0
 17 18  2  0
 17 19  1  0
 19 20  1  0
 20 21  1  0
 20 54  1  0
 20 84  1  1
 21 28  1  0
 21 22  1  1
 21 23  1  0
 22 85  1  0
 23 24  2  0
 23 25  1  0
 25 50  1  0
 25 26  1  1
 25 27  1  0
 26 86  1  0
 26 87  1  0
 26 88  1  0
 27 28  1  0
 28 29  1  1
 28 30  1  0
 29 89  1  0
 29 90  1  0
 29 91  1  0
 30 31  1  0
 32 30  1  6
 30 92  1  1
 31 93  1  0
 32 33  2  0
 32 34  1  0
 34 35  1  0
 34 94  1  1
 35 53  1  1
 35 36  1  0
 35 52  1  0
 36 37  2  3
 36 95  1  0
 37 38  1  0
 37 96  1  0
 38 39  1  1
 38 40  1  0
 38 50  1  0
 39 97  1  0
 39 98  1  0
 39 99  1  0
 40 41  1  0
 40 42  1  0
 40100  1  6
 41101  1  0
 42 45  1  0
 42 43  1  1
 42 44  1  0
 43102  1  0
 44 45  1  0
 45 46  1  1
 45 47  1  0
 46103  1  0
 46104  1  0
 46105  1  0
 47 48  1  0
 47106  1  0
 47107  1  0
 48 49  1  1
 49108  1  0
 50 51  1  6
 51109  1  0
 52 53  1  0
 52110  1  0
 52111  1  0
 54 60  1  0
 54 55  1  6
 54 56  1  0
 55112  1  0
 56 57  2  0
 56 58  1  0
 58 59  2  0
 58 60  1  0
 59113  1  0
 59114  1  0
 60 61  1  6
 60 62  1  0
 61115  1  0
 62 63  1  0
 62 64  1  0
 62116  1  1
 63117  1  0
 64 65  1  0
 64118  1  1
 65119  1  0
M  END
>  <i_m_ct_stereo_status>  (56) 
1

>  <s_m_source_file>  (56) 
/var/tmp/pbs.5075288.sched01/tmpeqwi9iw0/66la8jmv2o.sdf

>  <i_m_source_file_index>  (56) 
29

>  <i_lp_mmshare_version>  (56) 
48012

>  <i_f3d_flags>  (56) 
0

>  <s_epik_input>  (56) 
W09IXVtDQEhdMVtDQEBdKE8yKShbT0hdKVtDQEBdMihbQ0gzXSlbQ0gyXVtDQEBdKFtPSF0pKEMoPVtDSDJdKUMoPU8pTzMpW0NAXTMoQyg9W0NIMl0pW0NIM10pW0NIMl1bQ0BdKFtDSDNdKShDNChbQ0gzXSlbQ0gzXSlbQ0BdKFtPSF0pKFtDQEBdMShbQ0gzXSkvW0NIXT1bQ0hdXEM1KFtDQEBIXTZbQ0BdNDc4KVtDSDJdTzUpW0NAQF05KFtDSDNdKUMoPU8pW0NAXShbT0hdKShbQ0BAXShPOSkoW0NIM10pW0NAQEhdKFtPSF0pW1MrXTZbTy1dKVtDQEhdKE9DNz1PKVtDQEBdMShbT0hdKVtDQF0oW09IXSkoQyhDMT1PKT1bQ0gyXSlbQ0BASF0oW09IXSlbQ0BIXThbT0hd

>  <s_epik_cmdline>  (56) 
J2VwaWtfcHl0aG9uJywgJy1waHQnLCAnMi4wJywgJy1waCcsICc3LjAnLCAnLXRuJywgJzgnLCAnLW1hJywgJzIwMCcsICctaW1hZScsICc8aW5maWxlLm1hZT4nLCAnLW9tYWUnLCAnPG91dGZpbGUubWFlPic=

>  <r_epik_Ionization_Penalty>  (56) 
0.00240258

>  <r_epik_Ionization_Penalty_Charging>  (56) 
0

>  <r_epik_Ionization_Penalty_Neutral>  (56) 
0.00240258

>  <r_epik_State_Penalty>  (56) 
0.00131194

>  <r_epik_Charging_Adjusted_Penalty>  (56) 
0.00131194

>  <i_epik_Tot_Q>  (56) 
0

>  <i_epik_Tot_abs_Q>  (56) 
2

>  <s_epik_Chemistry_Notes>  (56) 
This compound has an ester and may undergo hydrolysis at high or low pH. This compound contains an acetal/aminal-like group ( X-CH(R)-Y where X, Y are N, S, or O) that may be acid/base labile, releasing an aldehyde.

>  <s_lp_Force_Field>  (56) 
OPLS3e

>  <r_lp_Energy>  (56) 
452.964

>  <b_lp_Chiralities_Consistent>  (56) 
1

>  <s_lp_Variant>  (56) 
41:0-4

>  <s_i_glide_gridfile>  (56) 
pfpi4k_grid

>  <i_i_glide_lignum>  (56) 
29

>  <i_i_glide_rotatable_bonds>  (56) 
11

>  <r_i_docking_score>  (56) 
-3.23604

>  <r_i_glide_ligand_efficiency>  (56) 
-0.0497852

>  <r_i_glide_ligand_efficiency_sa>  (56) 
-0.200172

>  <r_i_glide_ligand_efficiency_ln>  (56) 
-0.625395

>  <r_i_glide_gscore>  (56) 
-3.23604

>  <r_i_glide_lipo>  (56) 
-0.439583

>  <r_i_glide_hbond>  (56) 
-0.13142

>  <r_i_glide_metal>  (56) 
-0

>  <r_i_glide_rewards>  (56) 
-0.0217894

>  <r_i_glide_evdw>  (56) 
-32.7399

>  <r_i_glide_ecoul>  (56) 
-6.53865

>  <r_i_glide_erotb>  (56) 
0.0253195

>  <r_i_glide_esite>  (56) 
-0.050772

>  <r_i_glide_emodel>  (56) 
-40.0762

>  <r_i_glide_energy>  (56) 
-39.2785

>  <r_i_glide_einternal>  (56) 
6.58981

>  <r_i_glide_intrahb_reward>  (56) 
-0

>  <i_i_glide_confnum>  (56) 
4

>  <i_i_glide_posenum>  (56) 
21

>  <r_i_glide_eff_state_penalty>  (56) 
0

>  <ligand_id>  (56) 
41

>  <original_smiles>  (56) 
C=C1C(=O)OC2(C(=C)C)CC3(C)C(C)(C)C45C(=O)OC(C6(O)C(=O)C7(C)OC6(C)C(O)[S+]([O-])C4C4(C=CC(C)(C(O)C6(O)OC6(C)CC12O)C73O)CO4)C1(O)C(=O)C(=C)C1(O)C(O)C5O

>  <smiles>  (56) 
[H]OC1([H])S(=O)C2([H])C3(OC3([H])[H])C([H])=C([H])C3(C([H])([H])[H])C([H])(O[H])C4(O[H])OC4(C([H])([H])[H])C([H])([H])C4(O[H])C(=C([H])[H])C(=O)OC4(C(=C([H])[H])C([H])([H])[H])C([H])([H])C4(C([H])([H])[H])C3(O[H])C3(C([H])([H])[H])OC1(C([H])([H])[H])C(O[H])(C3=O)C1([H])OC(=O)C2(C([H])(O[H])C([H])(O[H])C2(O[H])C(=C([H])[H])C(=O)C12O[H])C4(C([H])([H])[H])C([H])([H])[H]

$$$$
41:3:1
     RDKit          3D

119128  0  0  1  0  0  0  0  0999 V2000
    4.9655   -4.8248   -1.0967 C   0  0  0  0  0  0  0  0  0  0  0  0
    4.1768   -4.1230   -0.2660 C   0  0  0  0  0  0  0  0  0  0  0  0
    3.6284   -2.8294   -0.6262 C   0  0  0  0  0  0  0  0  0  0  0  0
    3.4446   -2.3948   -1.7630 O   0  0  0  0  0  0  0  0  0  0  0  0
    3.2927   -2.2304    0.5218 O   0  0  0  0  0  0  0  0  0  0  0  0
    3.8687   -2.8007    1.7071 C   0  0  1  0  0  0  0  0  0  0  0  0
    5.3039   -2.1647    1.6880 C   0  0  0  0  0  0  0  0  0  0  0  0
    6.4774   -2.8263    1.6719 C   0  0  0  0  0  0  0  0  0  0  0  0
    5.3630   -0.6267    1.5710 C   0  0  0  0  0  0  0  0  0  0  0  0
    3.0152   -2.1126    2.9425 C   0  0  0  0  0  0  0  0  0  0  0  0
    2.4266   -2.7605    4.3217 C   0  0  2  0  0  0  0  0  0  0  0  0
    1.6926   -3.8402    3.5809 C   0  0  0  0  0  0  0  0  0  0  0  0
    1.0722   -1.9224    5.0515 C   0  0  0  0  0  0  0  0  0  0  0  0
    0.8221   -0.7321    4.0682 C   0  0  0  0  0  0  0  0  0  0  0  0
   -0.2939   -2.6695    4.8150 C   0  0  0  0  0  0  0  0  0  0  0  0
    0.7856   -1.3619    6.6230 C   0  0  2  0  0  0  0  0  0  0  0  0
    1.7711   -0.4928    7.2596 C   0  0  0  0  0  0  0  0  0  0  0  0
    1.6131    0.0395    8.3678 O   0  0  0  0  0  0  0  0  0  0  0  0
    2.6730   -0.3137    6.4824 O   0  0  0  0  0  0  0  0  0  0  0  0
    3.5497    0.6657    6.7881 C   0  0  1  0  0  0  0  0  0  0  0  0
    4.7954   -0.2723    6.8985 C   0  0  2  0  0  0  0  0  0  0  0  0
    5.8792    0.6259    7.0731 O   0  0  0  0  0  0  0  0  0  0  0  0
    5.0584   -1.1781    5.6889 C   0  0  0  0  0  0  0  0  0  0  0  0
    5.5537   -0.7464    4.6484 O   0  0  0  0  0  0  0  0  0  0  0  0
    4.8020   -2.6639    5.9832 C   0  0  1  0  0  0  0  0  0  0  0  0
    6.2408   -3.2947    6.0937 C   0  0  0  0  0  0  0  0  0  0  0  0
    4.3764   -2.6086    7.3328 O   0  0  0  0  0  0  0  0  0  0  0  0
    4.7223   -1.4269    8.0362 C   0  0  1  0  0  0  0  0  0  0  0  0
    6.1268   -1.6438    8.6734 C   0  0  0  0  0  0  0  0  0  0  0  0
    3.6563   -1.5610    9.2183 C   0  0  1  0  0  0  0  0  0  0  0  0
    3.6088   -0.4676   10.1101 O   0  0  0  0  0  0  0  0  0  0  0  0
    2.1329   -2.7328    9.1039 S   0  0  0  0  0  0  0  0  0  0  0  0
    1.4914   -2.6388   10.4861 O   0  0  0  0  0  0  0  0  0  0  0  0
    0.6651   -2.4623    7.8480 C   0  0  2  0  0  0  0  0  0  0  0  0
    0.0944   -3.9124    7.5485 C   0  0  2  0  0  0  0  0  0  0  0  0
    0.9414   -4.9245    6.8201 C   0  0  0  0  0  0  0  0  0  0  0  0
    2.1975   -4.5998    6.5253 C   0  0  0  0  0  0  0  0  0  0  0  0
    3.3786   -5.0095    5.6891 C   0  0  1  0  0  0  0  0  0  0  0  0
    4.3800   -5.5041    6.7848 C   0  0  0  0  0  0  0  0  0  0  0  0
    3.3793   -6.2827    4.6560 C   0  0  1  0  0  0  0  0  0  0  0  0
    3.5265   -7.5397    5.3059 O   0  0  0  0  0  0  0  0  0  0  0  0
    2.2885   -6.6522    3.6006 C   0  0  2  0  0  0  0  0  0  0  0  0
    1.0924   -7.1334    4.2159 O   0  0  0  0  0  0  0  0  0  0  0  0
    2.8286   -7.4150    2.4967 O   0  0  0  0  0  0  0  0  0  0  0  0
    1.9878   -6.3609    2.0633 C   0  0  1  0  0  0  0  0  0  0  0  0
    0.6972   -6.9137    1.4500 C   0  0  0  0  0  0  0  0  0  0  0  0
    2.5450   -5.2966    1.0358 C   0  0  0  0  0  0  0  0  0  0  0  0
    3.8444   -4.3868    1.1903 C   0  0  1  0  0  0  0  0  0  0  0  0
    4.7888   -5.2990    1.7147 O   0  0  0  0  0  0  0  0  0  0  0  0
    3.7244   -3.5193    5.0913 C   0  0  1  0  0  0  0  0  0  0  0  0
    4.6285   -3.8804    4.0973 O   0  0  0  0  0  0  0  0  0  0  0  0
   -1.3953   -4.1493    7.4915 C   0  0  0  0  0  0  0  0  0  0  0  0
   -0.6325   -4.4830    8.6491 O   0  0  0  0  0  0  0  0  0  0  0  0
    3.0559    1.6402    5.6694 C   0  0  2  0  0  0  0  0  0  0  0  0
    3.7107    1.4090    4.4480 O   0  0  0  0  0  0  0  0  0  0  0  0
    3.3548    3.0950    6.0759 C   0  0  0  0  0  0  0  0  0  0  0  0
    4.3381    3.8262    6.2645 O   0  0  0  0  0  0  0  0  0  0  0  0
    1.9587    3.3933    6.0916 C   0  0  0  0  0  0  0  0  0  0  0  0
    1.3633    4.5206    6.5160 C   0  0  0  0  0  0  0  0  0  0  0  0
    1.4710    2.0304    5.5509 C   0  0  1  0  0  0  0  0  0  0  0  0
    1.0268    2.2865    4.2354 O   0  0  0  0  0  0  0  0  0  0  0  0
    0.2079    1.5097    6.4190 C   0  0  1  0  0  0  0  0  0  0  0  0
   -0.9263    2.2966    6.1113 O   0  0  0  0  0  0  0  0  0  0  0  0
   -0.2617   -0.0686    6.6424 C   0  0  1  0  0  0  0  0  0  0  0  0
   -1.5641   -0.2555    6.0945 O   0  0  0  0  0  0  0  0  0  0  0  0
    5.3976   -5.7667   -0.7963 H   0  0  0  0  0  0  0  0  0  0  0  0
    5.1556   -4.4733   -2.1016 H   0  0  0  0  0  0  0  0  0  0  0  0
    6.6231   -3.8872    1.7290 H   0  0  0  0  0  0  0  0  0  0  0  0
    7.3709   -2.2380    1.5853 H   0  0  0  0  0  0  0  0  0  0  0  0
    4.9382   -0.0340    2.3893 H   0  0  0  0  0  0  0  0  0  0  0  0
    4.8918   -0.2642    0.6532 H   0  0  0  0  0  0  0  0  0  0  0  0
    6.4080   -0.3273    1.5260 H   0  0  0  0  0  0  0  0  0  0  0  0
    3.5328   -1.2415    3.3070 H   0  0  0  0  0  0  0  0  0  0  0  0
    2.2138   -1.6838    2.3581 H   0  0  0  0  0  0  0  0  0  0  0  0
    1.1620   -4.5726    4.1643 H   0  0  0  0  0  0  0  0  0  0  0  0
    2.4949   -4.3621    3.1640 H   0  0  0  0  0  0  0  0  0  0  0  0
    1.0565   -3.5048    2.7648 H   0  0  0  0  0  0  0  0  0  0  0  0
   -0.0243   -0.0893    4.2600 H   0  0  0  0  0  0  0  0  0  0  0  0
    0.5215   -1.0551    3.0731 H   0  0  0  0  0  0  0  0  0  0  0  0
    1.7051   -0.1182    3.9561 H   0  0  0  0  0  0  0  0  0  0  0  0
   -1.1544   -2.3093    5.3492 H   0  0  0  0  0  0  0  0  0  0  0  0
   -0.3477   -3.7113    5.0781 H   0  0  0  0  0  0  0  0  0  0  0  0
   -0.5939   -2.6491    3.7737 H   0  0  0  0  0  0  0  0  0  0  0  0
    3.4386    1.1522    7.7655 H   0  0  0  0  0  0  0  0  0  0  0  0
    5.8884    1.1747    6.3026 H   0  0  0  0  0  0  0  0  0  0  0  0
    6.5613   -3.9640    5.3010 H   0  0  0  0  0  0  0  0  0  0  0  0
    6.4028   -3.8433    7.0157 H   0  0  0  0  0  0  0  0  0  0  0  0
    7.0123   -2.5313    6.0929 H   0  0  0  0  0  0  0  0  0  0  0  0
    6.2823   -0.9260    9.4861 H   0  0  0  0  0  0  0  0  0  0  0  0
    6.9475   -1.4969    7.9640 H   0  0  0  0  0  0  0  0  0  0  0  0
    6.2220   -2.6594    9.0832 H   0  0  0  0  0  0  0  0  0  0  0  0
    4.1683   -2.2577    9.8809 H   0  0  0  0  0  0  0  0  0  0  0  0
    2.8464   -0.6118   10.6512 H   0  0  0  0  0  0  0  0  0  0  0  0
   -0.0785   -2.0072    8.5054 H   0  0  0  0  0  0  0  0  0  0  0  0
    0.4543   -5.8079    6.4607 H   0  0  0  0  0  0  0  0  0  0  0  0
    2.4625   -3.6589    6.8961 H   0  0  0  0  0  0  0  0  0  0  0  0
    5.3481   -5.7670    6.3585 H   0  0  0  0  0  0  0  0  0  0  0  0
    4.0187   -6.3842    7.3156 H   0  0  0  0  0  0  0  0  0  0  0  0
    4.5357   -4.8317    7.6169 H   0  0  0  0  0  0  0  0  0  0  0  0
    4.3147   -6.2375    4.1087 H   0  0  0  0  0  0  0  0  0  0  0  0
    2.7469   -7.7249    5.8046 H   0  0  0  0  0  0  0  0  0  0  0  0
    1.2881   -7.9411    4.6785 H   0  0  0  0  0  0  0  0  0  0  0  0
   -0.1150   -6.1884    1.5447 H   0  0  0  0  0  0  0  0  0  0  0  0
    0.3894   -7.8448    1.9392 H   0  0  0  0  0  0  0  0  0  0  0  0
    0.8490   -7.1550    0.3992 H   0  0  0  0  0  0  0  0  0  0  0  0
    2.6568   -5.9003    0.1290 H   0  0  0  0  0  0  0  0  0  0  0  0
    1.7306   -4.6329    0.7836 H   0  0  0  0  0  0  0  0  0  0  0  0
    4.7742   -6.0873    1.1898 H   0  0  0  0  0  0  0  0  0  0  0  0
    4.9733   -3.1064    3.6719 H   0  0  0  0  0  0  0  0  0  0  0  0
   -2.0181   -3.2730    7.5654 H   0  0  0  0  0  0  0  0  0  0  0  0
   -1.8159   -4.9860    6.9540 H   0  0  0  0  0  0  0  0  0  0  0  0
    3.5158    2.1386    3.8750 H   0  0  0  0  0  0  0  0  0  0  0  0
    1.9565    5.3751    6.8528 H   0  0  0  0  0  0  0  0  0  0  0  0
    0.2845    4.6138    6.4747 H   0  0  0  0  0  0  0  0  0  0  0  0
    0.9733    1.4562    3.7914 H   0  0  0  0  0  0  0  0  0  0  0  0
    0.3978    1.8820    7.4292 H   0  0  0  0  0  0  0  0  0  0  0  0
   -1.0804    2.2312    5.1814 H   0  0  0  0  0  0  0  0  0  0  0  0
   -0.6228   -0.0281    7.6719 H   0  0  0  0  0  0  0  0  0  0  0  0
   -1.5121   -0.1764    5.1531 H   0  0  0  0  0  0  0  0  0  0  0  0
  1  2  2  0
  1 66  1  0
  1 67  1  0
  2 48  1  0
  2  3  1  0
  3  4  2  0
  3  5  1  0
  5  6  1  0
  6 48  1  0
  6  7  1  1
  6 10  1  0
  7  8  2  0
  7  9  1  0
  8 68  1  0
  8 69  1  0
  9 70  1  0
  9 71  1  0
  9 72  1  0
 10 11  1  0
 10 73  1  0
 10 74  1  0
 11 50  1  0
 11 12  1  6
 11 13  1  0
 12 75  1  0
 12 76  1  0
 12 77  1  0
 13 14  1  0
 13 15  1  0
 16 13  1  6
 14 78  1  0
 14 79  1  0
 14 80  1  0
 15 81  1  0
 15 82  1  0
 15 83  1  0
 16 34  1  0
 16 64  1  0
 16 17  1  0
 17 18  2  0
 17 19  1  0
 19 20  1  0
 20 21  1  0
 20 54  1  0
 20 84  1  1
 21 28  1  0
 21 22  1  1
 21 23  1  0
 22 85  1  0
 23 24  2  0
 23 25  1  0
 25 50  1  0
 25 26  1  1
 25 27  1  0
 26 86  1  0
 26 87  1  0
 26 88  1  0
 27 28  1  0
 28 29  1  1
 28 30  1  0
 29 89  1  0
 29 90  1  0
 29 91  1  0
 30 31  1  0
 32 30  1  1
 30 92  1  1
 31 93  1  0
 32 33  2  0
 32 34  1  0
 34 35  1  0
 34 94  1  1
 35 53  1  1
 35 36  1  0
 35 52  1  0
 36 37  2  3
 36 95  1  0
 37 38  1  0
 37 96  1  0
 38 39  1  1
 38 40  1  0
 38 50  1  0
 39 97  1  0
 39 98  1  0
 39 99  1  0
 40 41  1  0
 40 42  1  0
 40100  1  6
 41101  1  0
 42 45  1  0
 42 43  1  1
 42 44  1  0
 43102  1  0
 44 45  1  0
 45 46  1  1
 45 47  1  0
 46103  1  0
 46104  1  0
 46105  1  0
 47 48  1  0
 47106  1  0
 47107  1  0
 48 49  1  1
 49108  1  0
 50 51  1  6
 51109  1  0
 52 53  1  0
 52110  1  0
 52111  1  0
 54 60  1  0
 54 55  1  6
 54 56  1  0
 55112  1  0
 56 57  2  0
 56 58  1  0
 58 59  2  0
 58 60  1  0
 59113  1  0
 59114  1  0
 60 61  1  6
 60 62  1  0
 61115  1  0
 62 63  1  0
 62 64  1  0
 62116  1  1
 63117  1  0
 64 65  1  0
 64118  1  1
 65119  1  0
M  END
>  <i_m_ct_stereo_status>  (57) 
1

>  <s_m_source_file>  (57) 
/var/tmp/pbs.5075288.sched01/tmpeqwi9iw0/66la8jmv2o.sdf

>  <i_m_source_file_index>  (57) 
29

>  <i_lp_mmshare_version>  (57) 
48012

>  <i_f3d_flags>  (57) 
0

>  <s_epik_input>  (57) 
W09IXVtDQEhdMVtDQEBdKE8yKShbT0hdKVtDQEBdMihbQ0gzXSlbQ0gyXVtDQEBdKFtPSF0pKEMoPVtDSDJdKUMoPU8pTzMpW0NAXTMoQyg9W0NIMl0pW0NIM10pW0NIMl1bQ0BdKFtDSDNdKShDNChbQ0gzXSlbQ0gzXSlbQ0BdKFtPSF0pKFtDQEBdMShbQ0gzXSkvW0NIXT1bQ0hdXEM1KFtDQEBIXTZbQ0BdNDc4KVtDSDJdTzUpW0NAQF05KFtDSDNdKUMoPU8pW0NAXShbT0hdKShbQ0BAXShPOSkoW0NIM10pW0NAQEhdKFtPSF0pW1MrXTZbTy1dKVtDQEhdKE9DNz1PKVtDQEBdMShbT0hdKVtDQF0oW09IXSkoQyhDMT1PKT1bQ0gyXSlbQ0BASF0oW09IXSlbQ0BIXThbT0hd

>  <s_epik_cmdline>  (57) 
J2VwaWtfcHl0aG9uJywgJy1waHQnLCAnMi4wJywgJy1waCcsICc3LjAnLCAnLXRuJywgJzgnLCAnLW1hJywgJzIwMCcsICctaW1hZScsICc8aW5maWxlLm1hZT4nLCAnLW9tYWUnLCAnPG91dGZpbGUubWFlPic=

>  <r_epik_Ionization_Penalty>  (57) 
0.00240258

>  <r_epik_Ionization_Penalty_Charging>  (57) 
0

>  <r_epik_Ionization_Penalty_Neutral>  (57) 
0.00240258

>  <r_epik_State_Penalty>  (57) 
0.00131194

>  <r_epik_Charging_Adjusted_Penalty>  (57) 
0.00131194

>  <i_epik_Tot_Q>  (57) 
0

>  <i_epik_Tot_abs_Q>  (57) 
2

>  <s_epik_Chemistry_Notes>  (57) 
This compound has an ester and may undergo hydrolysis at high or low pH. This compound contains an acetal/aminal-like group ( X-CH(R)-Y where X, Y are N, S, or O) that may be acid/base labile, releasing an aldehyde.

>  <s_lp_Force_Field>  (57) 
OPLS3e

>  <r_lp_Energy>  (57) 
452.964

>  <b_lp_Chiralities_Consistent>  (57) 
1

>  <s_lp_Variant>  (57) 
41:0-4

>  <s_i_glide_gridfile>  (57) 
pfpi4k_grid

>  <i_i_glide_lignum>  (57) 
29

>  <i_i_glide_rotatable_bonds>  (57) 
11

>  <r_i_docking_score>  (57) 
-2.66248

>  <r_i_glide_ligand_efficiency>  (57) 
-0.0409613

>  <r_i_glide_ligand_efficiency_sa>  (57) 
-0.164694

>  <r_i_glide_ligand_efficiency_ln>  (57) 
-0.51455

>  <r_i_glide_gscore>  (57) 
-2.66248

>  <r_i_glide_lipo>  (57) 
-0.28975

>  <r_i_glide_hbond>  (57) 
0

>  <r_i_glide_metal>  (57) 
-0

>  <r_i_glide_rewards>  (57) 
-0.0287055

>  <r_i_glide_evdw>  (57) 
-35.6459

>  <r_i_glide_ecoul>  (57) 
-3.77898

>  <r_i_glide_erotb>  (57) 
0.0253195

>  <r_i_glide_esite>  (57) 
-0.0202066

>  <r_i_glide_emodel>  (57) 
-38.8567

>  <r_i_glide_energy>  (57) 
-39.4249

>  <r_i_glide_einternal>  (57) 
8.2504

>  <r_i_glide_intrahb_reward>  (57) 
-0

>  <i_i_glide_confnum>  (57) 
3

>  <i_i_glide_posenum>  (57) 
7

>  <r_i_glide_eff_state_penalty>  (57) 
0

>  <ligand_id>  (57) 
41

>  <original_smiles>  (57) 
C=C1C(=O)OC2(C(=C)C)CC3(C)C(C)(C)C45C(=O)OC(C6(O)C(=O)C7(C)OC6(C)C(O)[S+]([O-])C4C4(C=CC(C)(C(O)C6(O)OC6(C)CC12O)C73O)CO4)C1(O)C(=O)C(=C)C1(O)C(O)C5O

>  <smiles>  (57) 
[H]OC1([H])S(=O)C2([H])C3(OC3([H])[H])C([H])=C([H])C3(C([H])([H])[H])C([H])(O[H])C4(O[H])OC4(C([H])([H])[H])C([H])([H])C4(O[H])C(=C([H])[H])C(=O)OC4(C(=C([H])[H])C([H])([H])[H])C([H])([H])C4(C([H])([H])[H])C3(O[H])C3(C([H])([H])[H])OC1(C([H])([H])[H])C(O[H])(C3=O)C1([H])OC(=O)C2(C([H])(O[H])C([H])(O[H])C2(O[H])C(=C([H])[H])C(=O)C12O[H])C4(C([H])([H])[H])C([H])([H])[H]

$$$$
41:3:2
     RDKit          3D

119128  0  0  1  0  0  0  0  0999 V2000
    5.0134   -4.4168   -1.1752 C   0  0  0  0  0  0  0  0  0  0  0  0
    4.1925   -3.7728   -0.3315 C   0  0  0  0  0  0  0  0  0  0  0  0
    3.5973   -2.4910   -0.6621 C   0  0  0  0  0  0  0  0  0  0  0  0
    3.4413   -2.0208   -1.7861 O   0  0  0  0  0  0  0  0  0  0  0  0
    3.2178   -1.9350    0.5034 O   0  0  0  0  0  0  0  0  0  0  0  0
    3.8220   -2.4923    1.6803 C   0  0  1  0  0  0  0  0  0  0  0  0
    5.1851   -1.7191    1.6540 C   0  0  0  0  0  0  0  0  0  0  0  0
    5.2545   -0.3810    1.8077 C   0  0  0  0  0  0  0  0  0  0  0  0
    6.4984   -2.4412    1.3666 C   0  0  0  0  0  0  0  0  0  0  0  0
    2.9075   -1.8722    2.9282 C   0  0  0  0  0  0  0  0  0  0  0  0
    2.3434   -2.5668    4.2916 C   0  0  2  0  0  0  0  0  0  0  0  0
    1.6755   -3.6621    3.5189 C   0  0  0  0  0  0  0  0  0  0  0  0
    0.9420   -1.8050    5.0156 C   0  0  0  0  0  0  0  0  0  0  0  0
    0.6393   -0.6144    4.0450 C   0  0  0  0  0  0  0  0  0  0  0  0
   -0.3835   -2.6280    4.7609 C   0  0  0  0  0  0  0  0  0  0  0  0
    0.6216   -1.2743    6.5853 C   0  0  2  0  0  0  0  0  0  0  0  0
    1.5625   -0.3715    7.2391 C   0  0  0  0  0  0  0  0  0  0  0  0
    1.3571    0.1420    8.3456 O   0  0  0  0  0  0  0  0  0  0  0  0
    2.4658   -0.1322    6.4701 O   0  0  0  0  0  0  0  0  0  0  0  0
    3.2909    0.8800    6.8073 C   0  0  1  0  0  0  0  0  0  0  0  0
    4.5763   -0.0081    6.9295 C   0  0  2  0  0  0  0  0  0  0  0  0
    5.6445    0.9059    7.1506 O   0  0  0  0  0  0  0  0  0  0  0  0
    4.8981   -0.8771    5.7114 C   0  0  0  0  0  0  0  0  0  0  0  0
    5.3953   -0.4205    4.6763 O   0  0  0  0  0  0  0  0  0  0  0  0
    4.7063   -2.3739    5.9743 C   0  0  1  0  0  0  0  0  0  0  0  0
    6.1855   -2.9295    6.1033 C   0  0  0  0  0  0  0  0  0  0  0  0
    4.2599   -2.3629    7.3085 O   0  0  0  0  0  0  0  0  0  0  0  0
    4.5402   -1.1835    8.0401 C   0  0  1  0  0  0  0  0  0  0  0  0
    5.9477   -1.3456    8.6976 C   0  0  0  0  0  0  0  0  0  0  0  0
    3.4825   -1.3699    9.2158 C   0  0  1  0  0  0  0  0  0  0  0  0
    3.4030   -0.2380   10.0667 O   0  0  0  0  0  0  0  0  0  0  0  0
    2.0014   -2.5973    9.0676 S   0  0  0  0  0  0  0  0  0  0  0  0
    1.3272   -2.6270   10.4478 O   0  0  0  0  0  0  0  0  0  0  0  0
    0.5417   -2.3978    7.7950 C   0  0  2  0  0  0  0  0  0  0  0  0
    0.0376   -3.8570    7.4804 C   0  0  2  0  0  0  0  0  0  0  0  0
    0.9441   -4.8325    6.7433 C   0  0  0  0  0  0  0  0  0  0  0  0
    2.1838   -4.4449    6.4654 C   0  0  0  0  0  0  0  0  0  0  0  0
    3.3920   -4.7744    5.6340 C   0  0  1  0  0  0  0  0  0  0  0  0
    4.4123   -5.2437    6.7240 C   0  0  0  0  0  0  0  0  0  0  0  0
    3.4658   -6.0240    4.5634 C   0  0  1  0  0  0  0  0  0  0  0  0
    3.5688   -7.2782    5.2171 O   0  0  0  0  0  0  0  0  0  0  0  0
    2.3977   -6.4330    3.4932 C   0  0  2  0  0  0  0  0  0  0  0  0
    1.2454   -7.0140    4.0632 O   0  0  0  0  0  0  0  0  0  0  0  0
    3.0146   -7.1563    2.4076 O   0  0  0  0  0  0  0  0  0  0  0  0
    2.1223   -6.1446    1.9673 C   0  0  1  0  0  0  0  0  0  0  0  0
    0.8607   -6.7351    1.3292 C   0  0  0  0  0  0  0  0  0  0  0  0
    2.6466   -5.0401    0.9700 C   0  0  0  0  0  0  0  0  0  0  0  0
    3.8872   -4.0642    1.1276 C   0  0  1  0  0  0  0  0  0  0  0  0
    4.9333   -4.8782    1.6433 O   0  0  0  0  0  0  0  0  0  0  0  0
    3.6792   -3.2695    5.0577 C   0  0  1  0  0  0  0  0  0  0  0  0
    4.6118   -3.5682    4.0660 O   0  0  0  0  0  0  0  0  0  0  0  0
   -1.4450   -4.1631    7.4029 C   0  0  0  0  0  0  0  0  0  0  0  0
   -0.6753   -4.4843    8.5614 O   0  0  0  0  0  0  0  0  0  0  0  0
    2.7616    1.8510    5.6999 C   0  0  2  0  0  0  0  0  0  0  0  0
    3.4340    1.6967    4.4726 O   0  0  0  0  0  0  0  0  0  0  0  0
    2.9708    3.3109    6.1401 C   0  0  0  0  0  0  0  0  0  0  0  0
    3.9143    4.0838    6.3755 O   0  0  0  0  0  0  0  0  0  0  0  0
    1.5713    3.5571    6.1261 C   0  0  0  0  0  0  0  0  0  0  0  0
    0.9122    4.6552    6.5767 C   0  0  0  0  0  0  0  0  0  0  0  0
    1.1545    2.1833    5.5832 C   0  0  1  0  0  0  0  0  0  0  0  0
    0.6790    2.4147    4.2692 O   0  0  0  0  0  0  0  0  0  0  0  0
   -0.0872    1.5795    6.4316 C   0  0  1  0  0  0  0  0  0  0  0  0
   -1.2579    2.3238    6.1294 O   0  0  0  0  0  0  0  0  0  0  0  0
   -0.4858   -0.0216    6.6141 C   0  0  1  0  0  0  0  0  0  0  0  0
   -1.7695   -0.2573    6.0657 O   0  0  0  0  0  0  0  0  0  0  0  0
    5.5229   -5.3255   -0.8789 H   0  0  0  0  0  0  0  0  0  0  0  0
    5.1965   -4.0427   -2.1735 H   0  0  0  0  0  0  0  0  0  0  0  0
    4.3958    0.2526    1.9370 H   0  0  0  0  0  0  0  0  0  0  0  0
    6.2000    0.1133    1.8069 H   0  0  0  0  0  0  0  0  0  0  0  0
    6.5503   -2.8535    0.3622 H   0  0  0  0  0  0  0  0  0  0  0  0
    6.6924   -3.2363    2.0845 H   0  0  0  0  0  0  0  0  0  0  0  0
    7.3292   -1.7384    1.4065 H   0  0  0  0  0  0  0  0  0  0  0  0
    3.3672   -0.9983    3.3587 H   0  0  0  0  0  0  0  0  0  0  0  0
    2.1105   -1.4462    2.3388 H   0  0  0  0  0  0  0  0  0  0  0  0
    1.1712   -4.4276    4.0853 H   0  0  0  0  0  0  0  0  0  0  0  0
    2.5125   -4.1307    3.1056 H   0  0  0  0  0  0  0  0  0  0  0  0
    1.0375   -3.3401    2.6962 H   0  0  0  0  0  0  0  0  0  0  0  0
   -0.2288   -0.0043    4.2397 H   0  0  0  0  0  0  0  0  0  0  0  0
    0.3620   -0.9364    3.0443 H   0  0  0  0  0  0  0  0  0  0  0  0
    1.4837    0.0537    3.9581 H   0  0  0  0  0  0  0  0  0  0  0  0
   -1.2708   -2.3026    5.2744 H   0  0  0  0  0  0  0  0  0  0  0  0
   -0.3913   -3.6750    5.0195 H   0  0  0  0  0  0  0  0  0  0  0  0
   -0.6688   -2.6192    3.7153 H   0  0  0  0  0  0  0  0  0  0  0  0
    3.1451    1.3401    7.7897 H   0  0  0  0  0  0  0  0  0  0  0  0
    5.4208    1.4756    7.8754 H   0  0  0  0  0  0  0  0  0  0  0  0
    6.5442   -3.5710    5.2984 H   0  0  0  0  0  0  0  0  0  0  0  0
    6.3564   -3.4858    7.0196 H   0  0  0  0  0  0  0  0  0  0  0  0
    6.9219   -2.1304    6.1235 H   0  0  0  0  0  0  0  0  0  0  0  0
    6.0703   -0.6395    9.5227 H   0  0  0  0  0  0  0  0  0  0  0  0
    6.7759   -1.1513    8.0132 H   0  0  0  0  0  0  0  0  0  0  0  0
    6.0932   -2.3552    9.0940 H   0  0  0  0  0  0  0  0  0  0  0  0
    4.0017   -2.0471    9.8941 H   0  0  0  0  0  0  0  0  0  0  0  0
    4.0850   -0.3217   10.7253 H   0  0  0  0  0  0  0  0  0  0  0  0
   -0.2200   -1.9869    8.4598 H   0  0  0  0  0  0  0  0  0  0  0  0
    0.5024   -5.7287    6.3584 H   0  0  0  0  0  0  0  0  0  0  0  0
    2.4052   -3.4988    6.8619 H   0  0  0  0  0  0  0  0  0  0  0  0
    5.3955   -5.4488    6.3045 H   0  0  0  0  0  0  0  0  0  0  0  0
    4.0883   -6.1490    7.2352 H   0  0  0  0  0  0  0  0  0  0  0  0
    4.5235   -4.5739    7.5662 H   0  0  0  0  0  0  0  0  0  0  0  0
    4.4116   -5.9475    4.0342 H   0  0  0  0  0  0  0  0  0  0  0  0
    3.8625   -7.9168    4.5712 H   0  0  0  0  0  0  0  0  0  0  0  0
    1.5264   -7.7136    4.6529 H   0  0  0  0  0  0  0  0  0  0  0  0
    0.0172   -6.0547    1.4367 H   0  0  0  0  0  0  0  0  0  0  0  0
    0.5856   -7.6832    1.7934 H   0  0  0  0  0  0  0  0  0  0  0  0
    1.0207   -6.9501    0.2732 H   0  0  0  0  0  0  0  0  0  0  0  0
    2.7862   -5.6126    0.0496 H   0  0  0  0  0  0  0  0  0  0  0  0
    1.8138   -4.3916    0.7354 H   0  0  0  0  0  0  0  0  0  0  0  0
    4.9015   -5.7229    1.2127 H   0  0  0  0  0  0  0  0  0  0  0  0
    4.8939   -2.7677    3.6410 H   0  0  0  0  0  0  0  0  0  0  0  0
   -2.1238   -3.3342    7.5015 H   0  0  0  0  0  0  0  0  0  0  0  0
   -1.8168   -5.0059    6.8350 H   0  0  0  0  0  0  0  0  0  0  0  0
    3.2685    0.8171    4.1646 H   0  0  0  0  0  0  0  0  0  0  0  0
    1.4401    5.5273    6.9612 H   0  0  0  0  0  0  0  0  0  0  0  0
   -0.1614    4.6803    6.5477 H   0  0  0  0  0  0  0  0  0  0  0  0
    1.1740    3.1429    3.9149 H   0  0  0  0  0  0  0  0  0  0  0  0
    0.0810    1.9426    7.4492 H   0  0  0  0  0  0  0  0  0  0  0  0
   -1.3995    2.2499    5.1927 H   0  0  0  0  0  0  0  0  0  0  0  0
   -0.8673   -0.0134    7.6334 H   0  0  0  0  0  0  0  0  0  0  0  0
   -1.7181   -0.1150    5.1264 H   0  0  0  0  0  0  0  0  0  0  0  0
  1  2  2  0
  1 66  1  0
  1 67  1  0
  2 48  1  0
  2  3  1  0
  3  4  2  0
  3  5  1  0
  5  6  1  0
  6 48  1  0
  6  7  1  1
  6 10  1  0
  7  8  2  0
  7  9  1  0
  8 68  1  0
  8 69  1  0
  9 70  1  0
  9 71  1  0
  9 72  1  0
 10 11  1  0
 10 73  1  0
 10 74  1  0
 11 50  1  0
 11 12  1  6
 11 13  1  0
 12 75  1  0
 12 76  1  0
 12 77  1  0
 13 14  1  0
 13 15  1  0
 16 13  1  6
 14 78  1  0
 14 79  1  0
 14 80  1  0
 15 81  1  0
 15 82  1  0
 15 83  1  0
 16 34  1  0
 16 64  1  0
 16 17  1  0
 17 18  2  0
 17 19  1  0
 19 20  1  0
 20 21  1  0
 20 54  1  0
 20 84  1  1
 21 28  1  0
 21 22  1  1
 21 23  1  0
 22 85  1  0
 23 24  2  0
 23 25  1  0
 25 50  1  0
 25 26  1  1
 25 27  1  0
 26 86  1  0
 26 87  1  0
 26 88  1  0
 27 28  1  0
 28 29  1  1
 28 30  1  0
 29 89  1  0
 29 90  1  0
 29 91  1  0
 30 31  1  0
 32 30  1  1
 30 92  1  1
 31 93  1  0
 32 33  2  0
 32 34  1  0
 34 35  1  0
 34 94  1  1
 35 53  1  1
 35 36  1  0
 35 52  1  0
 36 37  2  3
 36 95  1  0
 37 38  1  0
 37 96  1  0
 38 39  1  1
 38 40  1  0
 38 50  1  0
 39 97  1  0
 39 98  1  0
 39 99  1  0
 40 41  1  0
 40 42  1  0
 40100  1  6
 41101  1  0
 42 45  1  0
 42 43  1  1
 42 44  1  0
 43102  1  0
 44 45  1  0
 45 46  1  1
 45 47  1  0
 46103  1  0
 46104  1  0
 46105  1  0
 47 48  1  0
 47106  1  0
 47107  1  0
 48 49  1  1
 49108  1  0
 50 51  1  6
 51109  1  0
 52 53  1  0
 52110  1  0
 52111  1  0
 54 60  1  0
 54 55  1  6
 54 56  1  0
 55112  1  0
 56 57  2  0
 56 58  1  0
 58 59  2  0
 58 60  1  0
 59113  1  0
 59114  1  0
 60 61  1  6
 60 62  1  0
 61115  1  0
 62 63  1  0
 62 64  1  0
 62116  1  1
 63117  1  0
 64 65  1  0
 64118  1  1
 65119  1  0
M  END
>  <i_m_ct_stereo_status>  (58) 
1

>  <s_m_source_file>  (58) 
/var/tmp/pbs.5075288.sched01/tmpeqwi9iw0/66la8jmv2o.sdf

>  <i_m_source_file_index>  (58) 
29

>  <i_lp_mmshare_version>  (58) 
48012

>  <i_f3d_flags>  (58) 
0

>  <s_epik_input>  (58) 
W09IXVtDQEhdMVtDQEBdKE8yKShbT0hdKVtDQEBdMihbQ0gzXSlbQ0gyXVtDQEBdKFtPSF0pKEMoPVtDSDJdKUMoPU8pTzMpW0NAXTMoQyg9W0NIMl0pW0NIM10pW0NIMl1bQ0BdKFtDSDNdKShDNChbQ0gzXSlbQ0gzXSlbQ0BdKFtPSF0pKFtDQEBdMShbQ0gzXSkvW0NIXT1bQ0hdXEM1KFtDQEBIXTZbQ0BdNDc4KVtDSDJdTzUpW0NAQF05KFtDSDNdKUMoPU8pW0NAXShbT0hdKShbQ0BAXShPOSkoW0NIM10pW0NAQEhdKFtPSF0pW1MrXTZbTy1dKVtDQEhdKE9DNz1PKVtDQEBdMShbT0hdKVtDQF0oW09IXSkoQyhDMT1PKT1bQ0gyXSlbQ0BASF0oW09IXSlbQ0BIXThbT0hd

>  <s_epik_cmdline>  (58) 
J2VwaWtfcHl0aG9uJywgJy1waHQnLCAnMi4wJywgJy1waCcsICc3LjAnLCAnLXRuJywgJzgnLCAnLW1hJywgJzIwMCcsICctaW1hZScsICc8aW5maWxlLm1hZT4nLCAnLW9tYWUnLCAnPG91dGZpbGUubWFlPic=

>  <r_epik_Ionization_Penalty>  (58) 
0.00240258

>  <r_epik_Ionization_Penalty_Charging>  (58) 
0

>  <r_epik_Ionization_Penalty_Neutral>  (58) 
0.00240258

>  <r_epik_State_Penalty>  (58) 
0.00131194

>  <r_epik_Charging_Adjusted_Penalty>  (58) 
0.00131194

>  <i_epik_Tot_Q>  (58) 
0

>  <i_epik_Tot_abs_Q>  (58) 
2

>  <s_epik_Chemistry_Notes>  (58) 
This compound has an ester and may undergo hydrolysis at high or low pH. This compound contains an acetal/aminal-like group ( X-CH(R)-Y where X, Y are N, S, or O) that may be acid/base labile, releasing an aldehyde.

>  <s_lp_Force_Field>  (58) 
OPLS3e

>  <r_lp_Energy>  (58) 
452.964

>  <b_lp_Chiralities_Consistent>  (58) 
1

>  <s_lp_Variant>  (58) 
41:0-4

>  <s_i_glide_gridfile>  (58) 
pfpi4k_grid

>  <i_i_glide_lignum>  (58) 
29

>  <i_i_glide_rotatable_bonds>  (58) 
11

>  <r_i_docking_score>  (58) 
-2.57154

>  <r_i_glide_ligand_efficiency>  (58) 
-0.0395622

>  <r_i_glide_ligand_efficiency_sa>  (58) 
-0.159069

>  <r_i_glide_ligand_efficiency_ln>  (58) 
-0.496975

>  <r_i_glide_gscore>  (58) 
-2.57154

>  <r_i_glide_lipo>  (58) 
-0.354409

>  <r_i_glide_hbond>  (58) 
0

>  <r_i_glide_metal>  (58) 
-0

>  <r_i_glide_rewards>  (58) 
-0.0237269

>  <r_i_glide_evdw>  (58) 
-35.3523

>  <r_i_glide_ecoul>  (58) 
-2.69619

>  <r_i_glide_erotb>  (58) 
0.0253195

>  <r_i_glide_esite>  (58) 
-0.0466811

>  <r_i_glide_emodel>  (58) 
-38.207

>  <r_i_glide_energy>  (58) 
-38.0485

>  <r_i_glide_einternal>  (58) 
5.19084

>  <r_i_glide_intrahb_reward>  (58) 
-0

>  <i_i_glide_confnum>  (58) 
2

>  <i_i_glide_posenum>  (58) 
9

>  <r_i_glide_eff_state_penalty>  (58) 
0

>  <ligand_id>  (58) 
41

>  <original_smiles>  (58) 
C=C1C(=O)OC2(C(=C)C)CC3(C)C(C)(C)C45C(=O)OC(C6(O)C(=O)C7(C)OC6(C)C(O)[S+]([O-])C4C4(C=CC(C)(C(O)C6(O)OC6(C)CC12O)C73O)CO4)C1(O)C(=O)C(=C)C1(O)C(O)C5O

>  <smiles>  (58) 
[H]OC1([H])S(=O)C2([H])C3(OC3([H])[H])C([H])=C([H])C3(C([H])([H])[H])C([H])(O[H])C4(O[H])OC4(C([H])([H])[H])C([H])([H])C4(O[H])C(=C([H])[H])C(=O)OC4(C(=C([H])[H])C([H])([H])[H])C([H])([H])C4(C([H])([H])[H])C3(O[H])C3(C([H])([H])[H])OC1(C([H])([H])[H])C(O[H])(C3=O)C1([H])OC(=O)C2(C([H])(O[H])C([H])(O[H])C2(O[H])C(=C([H])[H])C(=O)C12O[H])C4(C([H])([H])[H])C([H])([H])[H]

$$$$
43:0:0
     RDKit          3D

 74 80  0  0  1  0  0  0  0  0999 V2000
    1.1545  -11.0919    4.6438 C   0  0  0  0  0  0  0  0  0  0  0  0
    2.0826  -10.2995    4.1010 C   0  0  0  0  0  0  0  0  0  0  0  0
    2.3609  -10.2459    2.6049 C   0  0  0  0  0  0  0  0  0  0  0  0
    3.8014   -9.7859    2.5482 C   0  0  1  0  0  0  0  0  0  0  0  0
    4.5794  -10.9359    2.8305 O   0  0  0  0  0  0  0  0  0  0  0  0
    4.1518   -9.1694    1.3497 O   0  0  0  0  0  0  0  0  0  0  0  0
    5.3300   -8.3265    1.4235 C   0  0  2  0  0  0  0  0  0  0  0  0
    6.4845   -8.4597    2.8854 S   0  0  0  0  0  0  0  0  0  0  0  0
    6.8278   -9.8803    3.3279 O   0  0  0  0  0  0  0  0  0  0  0  0
    4.9974   -7.7452    3.7446 C   0  0  1  0  0  0  0  0  0  0  0  0
    5.1857   -7.4030    5.0847 O   0  0  0  0  0  0  0  0  0  0  0  0
    6.1654   -6.4095    5.3448 C   0  0  0  0  0  0  0  0  0  0  0  0
    4.6214   -6.6211    2.9733 O   0  0  0  0  0  0  0  0  0  0  0  0
    4.8503   -6.8448    1.5799 C   0  0  1  0  0  0  0  0  0  0  0  0
    5.9576   -5.8660    1.0394 C   0  0  0  0  0  0  0  0  0  0  0  0
    5.6431   -4.3232    0.9911 C   0  0  1  0  0  0  0  0  0  0  0  0
    5.3963   -3.7898    2.4278 C   0  0  0  0  0  0  0  0  0  0  0  0
    6.9142   -3.5995    0.4838 C   0  0  0  0  0  0  0  0  0  0  0  0
    7.9975   -4.1721    0.3992 O   0  0  0  0  0  0  0  0  0  0  0  0
    6.8259   -2.1186    0.1113 C   0  0  0  0  0  0  0  0  0  0  0  0
    5.3894   -1.6237   -0.1003 C   0  0  0  0  0  0  0  0  0  0  0  0
    4.4926   -2.6621   -0.8041 C   0  0  0  0  0  0  0  0  0  0  0  0
    3.0914   -2.0291   -0.9383 C   0  0  0  0  0  0  0  0  0  0  0  0
    5.0107   -2.8855   -2.2406 C   0  0  0  0  0  0  0  0  0  0  0  0
    4.4805   -4.0388   -0.0310 C   0  0  2  0  0  0  0  0  0  0  0  0
    3.1579   -4.3387    0.6357 C   0  0  1  0  0  0  0  0  0  0  0  0
    2.2110   -5.1129   -0.1022 O   0  0  0  0  0  0  0  0  0  0  0  0
    2.7754   -5.7171    1.0702 C   0  0  2  0  0  0  0  0  0  0  0  0
    1.6849   -6.0091    2.0634 C   0  0  0  0  0  0  0  0  0  0  0  0
    0.6871   -7.0174    2.0034 C   0  0  0  0  0  0  0  0  0  0  0  0
   -0.0560   -6.8296    3.1414 C   0  0  0  0  0  0  0  0  0  0  0  0
    0.3950   -5.7551    3.8425 O   0  0  0  0  0  0  0  0  0  0  0  0
    1.4531   -5.2427    3.1702 C   0  0  0  0  0  0  0  0  0  0  0  0
    3.7098   -6.7421    0.7710 O   0  0  0  0  0  0  0  0  0  0  0  0
    3.7705   -8.7257    3.6554 C   0  0  2  0  0  0  0  0  0  0  0  0
    3.0425   -9.3678    4.8659 C   0  0  0  0  0  0  0  0  0  0  0  0
    2.2239   -8.3591    5.6997 C   0  0  0  0  0  0  0  0  0  0  0  0
    3.9561  -10.1664    5.8204 C   0  0  0  0  0  0  0  0  0  0  0  0
    1.0071  -11.1048    5.7085 H   0  0  0  0  0  0  0  0  0  0  0  0
    0.5355  -11.7502    4.0511 H   0  0  0  0  0  0  0  0  0  0  0  0
    2.2581  -11.2121    2.1354 H   0  0  0  0  0  0  0  0  0  0  0  0
    1.6886   -9.5342    2.1236 H   0  0  0  0  0  0  0  0  0  0  0  0
    4.4477  -11.5568    2.1230 H   0  0  0  0  0  0  0  0  0  0  0  0
    5.8728   -8.4535    0.4915 H   0  0  0  0  0  0  0  0  0  0  0  0
    6.3725   -6.3897    6.4140 H   0  0  0  0  0  0  0  0  0  0  0  0
    5.7882   -5.4341    5.0505 H   0  0  0  0  0  0  0  0  0  0  0  0
    7.1111   -6.5936    4.8362 H   0  0  0  0  0  0  0  0  0  0  0  0
    6.8726   -6.0424    1.6079 H   0  0  0  0  0  0  0  0  0  0  0  0
    6.1809   -6.1938    0.0229 H   0  0  0  0  0  0  0  0  0  0  0  0
    4.4771   -4.1540    2.8829 H   0  0  0  0  0  0  0  0  0  0  0  0
    5.3507   -2.7080    2.4743 H   0  0  0  0  0  0  0  0  0  0  0  0
    6.2085   -4.0873    3.0842 H   0  0  0  0  0  0  0  0  0  0  0  0
    7.3380   -1.5107    0.8583 H   0  0  0  0  0  0  0  0  0  0  0  0
    7.3768   -1.9967   -0.8181 H   0  0  0  0  0  0  0  0  0  0  0  0
    4.9520   -1.3473    0.8582 H   0  0  0  0  0  0  0  0  0  0  0  0
    5.4057   -0.6895   -0.6735 H   0  0  0  0  0  0  0  0  0  0  0  0
    2.3746   -2.6971   -1.4221 H   0  0  0  0  0  0  0  0  0  0  0  0
    3.1181   -1.1085   -1.5253 H   0  0  0  0  0  0  0  0  0  0  0  0
    2.6813   -1.7445    0.0313 H   0  0  0  0  0  0  0  0  0  0  0  0
    4.3271   -3.5246   -2.8042 H   0  0  0  0  0  0  0  0  0  0  0  0
    5.9860   -3.3695   -2.2507 H   0  0  0  0  0  0  0  0  0  0  0  0
    5.1006   -1.9421   -2.7816 H   0  0  0  0  0  0  0  0  0  0  0  0
    4.5794   -4.8009   -0.8081 H   0  0  0  0  0  0  0  0  0  0  0  0
    2.7369   -3.5438    1.2472 H   0  0  0  0  0  0  0  0  0  0  0  0
    0.5438   -7.7978    1.2676 H   0  0  0  0  0  0  0  0  0  0  0  0
   -0.8757   -7.3505    3.5908 H   0  0  0  0  0  0  0  0  0  0  0  0
    1.9317   -4.3639    3.5706 H   0  0  0  0  0  0  0  0  0  0  0  0
    2.9976   -8.0395    3.3139 H   0  0  0  0  0  0  0  0  0  0  0  0
    2.8634   -7.5865    6.1201 H   0  0  0  0  0  0  0  0  0  0  0  0
    1.7186   -8.8551    6.5330 H   0  0  0  0  0  0  0  0  0  0  0  0
    1.4523   -7.8698    5.1114 H   0  0  0  0  0  0  0  0  0  0  0  0
    4.6913   -9.5232    6.3020 H   0  0  0  0  0  0  0  0  0  0  0  0
    4.4981  -10.9618    5.3155 H   0  0  0  0  0  0  0  0  0  0  0  0
    3.3716  -10.6460    6.6083 H   0  0  0  0  0  0  0  0  0  0  0  0
  1  2  2  0
  1 39  1  0
  1 40  1  0
  2 36  1  0
  2  3  1  0
  3  4  1  0
  3 41  1  0
  3 42  1  0
  4 35  1  0
  4  5  1  1
  4  6  1  0
  5 43  1  0
  6  7  1  0
  7 14  1  0
  7  8  1  0
  7 44  1  6
  8  9  2  0
  8 10  1  1
 10 11  1  1
 10 13  1  0
 10 35  1  0
 11 12  1  0
 12 45  1  0
 12 46  1  0
 12 47  1  0
 14 13  1  1
 14 34  1  0
 14 15  1  0
 15 16  1  0
 15 48  1  0
 15 49  1  0
 16 25  1  0
 16 17  1  1
 16 18  1  0
 17 50  1  0
 17 51  1  0
 17 52  1  0
 18 19  2  0
 18 20  1  0
 20 21  1  0
 20 53  1  0
 20 54  1  0
 21 22  1  0
 21 55  1  0
 21 56  1  0
 22 23  1  0
 22 24  1  0
 22 25  1  0
 23 57  1  0
 23 58  1  0
 23 59  1  0
 24 60  1  0
 24 61  1  0
 24 62  1  0
 25 26  1  0
 25 63  1  6
 26 28  1  0
 26 27  1  0
 26 64  1  1
 27 28  1  0
 28 29  1  1
 28 34  1  0
 29 33  2  0
 29 30  1  0
 30 31  2  0
 30 65  1  0
 31 32  1  0
 31 66  1  0
 32 33  1  0
 33 67  1  0
 35 36  1  0
 35 68  1  6
 36 37  1  0
 36 38  1  0
 37 69  1  0
 37 70  1  0
 37 71  1  0
 38 72  1  0
 38 73  1  0
 38 74  1  0
M  END
>  <i_m_ct_stereo_status>  (59) 
1

>  <s_m_source_file>  (59) 
/var/tmp/pbs.5075288.sched01/tmpeqwi9iw0/66la8jmv2o.sdf

>  <i_m_source_file_index>  (59) 
32

>  <i_lp_mmshare_version>  (59) 
48012

>  <i_f3d_flags>  (59) 
0

>  <s_epik_input>  (59) 
W0NIMl09QyhbQ0gyXTEpQyhbQ0gzXSkoW0NIM10pW0NAQEhdKFtDQF0oTzIpKFtTK10zW08tXSlPW0NIM10pW0NAXTEoW09IXSlPW0NASF0zW0NAXTI0W0NIMl1bQ0BdNShbQ0gzXSlbQ0BIXShDKFtDSDNdKShbQ0gzXSlbQ0gyXVtDSDJdQzU9TylbQ0BASF02W0NAQF0oTzYpKE80KWM3W2NIXVtjSF1vW2NIXTc=

>  <s_epik_cmdline>  (59) 
J2VwaWtfcHl0aG9uJywgJy1waHQnLCAnMi4wJywgJy1waCcsICc3LjAnLCAnLXRuJywgJzgnLCAnLW1hJywgJzIwMCcsICctaW1hZScsICc8aW5maWxlLm1hZT4nLCAnLW9tYWUnLCAnPG91dGZpbGUubWFlPic=

>  <r_lp_tautomer_probability>  (59) 
1

>  <r_epik_Ionization_Penalty>  (59) 
1.21858e-07

>  <r_epik_Ionization_Penalty_Charging>  (59) 
0

>  <r_epik_Ionization_Penalty_Neutral>  (59) 
1.21858e-07

>  <r_epik_State_Penalty>  (59) 
-0

>  <r_epik_Charging_Adjusted_Penalty>  (59) 
0

>  <i_epik_Tot_Q>  (59) 
0

>  <i_epik_Tot_abs_Q>  (59) 
2

>  <s_epik_Chemistry_Notes>  (59) 
This compound contains an acetal/aminal-like group ( X-CH(R)-Y where X, Y are N, S, or O) that may be acid/base labile, releasing an aldehyde.

>  <s_lp_Force_Field>  (59) 
OPLS3e

>  <r_lp_Energy>  (59) 
53.2309

>  <b_lp_Chiralities_Consistent>  (59) 
1

>  <s_lp_Variant>  (59) 
43:0-1

>  <s_i_glide_gridfile>  (59) 
pfpi4k_grid

>  <i_i_glide_lignum>  (59) 
32

>  <i_i_glide_rotatable_bonds>  (59) 
3

>  <r_i_docking_score>  (59) 
-2.77728

>  <r_i_glide_ligand_efficiency>  (59) 
-0.0730863

>  <r_i_glide_ligand_efficiency_sa>  (59) 
-0.245714

>  <r_i_glide_ligand_efficiency_ln>  (59) 
-0.598863

>  <r_i_glide_gscore>  (59) 
-2.77728

>  <r_i_glide_lipo>  (59) 
-0.400614

>  <r_i_glide_hbond>  (59) 
-0.00496962

>  <r_i_glide_metal>  (59) 
-0

>  <r_i_glide_rewards>  (59) 
-0.296231

>  <r_i_glide_evdw>  (59) 
-29.9091

>  <r_i_glide_ecoul>  (59) 
-3.90826

>  <r_i_glide_erotb>  (59) 
0.068844

>  <r_i_glide_esite>  (59) 
-0.0626131

>  <r_i_glide_emodel>  (59) 
-39.2787

>  <r_i_glide_energy>  (59) 
-33.8174

>  <r_i_glide_einternal>  (59) 
0.336076

>  <r_i_glide_intrahb_reward>  (59) 
-0

>  <i_i_glide_confnum>  (59) 
2

>  <i_i_glide_posenum>  (59) 
27

>  <r_i_glide_eff_state_penalty>  (59) 
0

>  <ligand_id>  (59) 
43

>  <original_smiles>  (59) 
C=C1CC2(O)OC3[S+]([O-])C(OC)(OC34CC3(C)C(=O)CCC(C)(C)C3C3OC3(c3ccoc3)O4)C2C1(C)C

>  <smiles>  (59) 
[H]OC12OC3([H])S(=O)C(OC([H])([H])[H])(OC34OC3(c5c([H])oc([H])c5[H])OC3([H])C3([H])C(C([H])([H])[H])(C(=O)C([H])([H])C([H])([H])C3(C([H])([H])[H])C([H])([H])[H])C4([H])[H])C1([H])C(C([H])([H])[H])(C([H])([H])[H])C(=C([H])[H])C2([H])[H]

$$$$
43:0:1
     RDKit          3D

 74 80  0  0  1  0  0  0  0  0999 V2000
    2.0307    1.3925    4.9309 C   0  0  0  0  0  0  0  0  0  0  0  0
    1.7074    0.1324    5.2546 C   0  0  0  0  0  0  0  0  0  0  0  0
    0.4627   -0.5829    4.7227 C   0  0  0  0  0  0  0  0  0  0  0  0
    0.2163   -1.6357    5.7940 C   0  0  1  0  0  0  0  0  0  0  0  0
   -0.3952   -0.9228    6.8419 O   0  0  0  0  0  0  0  0  0  0  0  0
   -0.5447   -2.7357    5.4048 O   0  0  0  0  0  0  0  0  0  0  0  0
   -0.3769   -3.9337    6.2112 C   0  0  2  0  0  0  0  0  0  0  0  0
    0.3286   -3.7812    7.9223 S   0  0  0  0  0  0  0  0  0  0  0  0
   -0.2055   -2.6007    8.7329 O   0  0  0  0  0  0  0  0  0  0  0  0
    1.8498   -3.3888    6.9498 C   0  0  1  0  0  0  0  0  0  0  0  0
    3.0091   -3.2400    7.7064 O   0  0  0  0  0  0  0  0  0  0  0  0
    3.4417   -4.3849    8.4237 C   0  0  0  0  0  0  0  0  0  0  0  0
    1.9727   -4.4421    6.0158 O   0  0  0  0  0  0  0  0  0  0  0  0
    0.6958   -4.8722    5.5515 C   0  0  1  0  0  0  0  0  0  0  0  0
    0.4338   -6.3656    5.9777 C   0  0  0  0  0  0  0  0  0  0  0  0
    1.3272   -7.5109    5.3670 C   0  0  1  0  0  0  0  0  0  0  0  0
    2.8164   -7.3006    5.7674 C   0  0  0  0  0  0  0  0  0  0  0  0
    0.9056   -8.8477    6.0303 C   0  0  0  0  0  0  0  0  0  0  0  0
    0.1826   -8.8750    7.0285 O   0  0  0  0  0  0  0  0  0  0  0  0
    1.4239  -10.1598    5.4331 C   0  0  0  0  0  0  0  0  0  0  0  0
    1.9997  -10.0073    4.0144 C   0  0  0  0  0  0  0  0  0  0  0  0
    1.1952   -9.0317    3.1293 C   0  0  0  0  0  0  0  0  0  0  0  0
    1.8949   -8.9863    1.7481 C   0  0  0  0  0  0  0  0  0  0  0  0
   -0.2172   -9.6183    2.8957 C   0  0  0  0  0  0  0  0  0  0  0  0
    1.0624   -7.6199    3.8247 C   0  0  2  0  0  0  0  0  0  0  0  0
    1.8279   -6.5386    3.1063 C   0  0  1  0  0  0  0  0  0  0  0  0
    1.0991   -5.8039    2.1144 O   0  0  0  0  0  0  0  0  0  0  0  0
    1.5489   -5.0838    3.2806 C   0  0  2  0  0  0  0  0  0  0  0  0
    2.5501   -4.0207    2.9380 C   0  0  0  0  0  0  0  0  0  0  0  0
    2.2875   -2.7275    2.4069 C   0  0  0  0  0  0  0  0  0  0  0  0
    3.5174   -2.1461    2.2676 C   0  0  0  0  0  0  0  0  0  0  0  0
    4.5073   -3.0135    2.6217 O   0  0  0  0  0  0  0  0  0  0  0  0
    3.9003   -4.1681    3.0057 C   0  0  0  0  0  0  0  0  0  0  0  0
    0.4981   -4.7326    4.1721 O   0  0  0  0  0  0  0  0  0  0  0  0
    1.6607   -2.0834    6.0791 C   0  0  2  0  0  0  0  0  0  0  0  0
    2.4938   -0.7742    6.2229 C   0  0  0  0  0  0  0  0  0  0  0  0
    3.9524   -0.9362    5.7374 C   0  0  0  0  0  0  0  0  0  0  0  0
    2.5196   -0.1761    7.6478 C   0  0  0  0  0  0  0  0  0  0  0  0
    2.9068    1.8699    5.3411 H   0  0  0  0  0  0  0  0  0  0  0  0
    1.4173    1.9664    4.2494 H   0  0  0  0  0  0  0  0  0  0  0  0
   -0.3992    0.0729    4.5791 H   0  0  0  0  0  0  0  0  0  0  0  0
    0.6874   -1.0602    3.7765 H   0  0  0  0  0  0  0  0  0  0  0  0
    0.2117   -0.2418    7.0908 H   0  0  0  0  0  0  0  0  0  0  0  0
   -1.3352   -4.4522    6.2495 H   0  0  0  0  0  0  0  0  0  0  0  0
    4.2215   -4.0957    9.1314 H   0  0  0  0  0  0  0  0  0  0  0  0
    3.8643   -5.1217    7.7407 H   0  0  0  0  0  0  0  0  0  0  0  0
    2.6456   -4.8563    9.0001 H   0  0  0  0  0  0  0  0  0  0  0  0
    0.4854   -6.4045    7.0675 H   0  0  0  0  0  0  0  0  0  0  0  0
   -0.6073   -6.5789    5.7309 H   0  0  0  0  0  0  0  0  0  0  0  0
    3.2703   -6.4262    5.3040 H   0  0  0  0  0  0  0  0  0  0  0  0
    3.4467   -8.1439    5.5012 H   0  0  0  0  0  0  0  0  0  0  0  0
    2.9161   -7.1822    6.8450 H   0  0  0  0  0  0  0  0  0  0  0  0
    2.1615  -10.6025    6.1002 H   0  0  0  0  0  0  0  0  0  0  0  0
    0.5889  -10.8615    5.4011 H   0  0  0  0  0  0  0  0  0  0  0  0
    3.0393   -9.6853    4.0696 H   0  0  0  0  0  0  0  0  0  0  0  0
    2.0410  -10.9924    3.5441 H   0  0  0  0  0  0  0  0  0  0  0  0
    1.3949   -8.3060    1.0552 H   0  0  0  0  0  0  0  0  0  0  0  0
    1.9080   -9.9694    1.2843 H   0  0  0  0  0  0  0  0  0  0  0  0
    2.9409   -8.6806    1.8230 H   0  0  0  0  0  0  0  0  0  0  0  0
   -0.7835   -9.0196    2.1819 H   0  0  0  0  0  0  0  0  0  0  0  0
   -0.7970   -9.6484    3.8194 H   0  0  0  0  0  0  0  0  0  0  0  0
   -0.1686  -10.6361    2.5082 H   0  0  0  0  0  0  0  0  0  0  0  0
    0.0166   -7.3399    3.6882 H   0  0  0  0  0  0  0  0  0  0  0  0
    2.8610   -6.7622    2.8704 H   0  0  0  0  0  0  0  0  0  0  0  0
    1.3405   -2.2773    2.1780 H   0  0  0  0  0  0  0  0  0  0  0  0
    3.8509   -1.1687    1.9604 H   0  0  0  0  0  0  0  0  0  0  0  0
    4.5503   -4.9773    3.2949 H   0  0  0  0  0  0  0  0  0  0  0  0
    2.0061   -2.4336    5.1130 H   0  0  0  0  0  0  0  0  0  0  0  0
    4.4870   -1.6915    6.3124 H   0  0  0  0  0  0  0  0  0  0  0  0
    4.5097   -0.0044    5.8368 H   0  0  0  0  0  0  0  0  0  0  0  0
    4.0137   -1.2244    4.6900 H   0  0  0  0  0  0  0  0  0  0  0  0
    3.0047   -0.8457    8.3549 H   0  0  0  0  0  0  0  0  0  0  0  0
    1.5337    0.0518    8.0424 H   0  0  0  0  0  0  0  0  0  0  0  0
    3.0769    0.7614    7.6553 H   0  0  0  0  0  0  0  0  0  0  0  0
  1  2  2  0
  1 39  1  0
  1 40  1  0
  2 36  1  0
  2  3  1  0
  3  4  1  0
  3 41  1  0
  3 42  1  0
  4 35  1  0
  4  5  1  1
  4  6  1  0
  5 43  1  0
  6  7  1  0
  7 14  1  0
  7  8  1  0
  7 44  1  1
  8  9  2  0
  8 10  1  6
 10 11  1  1
 10 13  1  0
 10 35  1  0
 11 12  1  0
 12 45  1  0
 12 46  1  0
 12 47  1  0
 14 13  1  6
 14 34  1  0
 14 15  1  0
 15 16  1  0
 15 48  1  0
 15 49  1  0
 16 25  1  0
 16 17  1  6
 16 18  1  0
 17 50  1  0
 17 51  1  0
 17 52  1  0
 18 19  2  0
 18 20  1  0
 20 21  1  0
 20 53  1  0
 20 54  1  0
 21 22  1  0
 21 55  1  0
 21 56  1  0
 22 23  1  0
 22 24  1  0
 22 25  1  0
 23 57  1  0
 23 58  1  0
 23 59  1  0
 24 60  1  0
 24 61  1  0
 24 62  1  0
 25 26  1  0
 25 63  1  1
 26 28  1  0
 26 27  1  0
 26 64  1  6
 27 28  1  0
 28 29  1  6
 28 34  1  0
 29 33  2  0
 29 30  1  0
 30 31  2  0
 30 65  1  0
 31 32  1  0
 31 66  1  0
 32 33  1  0
 33 67  1  0
 35 36  1  0
 35 68  1  6
 36 37  1  0
 36 38  1  0
 37 69  1  0
 37 70  1  0
 37 71  1  0
 38 72  1  0
 38 73  1  0
 38 74  1  0
M  END
>  <i_m_ct_stereo_status>  (60) 
1

>  <s_m_source_file>  (60) 
/var/tmp/pbs.5075288.sched01/tmpeqwi9iw0/66la8jmv2o.sdf

>  <i_m_source_file_index>  (60) 
32

>  <i_lp_mmshare_version>  (60) 
48012

>  <i_f3d_flags>  (60) 
0

>  <s_epik_input>  (60) 
W0NIMl09QyhbQ0gyXTEpQyhbQ0gzXSkoW0NIM10pW0NAQEhdKFtDQF0oTzIpKFtTK10zW08tXSlPW0NIM10pW0NAXTEoW09IXSlPW0NASF0zW0NAXTI0W0NIMl1bQ0BdNShbQ0gzXSlbQ0BIXShDKFtDSDNdKShbQ0gzXSlbQ0gyXVtDSDJdQzU9TylbQ0BASF02W0NAQF0oTzYpKE80KWM3W2NIXVtjSF1vW2NIXTc=

>  <s_epik_cmdline>  (60) 
J2VwaWtfcHl0aG9uJywgJy1waHQnLCAnMi4wJywgJy1waCcsICc3LjAnLCAnLXRuJywgJzgnLCAnLW1hJywgJzIwMCcsICctaW1hZScsICc8aW5maWxlLm1hZT4nLCAnLW9tYWUnLCAnPG91dGZpbGUubWFlPic=

>  <r_lp_tautomer_probability>  (60) 
1

>  <r_epik_Ionization_Penalty>  (60) 
1.21858e-07

>  <r_epik_Ionization_Penalty_Charging>  (60) 
0

>  <r_epik_Ionization_Penalty_Neutral>  (60) 
1.21858e-07

>  <r_epik_State_Penalty>  (60) 
-0

>  <r_epik_Charging_Adjusted_Penalty>  (60) 
0

>  <i_epik_Tot_Q>  (60) 
0

>  <i_epik_Tot_abs_Q>  (60) 
2

>  <s_epik_Chemistry_Notes>  (60) 
This compound contains an acetal/aminal-like group ( X-CH(R)-Y where X, Y are N, S, or O) that may be acid/base labile, releasing an aldehyde.

>  <s_lp_Force_Field>  (60) 
OPLS3e

>  <r_lp_Energy>  (60) 
53.2309

>  <b_lp_Chiralities_Consistent>  (60) 
1

>  <s_lp_Variant>  (60) 
43:0-1

>  <s_i_glide_gridfile>  (60) 
pfpi4k_grid

>  <i_i_glide_lignum>  (60) 
32

>  <i_i_glide_rotatable_bonds>  (60) 
3

>  <r_i_docking_score>  (60) 
-2.28334

>  <r_i_glide_ligand_efficiency>  (60) 
-0.0600878

>  <r_i_glide_ligand_efficiency_sa>  (60) 
-0.202014

>  <r_i_glide_ligand_efficiency_ln>  (60) 
-0.492355

>  <r_i_glide_gscore>  (60) 
-2.28334

>  <r_i_glide_lipo>  (60) 
-0.0267917

>  <r_i_glide_hbond>  (60) 
-0.23499

>  <r_i_glide_metal>  (60) 
-0

>  <r_i_glide_rewards>  (60) 
0

>  <r_i_glide_evdw>  (60) 
-21.7807

>  <r_i_glide_ecoul>  (60) 
-6.07704

>  <r_i_glide_erotb>  (60) 
0.068844

>  <r_i_glide_esite>  (60) 
-0.0898071

>  <r_i_glide_emodel>  (60) 
-31.4028

>  <r_i_glide_energy>  (60) 
-27.8578

>  <r_i_glide_einternal>  (60) 
1.95655

>  <r_i_glide_intrahb_reward>  (60) 
-0

>  <i_i_glide_confnum>  (60) 
2

>  <i_i_glide_posenum>  (60) 
26

>  <r_i_glide_eff_state_penalty>  (60) 
0

>  <ligand_id>  (60) 
43

>  <original_smiles>  (60) 
C=C1CC2(O)OC3[S+]([O-])C(OC)(OC34CC3(C)C(=O)CCC(C)(C)C3C3OC3(c3ccoc3)O4)C2C1(C)C

>  <smiles>  (60) 
[H]OC12OC3([H])S(=O)C(OC([H])([H])[H])(OC34OC3(c5c([H])oc([H])c5[H])OC3([H])C3([H])C(C([H])([H])[H])(C(=O)C([H])([H])C([H])([H])C3(C([H])([H])[H])C([H])([H])[H])C4([H])[H])C1([H])C(C([H])([H])[H])(C([H])([H])[H])C(=C([H])[H])C2([H])[H]

$$$$
43:0:2
     RDKit          3D

 74 80  0  0  1  0  0  0  0  0999 V2000
   -1.4845    3.5009    6.5132 C   0  0  0  0  0  0  0  0  0  0  0  0
   -0.9385    2.3444    6.1224 C   0  0  0  0  0  0  0  0  0  0  0  0
   -1.3094    1.6424    4.8156 C   0  0  0  0  0  0  0  0  0  0  0  0
   -0.9726    0.1925    5.1412 C   0  0  1  0  0  0  0  0  0  0  0  0
   -2.0491   -0.2835    5.9219 O   0  0  0  0  0  0  0  0  0  0  0  0
   -0.7375   -0.6134    4.0281 O   0  0  0  0  0  0  0  0  0  0  0  0
    0.0624   -1.8069    4.2615 C   0  0  2  0  0  0  0  0  0  0  0  0
    0.2984   -2.4299    5.9971 S   0  0  0  0  0  0  0  0  0  0  0  0
   -0.9692   -2.4143    6.8482 O   0  0  0  0  0  0  0  0  0  0  0  0
    1.2719   -0.8562    6.1087 C   0  0  1  0  0  0  0  0  0  0  0  0
    1.9631   -0.6811    7.3097 O   0  0  0  0  0  0  0  0  0  0  0  0
    2.9469   -1.6561    7.6263 C   0  0  0  0  0  0  0  0  0  0  0  0
    2.1492   -0.8964    5.0004 O   0  0  0  0  0  0  0  0  0  0  0  0
    1.5363   -1.5125    3.8700 C   0  0  1  0  0  0  0  0  0  0  0  0
    2.2653   -2.8549    3.5010 C   0  0  0  0  0  0  0  0  0  0  0  0
    3.7525   -2.7904    2.9853 C   0  0  1  0  0  0  0  0  0  0  0  0
    4.6738   -2.2071    4.0897 C   0  0  0  0  0  0  0  0  0  0  0  0
    4.2379   -4.2366    2.7604 C   0  0  0  0  0  0  0  0  0  0  0  0
    3.5918   -5.1983    3.1764 O   0  0  0  0  0  0  0  0  0  0  0  0
    5.5574   -4.4822    2.0263 C   0  0  0  0  0  0  0  0  0  0  0  0
    6.0567   -3.2613    1.2411 C   0  0  0  0  0  0  0  0  0  0  0  0
    4.9239   -2.4754    0.5586 C   0  0  0  0  0  0  0  0  0  0  0  0
    5.5749   -1.2851   -0.1817 C   0  0  0  0  0  0  0  0  0  0  0  0
    4.2808   -3.3688   -0.5240 C   0  0  0  0  0  0  0  0  0  0  0  0
    3.8199   -2.0442    1.6036 C   0  0  2  0  0  0  0  0  0  0  0  0
    3.7622   -0.5586    1.8484 C   0  0  1  0  0  0  0  0  0  0  0  0
    2.8692    0.1623    1.0113 O   0  0  0  0  0  0  0  0  0  0  0  0
    2.5564    0.1271    2.4109 C   0  0  2  0  0  0  0  0  0  0  0  0
    2.6595    1.4780    3.0501 C   0  0  0  0  0  0  0  0  0  0  0  0
    3.3400    1.7583    4.2588 C   0  0  0  0  0  0  0  0  0  0  0  0
    3.2540    3.1103    4.4357 C   0  0  0  0  0  0  0  0  0  0  0  0
    2.5591    3.6796    3.4125 O   0  0  0  0  0  0  0  0  0  0  0  0
    2.1995    2.6896    2.5585 C   0  0  0  0  0  0  0  0  0  0  0  0
    1.4559   -0.7013    2.7344 O   0  0  0  0  0  0  0  0  0  0  0  0
    0.3486    0.3968    5.8923 C   0  0  2  0  0  0  0  0  0  0  0  0
    0.1058    1.5353    6.9193 C   0  0  0  0  0  0  0  0  0  0  0  0
    1.3255    2.4253    7.2042 C   0  0  0  0  0  0  0  0  0  0  0  0
   -0.4372    1.0881    8.2774 C   0  0  0  0  0  0  0  0  0  0  0  0
   -1.1957    3.9527    7.4447 H   0  0  0  0  0  0  0  0  0  0  0  0
   -2.2250    3.9933    5.9062 H   0  0  0  0  0  0  0  0  0  0  0  0
   -2.3565    1.7771    4.5338 H   0  0  0  0  0  0  0  0  0  0  0  0
   -0.6830    2.0201    4.0000 H   0  0  0  0  0  0  0  0  0  0  0  0
   -2.8421   -0.1878    5.4136 H   0  0  0  0  0  0  0  0  0  0  0  0
   -0.3208   -2.6104    3.6412 H   0  0  0  0  0  0  0  0  0  0  0  0
    3.2496   -1.5329    8.6661 H   0  0  0  0  0  0  0  0  0  0  0  0
    3.8184   -1.5178    6.9933 H   0  0  0  0  0  0  0  0  0  0  0  0
    2.5837   -2.6771    7.5149 H   0  0  0  0  0  0  0  0  0  0  0  0
    2.2078   -3.5223    4.3636 H   0  0  0  0  0  0  0  0  0  0  0  0
    1.6574   -3.3391    2.7258 H   0  0  0  0  0  0  0  0  0  0  0  0
    4.5068   -1.1512    4.2932 H   0  0  0  0  0  0  0  0  0  0  0  0
    5.7215   -2.2999    3.8389 H   0  0  0  0  0  0  0  0  0  0  0  0
    4.5469   -2.7483    5.0277 H   0  0  0  0  0  0  0  0  0  0  0  0
    6.3155   -4.8254    2.7318 H   0  0  0  0  0  0  0  0  0  0  0  0
    5.3999   -5.3043    1.3330 H   0  0  0  0  0  0  0  0  0  0  0  0
    6.6023   -2.6002    1.9107 H   0  0  0  0  0  0  0  0  0  0  0  0
    6.7935   -3.5927    0.4982 H   0  0  0  0  0  0  0  0  0  0  0  0
    4.8340   -0.6656   -0.6916 H   0  0  0  0  0  0  0  0  0  0  0  0
    6.2803   -1.6437   -0.9345 H   0  0  0  0  0  0  0  0  0  0  0  0
    6.1444   -0.6444    0.4900 H   0  0  0  0  0  0  0  0  0  0  0  0
    3.5495   -2.8065   -1.1103 H   0  0  0  0  0  0  0  0  0  0  0  0
    3.7619   -4.2226   -0.0933 H   0  0  0  0  0  0  0  0  0  0  0  0
    5.0299   -3.7591   -1.2169 H   0  0  0  0  0  0  0  0  0  0  0  0
    2.8712   -2.2675    1.1128 H   0  0  0  0  0  0  0  0  0  0  0  0
    4.7078   -0.0647    2.0728 H   0  0  0  0  0  0  0  0  0  0  0  0
    3.7967    1.0512    4.9329 H   0  0  0  0  0  0  0  0  0  0  0  0
    3.5738    3.7624    5.2251 H   0  0  0  0  0  0  0  0  0  0  0  0
    1.6608    3.0034    1.6846 H   0  0  0  0  0  0  0  0  0  0  0  0
    0.9326    0.9226    5.1441 H   0  0  0  0  0  0  0  0  0  0  0  0
    2.1916    1.8487    7.5369 H   0  0  0  0  0  0  0  0  0  0  0  0
    1.1218    3.1982    7.9550 H   0  0  0  0  0  0  0  0  0  0  0  0
    1.5616    2.9755    6.2992 H   0  0  0  0  0  0  0  0  0  0  0  0
    0.2797    0.4432    8.7890 H   0  0  0  0  0  0  0  0  0  0  0  0
   -1.3852    0.5695    8.1829 H   0  0  0  0  0  0  0  0  0  0  0  0
   -0.6154    1.9572    8.9158 H   0  0  0  0  0  0  0  0  0  0  0  0
  1  2  2  0
  1 39  1  0
  1 40  1  0
  2 36  1  0
  2  3  1  0
  3  4  1  0
  3 41  1  0
  3 42  1  0
  4 35  1  0
  4  5  1  1
  4  6  1  0
  5 43  1  0
  6  7  1  0
  7 14  1  0
  7  8  1  0
  7 44  1  6
  8  9  2  0
  8 10  1  1
 10 11  1  1
 10 13  1  0
 10 35  1  0
 11 12  1  0
 12 45  1  0
 12 46  1  0
 12 47  1  0
 14 13  1  1
 14 34  1  0
 14 15  1  0
 15 16  1  0
 15 48  1  0
 15 49  1  0
 16 25  1  0
 16 17  1  1
 16 18  1  0
 17 50  1  0
 17 51  1  0
 17 52  1  0
 18 19  2  0
 18 20  1  0
 20 21  1  0
 20 53  1  0
 20 54  1  0
 21 22  1  0
 21 55  1  0
 21 56  1  0
 22 23  1  0
 22 24  1  0
 22 25  1  0
 23 57  1  0
 23 58  1  0
 23 59  1  0
 24 60  1  0
 24 61  1  0
 24 62  1  0
 25 26  1  0
 25 63  1  6
 26 28  1  0
 26 27  1  0
 26 64  1  1
 27 28  1  0
 28 29  1  1
 28 34  1  0
 29 33  2  0
 29 30  1  0
 30 31  2  0
 30 65  1  0
 31 32  1  0
 31 66  1  0
 32 33  1  0
 33 67  1  0
 35 36  1  0
 35 68  1  6
 36 37  1  0
 36 38  1  0
 37 69  1  0
 37 70  1  0
 37 71  1  0
 38 72  1  0
 38 73  1  0
 38 74  1  0
M  END
>  <i_m_ct_stereo_status>  (61) 
1

>  <s_m_source_file>  (61) 
/var/tmp/pbs.5075288.sched01/tmpeqwi9iw0/66la8jmv2o.sdf

>  <i_m_source_file_index>  (61) 
32

>  <i_lp_mmshare_version>  (61) 
48012

>  <i_f3d_flags>  (61) 
0

>  <s_epik_input>  (61) 
W0NIMl09QyhbQ0gyXTEpQyhbQ0gzXSkoW0NIM10pW0NAQEhdKFtDQF0oTzIpKFtTK10zW08tXSlPW0NIM10pW0NAXTEoW09IXSlPW0NASF0zW0NAXTI0W0NIMl1bQ0BdNShbQ0gzXSlbQ0BIXShDKFtDSDNdKShbQ0gzXSlbQ0gyXVtDSDJdQzU9TylbQ0BASF02W0NAQF0oTzYpKE80KWM3W2NIXVtjSF1vW2NIXTc=

>  <s_epik_cmdline>  (61) 
J2VwaWtfcHl0aG9uJywgJy1waHQnLCAnMi4wJywgJy1waCcsICc3LjAnLCAnLXRuJywgJzgnLCAnLW1hJywgJzIwMCcsICctaW1hZScsICc8aW5maWxlLm1hZT4nLCAnLW9tYWUnLCAnPG91dGZpbGUubWFlPic=

>  <r_lp_tautomer_probability>  (61) 
1

>  <r_epik_Ionization_Penalty>  (61) 
1.21858e-07

>  <r_epik_Ionization_Penalty_Charging>  (61) 
0

>  <r_epik_Ionization_Penalty_Neutral>  (61) 
1.21858e-07

>  <r_epik_State_Penalty>  (61) 
-0

>  <r_epik_Charging_Adjusted_Penalty>  (61) 
0

>  <i_epik_Tot_Q>  (61) 
0

>  <i_epik_Tot_abs_Q>  (61) 
2

>  <s_epik_Chemistry_Notes>  (61) 
This compound contains an acetal/aminal-like group ( X-CH(R)-Y where X, Y are N, S, or O) that may be acid/base labile, releasing an aldehyde.

>  <s_lp_Force_Field>  (61) 
OPLS3e

>  <r_lp_Energy>  (61) 
53.2309

>  <b_lp_Chiralities_Consistent>  (61) 
1

>  <s_lp_Variant>  (61) 
43:0-1

>  <s_i_glide_gridfile>  (61) 
pfpi4k_grid

>  <i_i_glide_lignum>  (61) 
32

>  <i_i_glide_rotatable_bonds>  (61) 
3

>  <r_i_docking_score>  (61) 
-2.08566

>  <r_i_glide_ligand_efficiency>  (61) 
-0.0548857

>  <r_i_glide_ligand_efficiency_sa>  (61) 
-0.184524

>  <r_i_glide_ligand_efficiency_ln>  (61) 
-0.449729

>  <r_i_glide_gscore>  (61) 
-2.08566

>  <r_i_glide_lipo>  (61) 
-0.288755

>  <r_i_glide_hbond>  (61) 
-0.00221987

>  <r_i_glide_metal>  (61) 
-0

>  <r_i_glide_rewards>  (61) 
-0.00443395

>  <r_i_glide_evdw>  (61) 
-24.1766

>  <r_i_glide_ecoul>  (61) 
-3.99763

>  <r_i_glide_erotb>  (61) 
0.068844

>  <r_i_glide_esite>  (61) 
-0.0506184

>  <r_i_glide_emodel>  (61) 
-31.9015

>  <r_i_glide_energy>  (61) 
-28.1742

>  <r_i_glide_einternal>  (61) 
0.153671

>  <r_i_glide_intrahb_reward>  (61) 
-0

>  <i_i_glide_confnum>  (61) 
2

>  <i_i_glide_posenum>  (61) 
23

>  <r_i_glide_eff_state_penalty>  (61) 
0

>  <ligand_id>  (61) 
43

>  <original_smiles>  (61) 
C=C1CC2(O)OC3[S+]([O-])C(OC)(OC34CC3(C)C(=O)CCC(C)(C)C3C3OC3(c3ccoc3)O4)C2C1(C)C

>  <smiles>  (61) 
[H]OC12OC3([H])S(=O)C(OC([H])([H])[H])(OC34OC3(c5c([H])oc([H])c5[H])OC3([H])C3([H])C(C([H])([H])[H])(C(=O)C([H])([H])C([H])([H])C3(C([H])([H])[H])C([H])([H])[H])C4([H])[H])C1([H])C(C([H])([H])[H])(C([H])([H])[H])C(=C([H])[H])C2([H])[H]

$$$$
45:0:0
     RDKit          3D

104108  0  0  1  0  0  0  0  0999 V2000
   -1.0424   -7.9092    2.5429 C   0  0  0  0  0  0  0  0  0  0  0  0
   -0.1171   -6.8838    2.8598 O   0  0  0  0  0  0  0  0  0  0  0  0
   -0.1363   -6.4649    4.2218 C   0  0  2  0  0  0  0  0  0  0  0  0
    0.4997   -5.1309    4.4393 C   0  0  0  0  0  0  0  0  0  0  0  0
    1.7478   -4.6584    4.2143 C   0  0  0  0  0  0  0  0  0  0  0  0
    2.1654   -3.3506    4.8880 C   0  0  1  0  0  0  0  0  0  0  0  0
    1.4123   -2.9510    6.0313 O   0  0  0  0  0  0  0  0  0  0  0  0
    0.3330   -2.1357    5.9413 C   0  0  0  0  0  0  0  0  0  0  0  0
   -0.1572   -1.6507    7.3044 C   0  0  0  0  0  0  0  0  0  0  0  0
   -0.2403   -1.7933    4.9059 O   0  0  0  0  0  0  0  0  0  0  0  0
    3.6862   -3.5341    5.1659 C   0  0  1  0  0  0  0  0  0  0  0  0
    4.3565   -2.2471    5.2677 O   0  0  0  0  0  0  0  0  0  0  0  0
    4.1146   -1.2562    6.1528 C   0  0  0  0  0  0  0  0  0  0  0  0
    5.0162   -0.0433    5.8935 C   0  0  0  0  0  0  0  0  0  0  0  0
    3.3244   -1.2728    7.0895 O   0  0  0  0  0  0  0  0  0  0  0  0
    4.0924   -4.4263    6.4057 C   0  0  1  0  0  0  0  0  0  0  0  0
    2.9904   -5.3215    7.1183 C   0  0  0  0  0  0  0  0  0  0  0  0
    2.5086   -6.7782    6.7171 C   0  0  1  0  0  0  0  0  0  0  0  0
    2.9091   -7.6396    7.9680 C   0  0  0  0  0  0  0  0  0  0  0  0
    0.9285   -6.9960    6.6345 C   0  0  1  0  0  0  0  0  0  0  0  0
    0.1524   -5.9439    7.2201 O   0  0  0  0  0  0  0  0  0  0  0  0
   -0.1854   -5.9418    8.5289 C   0  0  0  0  0  0  0  0  0  0  0  0
   -0.9965   -4.7157    8.9204 C   0  0  0  0  0  0  0  0  0  0  0  0
    0.0848   -6.8104    9.3562 O   0  0  0  0  0  0  0  0  0  0  0  0
    0.2489   -7.5083    5.3186 C   0  0  0  0  0  0  0  0  0  0  0  0
    3.3409   -7.3313    5.5167 C   0  0  1  0  0  0  0  0  0  0  0  0
    3.3271   -8.7646    5.5437 O   0  0  0  0  0  0  0  0  0  0  0  0
    4.4711   -9.4711    5.4301 C   0  0  0  0  0  0  0  0  0  0  0  0
    4.2343  -10.9675    5.5316 C   0  0  0  0  0  0  0  0  0  0  0  0
    5.5954   -9.0042    5.2448 O   0  0  0  0  0  0  0  0  0  0  0  0
    3.2486   -6.8246    4.0151 C   0  0  1  0  0  0  0  0  0  0  0  0
    2.4143   -7.7396    3.2891 O   0  0  0  0  0  0  0  0  0  0  0  0
    2.8821   -8.7721    2.5429 C   0  0  0  0  0  0  0  0  0  0  0  0
    1.7430   -9.5186    1.8781 C   0  0  0  0  0  0  0  0  0  0  0  0
    4.0667   -9.0768    2.3777 O   0  0  0  0  0  0  0  0  0  0  0  0
    2.9843   -5.2948    3.5292 C   0  0  1  0  0  0  0  0  0  0  0  0
    2.9640   -5.4263    1.9773 C   0  0  0  0  0  0  0  0  0  0  0  0
    4.3726   -5.8583    1.3862 C   0  0  1  0  0  0  0  0  0  0  0  0
    4.4646   -5.6828   -0.1415 C   0  0  0  0  0  0  0  0  0  0  0  0
    5.6770   -5.4085    2.1574 C   0  0  0  0  0  0  0  0  0  0  0  0
    5.5074   -4.6716    3.5384 C   0  0  2  0  0  0  0  0  0  0  0  0
    6.1559   -5.7298    4.9237 S   0  0  0  0  0  0  0  0  0  0  0  0
    7.6826   -5.7234    4.8824 O   0  0  0  0  0  0  0  0  0  0  0  0
    5.6244   -4.8343    6.4738 C   0  0  0  0  0  0  0  0  0  0  0  0
    6.5786   -3.6235    6.5793 C   0  0  0  0  0  0  0  0  0  0  0  0
    5.9900   -5.7656    7.6474 C   0  0  0  0  0  0  0  0  0  0  0  0
    4.0656   -4.1458    3.7676 C   0  0  2  0  0  0  0  0  0  0  0  0
    4.0464   -2.8919    2.7436 C   0  0  0  0  0  0  0  0  0  0  0  0
    4.4704   -3.0920    1.4015 O   0  0  0  0  0  0  0  0  0  0  0  0
    4.7595   -2.0529    0.5577 C   0  0  0  0  0  0  0  0  0  0  0  0
    4.5461   -0.6504    1.0659 C   0  0  0  0  0  0  0  0  0  0  0  0
    5.2083   -2.2163   -0.5795 O   0  0  0  0  0  0  0  0  0  0  0  0
   -0.8862   -8.2184    1.5067 H   0  0  0  0  0  0  0  0  0  0  0  0
   -2.0807   -7.5877    2.6785 H   0  0  0  0  0  0  0  0  0  0  0  0
   -0.8648   -8.7802    3.1741 H   0  0  0  0  0  0  0  0  0  0  0  0
   -1.1824   -6.2344    4.4183 H   0  0  0  0  0  0  0  0  0  0  0  0
   -0.1622   -4.5024    5.0175 H   0  0  0  0  0  0  0  0  0  0  0  0
    1.9883   -2.5506    4.1881 H   0  0  0  0  0  0  0  0  0  0  0  0
    0.6545   -1.6526    8.0392 H   0  0  0  0  0  0  0  0  0  0  0  0
   -0.9800   -2.2652    7.6337 H   0  0  0  0  0  0  0  0  0  0  0  0
   -0.5179   -0.6234    7.2324 H   0  0  0  0  0  0  0  0  0  0  0  0
    4.8854    0.3399    4.8818 H   0  0  0  0  0  0  0  0  0  0  0  0
    6.0609   -0.3191    6.0300 H   0  0  0  0  0  0  0  0  0  0  0  0
    4.7815    0.7564    6.5966 H   0  0  0  0  0  0  0  0  0  0  0  0
    4.1124   -3.6809    7.1955 H   0  0  0  0  0  0  0  0  0  0  0  0
    3.3440   -5.3680    8.1482 H   0  0  0  0  0  0  0  0  0  0  0  0
    2.1301   -4.6975    7.2953 H   0  0  0  0  0  0  0  0  0  0  0  0
    2.5694   -8.6750    7.8854 H   0  0  0  0  0  0  0  0  0  0  0  0
    2.4741   -7.2495    8.8900 H   0  0  0  0  0  0  0  0  0  0  0  0
    3.9833   -7.6920    8.1312 H   0  0  0  0  0  0  0  0  0  0  0  0
    0.7327   -7.8558    7.2804 H   0  0  0  0  0  0  0  0  0  0  0  0
   -1.7961   -4.5482    8.1964 H   0  0  0  0  0  0  0  0  0  0  0  0
   -0.3438   -3.8437    8.9700 H   0  0  0  0  0  0  0  0  0  0  0  0
   -1.4423   -4.8653    9.9052 H   0  0  0  0  0  0  0  0  0  0  0  0
   -0.6774   -7.9929    5.6231 H   0  0  0  0  0  0  0  0  0  0  0  0
    0.8127   -8.3457    4.9232 H   0  0  0  0  0  0  0  0  0  0  0  0
    4.3283   -7.0948    5.8680 H   0  0  0  0  0  0  0  0  0  0  0  0
    3.5284  -11.2901    4.7667 H   0  0  0  0  0  0  0  0  0  0  0  0
    3.8246  -11.2132    6.5109 H   0  0  0  0  0  0  0  0  0  0  0  0
    5.1683  -11.5114    5.3952 H   0  0  0  0  0  0  0  0  0  0  0  0
    4.2418   -7.0617    3.6430 H   0  0  0  0  0  0  0  0  0  0  0  0
    1.1008   -9.9930    2.6276 H   0  0  0  0  0  0  0  0  0  0  0  0
    2.1571  -10.2697    1.2089 H   0  0  0  0  0  0  0  0  0  0  0  0
    1.1435   -8.8019    1.3187 H   0  0  0  0  0  0  0  0  0  0  0  0
    2.1895   -6.1056    1.6507 H   0  0  0  0  0  0  0  0  0  0  0  0
    2.5675   -4.4939    1.5405 H   0  0  0  0  0  0  0  0  0  0  0  0
    4.4128   -6.9401    1.4892 H   0  0  0  0  0  0  0  0  0  0  0  0
    4.3985   -4.6177   -0.4676 H   0  0  0  0  0  0  0  0  0  0  0  0
    3.6455   -6.2516   -0.5706 H   0  0  0  0  0  0  0  0  0  0  0  0
    5.3942   -6.1172   -0.4973 H   0  0  0  0  0  0  0  0  0  0  0  0
    6.3411   -6.2668    2.2930 H   0  0  0  0  0  0  0  0  0  0  0  0
    6.2476   -4.7276    1.5028 H   0  0  0  0  0  0  0  0  0  0  0  0
    6.1796   -3.8335    3.5390 H   0  0  0  0  0  0  0  0  0  0  0  0
    6.2963   -2.9625    7.3948 H   0  0  0  0  0  0  0  0  0  0  0  0
    6.6193   -3.0467    5.6617 H   0  0  0  0  0  0  0  0  0  0  0  0
    7.6122   -3.9224    6.7669 H   0  0  0  0  0  0  0  0  0  0  0  0
    5.5465   -5.4399    8.5877 H   0  0  0  0  0  0  0  0  0  0  0  0
    7.0710   -5.8038    7.8131 H   0  0  0  0  0  0  0  0  0  0  0  0
    5.7102   -6.7985    7.4549 H   0  0  0  0  0  0  0  0  0  0  0  0
    3.0908   -2.3870    2.7196 H   0  0  0  0  0  0  0  0  0  0  0  0
    4.7551   -2.1573    3.1070 H   0  0  0  0  0  0  0  0  0  0  0  0
    5.2400   -0.4312    1.8796 H   0  0  0  0  0  0  0  0  0  0  0  0
    3.5171   -0.5010    1.3834 H   0  0  0  0  0  0  0  0  0  0  0  0
    4.7233    0.0955    0.2693 H   0  0  0  0  0  0  0  0  0  0  0  0
  1  2  1  0
  1 53  1  0
  1 54  1  0
  1 55  1  0
  2  3  1  0
  3 25  1  0
  3  4  1  0
  3 56  1  1
  4  5  2  3
  4 57  1  0
  5 36  1  0
  5  6  1  0
  6  7  1  0
  6 11  1  0
  6 58  1  6
  7  8  1  0
  8  9  1  0
  8 10  2  0
  9 59  1  0
  9 60  1  0
  9 61  1  0
 11 47  1  0
 11 12  1  1
 11 16  1  0
 12 13  1  0
 13 14  1  0
 13 15  2  0
 14 62  1  0
 14 63  1  0
 14 64  1  0
 16 44  1  0
 16 17  1  0
 16 65  1  1
 17 18  1  0
 17 66  1  0
 17 67  1  0
 18 19  1  1
 18 20  1  0
 18 26  1  0
 19 68  1  0
 19 69  1  0
 19 70  1  0
 20 21  1  0
 20 25  1  0
 20 71  1  1
 21 22  1  0
 22 23  1  0
 22 24  2  0
 23 72  1  0
 23 73  1  0
 23 74  1  0
 25 75  1  0
 25 76  1  0
 26 27  1  0
 26 31  1  0
 26 77  1  1
 27 28  1  0
 28 29  1  0
 28 30  2  0
 29 78  1  0
 29 79  1  0
 29 80  1  0
 31 32  1  0
 31 36  1  0
 31 81  1  6
 32 33  1  0
 33 34  1  0
 33 35  2  0
 34 82  1  0
 34 83  1  0
 34 84  1  0
 36 47  1  0
 36 37  1  6
 37 38  1  0
 37 85  1  0
 37 86  1  0
 38 39  1  0
 38 40  1  0
 38 87  1  6
 39 88  1  0
 39 89  1  0
 39 90  1  0
 40 41  1  0
 40 91  1  0
 40 92  1  0
 41 42  1  0
 41 47  1  0
 41 93  1  6
 42 43  2  0
 42 44  1  1
 44 45  1  0
 44 46  1  0
 45 94  1  0
 45 95  1  0
 45 96  1  0
 46 97  1  0
 46 98  1  0
 46 99  1  0
 47 48  1  6
 48 49  1  0
 48100  1  0
 48101  1  0
 49 50  1  0
 50 51  1  0
 50 52  2  0
 51102  1  0
 51103  1  0
 51104  1  0
M  END
>  <i_m_ct_stereo_status>  (62) 
1

>  <s_m_source_file>  (62) 
/var/tmp/pbs.5075288.sched01/tmpeqwi9iw0/66la8jmv2o.sdf

>  <i_m_source_file_index>  (62) 
34

>  <i_lp_mmshare_version>  (62) 
48012

>  <i_f3d_flags>  (62) 
0

>  <s_epik_input>  (62) 
W0NAXTEyM0MvND1bQ0hdXFtDQEBIXShPW0NIM10pW0NIMl1bQ0BIXShPQyg9TylbQ0gzXSlbQ0BAXShbQ0gzXSkoW0NAQEhdKE9DKD1PKVtDSDNdKVtDQEhdMU9DKD1PKVtDSDNdKVtDSDJdW0NAQEhdNVtDQF0oT0MoPU8pW0NIM10pKFtDQEBIXTRPQyg9TylbQ0gzXSlbQ0BdMyhbQ0BIXShbQ0gyXVtDQEBIXShbQ0gyXTIpW0NIM10pW1MrXShbTy1dKUM1KFtDSDNdKVtDSDNdKVtDSDJdT0MoPU8pW0NIM10=

>  <s_epik_cmdline>  (62) 
J2VwaWtfcHl0aG9uJywgJy1waHQnLCAnMi4wJywgJy1waCcsICc3LjAnLCAnLXRuJywgJzgnLCAnLW1hJywgJzIwMCcsICctaW1hZScsICc8aW5maWxlLm1hZT4nLCAnLW9tYWUnLCAnPG91dGZpbGUubWFlPic=

>  <r_lp_tautomer_probability>  (62) 
1

>  <r_epik_Ionization_Penalty>  (62) 
9.48798e-13

>  <r_epik_Ionization_Penalty_Charging>  (62) 
0

>  <r_epik_Ionization_Penalty_Neutral>  (62) 
9.48798e-13

>  <r_epik_State_Penalty>  (62) 
-0

>  <r_epik_Charging_Adjusted_Penalty>  (62) 
0

>  <i_epik_Tot_Q>  (62) 
0

>  <i_epik_Tot_abs_Q>  (62) 
2

>  <s_epik_Chemistry_Notes>  (62) 
This compound has an ester and may undergo hydrolysis at high or low pH.

>  <s_lp_Force_Field>  (62) 
OPLS3e

>  <r_lp_Energy>  (62) 
140.096

>  <b_lp_Chiralities_Consistent>  (62) 
1

>  <s_lp_Variant>  (62) 
45:0-1

>  <s_i_glide_gridfile>  (62) 
pfpi4k_grid

>  <i_i_glide_lignum>  (62) 
34

>  <i_i_glide_rotatable_bonds>  (62) 
14

>  <r_i_docking_score>  (62) 
-2.47268

>  <r_i_glide_ligand_efficiency>  (62) 
-0.0475516

>  <r_i_glide_ligand_efficiency_sa>  (62) 
-0.177487

>  <r_i_glide_ligand_efficiency_ln>  (62) 
-0.499407

>  <r_i_glide_gscore>  (62) 
-2.47268

>  <r_i_glide_lipo>  (62) 
-0.30613

>  <r_i_glide_hbond>  (62) 
-0.406937

>  <r_i_glide_metal>  (62) 
-0

>  <r_i_glide_rewards>  (62) 
-0.0159246

>  <r_i_glide_evdw>  (62) 
-28.5119

>  <r_i_glide_ecoul>  (62) 
-2.33794

>  <r_i_glide_erotb>  (62) 
0.0741253

>  <r_i_glide_esite>  (62) 
-0.0415284

>  <r_i_glide_emodel>  (62) 
-26.1585

>  <r_i_glide_energy>  (62) 
-30.8499

>  <r_i_glide_einternal>  (62) 
16.1364

>  <r_i_glide_intrahb_reward>  (62) 
-0

>  <i_i_glide_confnum>  (62) 
12

>  <i_i_glide_posenum>  (62) 
19

>  <r_i_glide_eff_state_penalty>  (62) 
0

>  <ligand_id>  (62) 
45

>  <original_smiles>  (62) 
COC1C=C2C(OC(C)=O)C3(OC(C)=O)C4CC(C)(C(OC(C)=O)C1)C(OC(C)=O)C(OC(C)=O)C21CC(C)CC([S+]([O-])C4(C)C)C13COC(C)=O

>  <smiles>  (62) 
[H]C1=C2C([H])(OC(=O)C([H])([H])[H])C3(OC(=O)C([H])([H])[H])C4([H])C([H])([H])C(C([H])([H])[H])(C([H])(OC(=O)C([H])([H])[H])C([H])([H])C1([H])OC([H])([H])[H])C([H])(OC(=O)C([H])([H])[H])C([H])(OC(=O)C([H])([H])[H])C21C([H])([H])C([H])(C([H])([H])[H])C([H])([H])C([H])(S(=O)C4(C([H])([H])[H])C([H])([H])[H])C31C([H])([H])OC(=O)C([H])([H])[H]

$$$$
47:0:0
     RDKit          3D

124133  0  0  1  0  0  0  0  0999 V2000
    3.9569  -10.7960    5.8811 C   0  0  0  0  0  0  0  0  0  0  0  0
    2.7795  -10.1486    5.9857 C   0  0  0  0  0  0  0  0  0  0  0  0
    2.4382   -9.5022    7.3296 C   0  0  0  0  0  0  0  0  0  0  0  0
    3.0540   -8.0964    7.5756 C   0  0  0  0  0  0  0  0  0  0  0  0
    2.8291   -7.0794    6.4240 C   0  0  1  0  0  0  0  0  0  0  0  0
    1.3516   -6.7467    6.1308 C   0  0  1  0  0  0  0  0  0  0  0  0
    0.3606   -6.8567    7.3226 C   0  0  0  0  0  0  0  0  0  0  0  0
    1.4570   -5.3316    5.8952 O   0  0  0  0  0  0  0  0  0  0  0  0
    2.4525   -4.7423    6.7619 C   0  0  1  0  0  0  0  0  0  0  0  0
    3.6020   -5.6990    6.3476 C   0  0  2  0  0  0  0  0  0  0  0  0
    4.2380   -5.4693    4.8904 C   0  0  1  0  0  0  0  0  0  0  0  0
    5.5812   -4.6963    4.7159 C   0  0  0  0  0  0  0  0  0  0  0  0
    6.4538   -4.4997    5.9443 C   0  0  0  0  0  0  0  0  0  0  0  0
    5.6724   -4.0484    7.1862 C   0  0  2  0  0  0  0  0  0  0  0  0
    4.8735   -5.6296    7.6822 S   0  0  0  0  0  0  0  0  0  0  0  0
    4.2776   -5.4991    9.0805 O   0  0  0  0  0  0  0  0  0  0  0  0
    4.8918   -2.6355    7.2244 C   0  0  2  0  0  0  0  0  0  0  0  0
    6.1351   -1.7582    6.7596 C   0  0  0  0  0  0  0  0  0  0  0  0
    4.1724   -2.3246    8.6033 C   0  0  1  0  0  0  0  0  0  0  0  0
    4.7579   -3.0098    9.6965 O   0  0  0  0  0  0  0  0  0  0  0  0
    4.5049   -0.8615    8.8928 C   0  0  0  0  0  0  0  0  0  0  0  0
    4.2690   -0.1049    7.7076 O   0  0  0  0  0  0  0  0  0  0  0  0
    3.3589   -0.5753    6.7409 C   0  0  2  0  0  0  0  0  0  0  0  0
    3.6417    0.1440    5.5636 O   0  0  0  0  0  0  0  0  0  0  0  0
    1.9779   -0.0844    7.3736 C   0  0  1  0  0  0  0  0  0  0  0  0
    2.1730    1.2685    8.1532 C   0  0  0  0  0  0  0  0  0  0  0  0
    0.8903    0.3305    6.2874 C   0  0  1  0  0  0  0  0  0  0  0  0
   -0.4157    0.2839    6.8263 O   0  0  0  0  0  0  0  0  0  0  0  0
    1.0658    1.6624    5.5296 C   0  0  0  0  0  0  0  0  0  0  0  0
    0.6757    0.8703    4.2907 C   0  0  1  0  0  0  0  0  0  0  0  0
    1.4808    1.1345    3.0090 C   0  0  0  0  0  0  0  0  0  0  0  0
    1.4560    2.5214    2.7344 O   0  0  0  0  0  0  0  0  0  0  0  0
    1.0105   -0.3670    5.0061 O   0  0  0  0  0  0  0  0  0  0  0  0
    1.7018   -1.1841    8.5015 C   0  0  1  0  0  0  0  0  0  0  0  0
    0.3379   -1.3235    8.8969 O   0  0  0  0  0  0  0  0  0  0  0  0
    2.5560   -2.5532    8.4374 C   0  0  2  0  0  0  0  0  0  0  0  0
    2.0021   -3.4205    9.6103 C   0  0  0  0  0  0  0  0  0  0  0  0
    2.4190   -3.1231    6.9599 C   0  0  2  0  0  0  0  0  0  0  0  0
    1.2068   -2.6992    6.2825 O   0  0  0  0  0  0  0  0  0  0  0  0
   -0.0793   -3.0672    6.5961 C   0  0  0  0  0  0  0  0  0  0  0  0
   -1.1397   -2.3485    5.7790 C   0  0  0  0  0  0  0  0  0  0  0  0
   -0.4245   -3.8675    7.4603 O   0  0  0  0  0  0  0  0  0  0  0  0
    3.5931   -2.2162    6.4162 C   0  0  2  0  0  0  0  0  0  0  0  0
    3.6886   -2.4479    5.0333 O   0  0  0  0  0  0  0  0  0  0  0  0
    4.4702   -6.7055    4.2044 O   0  0  0  0  0  0  0  0  0  0  0  0
    4.2783   -6.7606    2.8107 C   0  0  1  0  0  0  0  0  0  0  0  0
    5.4641   -6.5280    2.1199 O   0  0  0  0  0  0  0  0  0  0  0  0
    6.2304   -7.6914    2.1144 C   0  0  1  0  0  0  0  0  0  0  0  0
    7.0739   -7.7654    3.2442 O   0  0  0  0  0  0  0  0  0  0  0  0
    5.2190   -8.8637    2.0533 C   0  0  1  0  0  0  0  0  0  0  0  0
    5.5836   -9.9658    2.8764 O   0  0  0  0  0  0  0  0  0  0  0  0
    3.8756   -8.1968    2.4203 C   0  0  2  0  0  0  0  0  0  0  0  0
    2.9989   -8.1286    1.3162 O   0  0  0  0  0  0  0  0  0  0  0  0
    3.2705   -8.7572    3.5396 O   0  0  0  0  0  0  0  0  0  0  0  0
    2.5042   -9.9432    3.4449 C   0  0  0  0  0  0  0  0  0  0  0  0
    1.7682  -10.1188    4.8063 C   0  0  1  0  0  0  0  0  0  0  0  0
    1.1019  -11.5136    4.7289 C   0  0  0  0  0  0  0  0  0  0  0  0
    0.5994   -9.0630    4.8860 C   0  0  1  0  0  0  0  0  0  0  0  0
   -0.3741   -9.3867    5.8696 O   0  0  0  0  0  0  0  0  0  0  0  0
    0.8530   -7.4918    4.8348 C   0  0  1  0  0  0  0  0  0  0  0  0
   -0.3866   -6.9399    4.4023 O   0  0  0  0  0  0  0  0  0  0  0  0
   -0.7806   -7.0702    3.1352 C   0  0  0  0  0  0  0  0  0  0  0  0
   -2.0899   -7.8361    3.0343 C   0  0  0  0  0  0  0  0  0  0  0  0
   -0.1836   -6.6651    2.1317 O   0  0  0  0  0  0  0  0  0  0  0  0
    4.2537  -11.3142    4.9815 H   0  0  0  0  0  0  0  0  0  0  0  0
    4.6397  -10.8331    6.7170 H   0  0  0  0  0  0  0  0  0  0  0  0
    1.3743   -9.5476    7.5105 H   0  0  0  0  0  0  0  0  0  0  0  0
    2.8221  -10.1705    8.1014 H   0  0  0  0  0  0  0  0  0  0  0  0
    2.7035   -7.7014    8.5298 H   0  0  0  0  0  0  0  0  0  0  0  0
    4.1234   -8.2651    7.7032 H   0  0  0  0  0  0  0  0  0  0  0  0
    3.1660   -7.6885    5.6148 H   0  0  0  0  0  0  0  0  0  0  0  0
    0.1534   -7.8640    7.6613 H   0  0  0  0  0  0  0  0  0  0  0  0
   -0.5906   -6.4310    7.0097 H   0  0  0  0  0  0  0  0  0  0  0  0
    0.6508   -6.3200    8.2226 H   0  0  0  0  0  0  0  0  0  0  0  0
    2.2018   -5.0772    7.7575 H   0  0  0  0  0  0  0  0  0  0  0  0
    3.4729   -4.9335    4.3270 H   0  0  0  0  0  0  0  0  0  0  0  0
    6.2197   -5.2095    4.0021 H   0  0  0  0  0  0  0  0  0  0  0  0
    5.4318   -3.7486    4.2152 H   0  0  0  0  0  0  0  0  0  0  0  0
    6.9550   -5.4456    6.1620 H   0  0  0  0  0  0  0  0  0  0  0  0
    7.2820   -3.8308    5.7159 H   0  0  0  0  0  0  0  0  0  0  0  0
    6.4351   -3.9611    7.9621 H   0  0  0  0  0  0  0  0  0  0  0  0
    6.1163   -0.6767    6.7748 H   0  0  0  0  0  0  0  0  0  0  0  0
    6.2984   -1.9310    5.7005 H   0  0  0  0  0  0  0  0  0  0  0  0
    7.0493   -1.9944    7.3052 H   0  0  0  0  0  0  0  0  0  0  0  0
    4.6201   -3.9474    9.5739 H   0  0  0  0  0  0  0  0  0  0  0  0
    3.9931   -0.4636    9.7617 H   0  0  0  0  0  0  0  0  0  0  0  0
    5.5570   -0.7261    9.1368 H   0  0  0  0  0  0  0  0  0  0  0  0
    2.9108    0.0151    4.9751 H   0  0  0  0  0  0  0  0  0  0  0  0
    1.2015    1.6234    8.4998 H   0  0  0  0  0  0  0  0  0  0  0  0
    2.6132    2.0512    7.5388 H   0  0  0  0  0  0  0  0  0  0  0  0
    2.7904    1.2145    9.0441 H   0  0  0  0  0  0  0  0  0  0  0  0
   -0.9910    0.5130    6.1148 H   0  0  0  0  0  0  0  0  0  0  0  0
    0.3520    2.4339    5.8091 H   0  0  0  0  0  0  0  0  0  0  0  0
    2.0893    2.0462    5.4553 H   0  0  0  0  0  0  0  0  0  0  0  0
   -0.4062    0.9244    4.0989 H   0  0  0  0  0  0  0  0  0  0  0  0
    2.5280    0.8613    3.1404 H   0  0  0  0  0  0  0  0  0  0  0  0
    1.1135    0.5636    2.1556 H   0  0  0  0  0  0  0  0  0  0  0  0
    0.7220    2.7450    2.1736 H   0  0  0  0  0  0  0  0  0  0  0  0
    2.0037   -0.7523    9.4504 H   0  0  0  0  0  0  0  0  0  0  0  0
    0.3303   -1.7156    9.7597 H   0  0  0  0  0  0  0  0  0  0  0  0
    0.9684   -3.7187    9.4675 H   0  0  0  0  0  0  0  0  0  0  0  0
    2.0481   -2.8555   10.5416 H   0  0  0  0  0  0  0  0  0  0  0  0
    2.5380   -4.3358    9.8056 H   0  0  0  0  0  0  0  0  0  0  0  0
   -0.7411   -1.9516    4.8451 H   0  0  0  0  0  0  0  0  0  0  0  0
   -1.5445   -1.5411    6.3768 H   0  0  0  0  0  0  0  0  0  0  0  0
   -1.9498   -3.0352    5.5550 H   0  0  0  0  0  0  0  0  0  0  0  0
    2.9001   -2.1160    4.6306 H   0  0  0  0  0  0  0  0  0  0  0  0
    3.5185   -6.0375    2.5115 H   0  0  0  0  0  0  0  0  0  0  0  0
    6.8851   -7.6912    1.2444 H   0  0  0  0  0  0  0  0  0  0  0  0
    7.7473   -7.1117    3.1489 H   0  0  0  0  0  0  0  0  0  0  0  0
    5.1617   -9.2166    1.0203 H   0  0  0  0  0  0  0  0  0  0  0  0
    4.9942  -10.6790    2.6855 H   0  0  0  0  0  0  0  0  0  0  0  0
    2.8487   -9.0092    1.0011 H   0  0  0  0  0  0  0  0  0  0  0  0
    1.7755   -9.8769    2.6368 H   0  0  0  0  0  0  0  0  0  0  0  0
    3.1337  -10.7974    3.2005 H   0  0  0  0  0  0  0  0  0  0  0  0
    0.3634  -11.5887    3.9287 H   0  0  0  0  0  0  0  0  0  0  0  0
    0.5843  -11.7553    5.6570 H   0  0  0  0  0  0  0  0  0  0  0  0
    1.8392  -12.2982    4.5639 H   0  0  0  0  0  0  0  0  0  0  0  0
    0.0743   -9.3138    3.9649 H   0  0  0  0  0  0  0  0  0  0  0  0
   -1.0146  -10.0118    5.5091 H   0  0  0  0  0  0  0  0  0  0  0  0
    1.5729   -7.2642    4.0478 H   0  0  0  0  0  0  0  0  0  0  0  0
   -2.7599   -7.5094    3.8289 H   0  0  0  0  0  0  0  0  0  0  0  0
   -1.9189   -8.9065    3.1585 H   0  0  0  0  0  0  0  0  0  0  0  0
   -2.5851   -7.6874    2.0832 H   0  0  0  0  0  0  0  0  0  0  0  0
  1  2  2  0
  1 65  1  0
  1 66  1  0
  2 56  1  0
  2  3  1  0
  3  4  1  0
  3 67  1  0
  3 68  1  0
  4  5  1  0
  4 69  1  0
  4 70  1  0
  5 10  1  0
  5  6  1  0
  5 71  1  6
  6 60  1  0
  6  7  1  1
  6  8  1  0
  7 72  1  0
  7 73  1  0
  7 74  1  0
  8  9  1  0
  9 38  1  0
  9 10  1  0
  9 75  1  1
 10 15  1  1
 10 11  1  0
 11 12  1  0
 11 45  1  0
 11 76  1  6
 12 13  1  0
 12 77  1  0
 12 78  1  0
 13 14  1  0
 13 79  1  0
 13 80  1  0
 15 14  1  6
 14 17  1  0
 14 81  1  1
 15 16  2  0
 17 43  1  0
 17 18  1  6
 17 19  1  0
 18 82  1  0
 18 83  1  0
 18 84  1  0
 19 36  1  0
 19 20  1  1
 19 21  1  0
 20 85  1  0
 21 22  1  0
 21 86  1  0
 21 87  1  0
 22 23  1  0
 23 43  1  0
 23 24  1  6
 23 25  1  0
 24 88  1  0
 25 26  1  1
 25 27  1  0
 25 34  1  0
 26 89  1  0
 26 90  1  0
 26 91  1  0
 27 33  1  0
 27 28  1  1
 27 29  1  0
 28 92  1  0
 29 30  1  0
 29 93  1  0
 29 94  1  0
 30 31  1  0
 30 33  1  0
 30 95  1  6
 31 32  1  0
 31 96  1  0
 31 97  1  0
 32 98  1  0
 34 35  1  0
 34 36  1  0
 34 99  1  1
 35100  1  0
 36 37  1  1
 36 38  1  0
 37101  1  0
 37102  1  0
 37103  1  0
 38 39  1  6
 38 43  1  0
 39 40  1  0
 40 41  1  0
 40 42  2  0
 41104  1  0
 41105  1  0
 41106  1  0
 43 44  1  6
 44107  1  0
 45 46  1  0
 46 52  1  0
 46 47  1  0
 46108  1  6
 47 48  1  0
 48 49  1  0
 48 50  1  0
 48109  1  6
 49110  1  0
 50 51  1  0
 50 52  1  0
 50111  1  6
 51112  1  0
 52 53  1  6
 52 54  1  0
 53113  1  0
 54 55  1  0
 55 56  1  0
 55114  1  0
 55115  1  0
 56 57  1  6
 56 58  1  0
 57116  1  0
 57117  1  0
 57118  1  0
 58 59  1  0
 58 60  1  0
 58119  1  6
 59120  1  0
 60 61  1  0
 60121  1  6
 61 62  1  0
 62 63  1  0
 62 64  2  0
 63122  1  0
 63123  1  0
 63124  1  0
M  END
>  <i_m_ct_stereo_status>  (63) 
1

>  <s_m_source_file>  (63) 
/var/tmp/pbs.5075288.sched01/tmpeqwi9iw0/66la8jmv2o.sdf

>  <i_m_source_file_index>  (63) 
37

>  <i_lp_mmshare_version>  (63) 
48012

>  <i_f3d_flags>  (63) 
0

>  <s_epik_input>  (63) 
W0NIM11DKD1PKU9bQ0BASF0xW0NASF0oW09IXSlbQ0BdKFtDSDNdKShDKD1bQ0gyXSlbQ0gyXVtDSDJdMilbQ0gyXU9bQ0BdKFtPSF0pKFtDQEhdKFtPSF0pW0NAQEhdKE8zKVtPSF0pW0NASF0zT1tDQEBIXTRbQ0gyXVtDSDJdW0NASF0oW1MrXTVbTy1dKVtDQF0oW0NIM10pKFtDQF02KFtPSF0pW0NAXTcoW0NIM10pW0NAXTgoT0MoPU8pW0NIM10pW0NASF05T1tDQEBdMShbQ0BIXTJbQ0BdNDU5KVtDSDNdKVtDQF04KFtPSF0pW0NAXShbT0hdKShPW0NIMl02KVtDQF0oW0NIM10pKFtDQEhdN1tPSF0pW0NAQF0xKFtPSF0pW0NIMl1bQ0BIXShPMSlbQ0gyXVtPSF0=

>  <s_epik_cmdline>  (63) 
J2VwaWtfcHl0aG9uJywgJy1waHQnLCAnMi4wJywgJy1waCcsICc3LjAnLCAnLXRuJywgJzgnLCAnLW1hJywgJzIwMCcsICctaW1hZScsICc8aW5maWxlLm1hZT4nLCAnLW9tYWUnLCAnPG91dGZpbGUubWFlPic=

>  <r_lp_tautomer_probability>  (63) 
1

>  <r_epik_Ionization_Penalty>  (63) 
8.16394e-05

>  <r_epik_Ionization_Penalty_Charging>  (63) 
0

>  <r_epik_Ionization_Penalty_Neutral>  (63) 
8.16394e-05

>  <r_epik_State_Penalty>  (63) 
-0

>  <r_epik_Charging_Adjusted_Penalty>  (63) 
0

>  <i_epik_Tot_Q>  (63) 
0

>  <i_epik_Tot_abs_Q>  (63) 
2

>  <s_epik_Chemistry_Notes>  (63) 
This compound has an ester and may undergo hydrolysis at high or low pH. This compound contains an acetal/aminal-like group ( X-CH(R)-Y where X, Y are N, S, or O) that may be acid/base labile, releasing an aldehyde.

>  <s_lp_Force_Field>  (63) 
OPLS3e

>  <r_lp_Energy>  (63) 
230.607

>  <b_lp_Chiralities_Consistent>  (63) 
1

>  <s_lp_Variant>  (63) 
47:0-1

>  <s_i_glide_gridfile>  (63) 
pfpi4k_grid

>  <i_i_glide_lignum>  (63) 
37

>  <i_i_glide_rotatable_bonds>  (63) 
16

>  <r_i_docking_score>  (63) 
-4.64569

>  <r_i_glide_ligand_efficiency>  (63) 
-0.0725888

>  <r_i_glide_ligand_efficiency_sa>  (63) 
-0.290355

>  <r_i_glide_ligand_efficiency_ln>  (63) 
-0.900522

>  <r_i_glide_gscore>  (63) 
-4.64569

>  <r_i_glide_lipo>  (63) 
-0.0407557

>  <r_i_glide_hbond>  (63) 
-0.228693

>  <r_i_glide_metal>  (63) 
-0

>  <r_i_glide_rewards>  (63) 
-1.07256

>  <r_i_glide_evdw>  (63) 
-33.6499

>  <r_i_glide_ecoul>  (63) 
-11.168

>  <r_i_glide_erotb>  (63) 
0.101686

>  <r_i_glide_esite>  (63) 
-0.128522

>  <r_i_glide_emodel>  (63) 
-55.4502

>  <r_i_glide_energy>  (63) 
-44.818

>  <r_i_glide_einternal>  (63) 
26.4422

>  <r_i_glide_intrahb_reward>  (63) 
-1

>  <i_i_glide_confnum>  (63) 
5

>  <i_i_glide_posenum>  (63) 
1

>  <r_i_glide_eff_state_penalty>  (63) 
0

>  <ligand_id>  (63) 
47

>  <original_smiles>  (63) 
C=C1CCC2C3(C)OC4C25C(CCC([S+]5[O-])C2(C)C5(O)COC6(O)C(C)(C7(O)CC(CO)O7)C(O)C5(C)C4(OC(C)=O)C62O)OC2OC(O)C(O)C2(O)OCC1(C)C(O)C3OC(C)=O

>  <smiles>  (63) 
[H]OC([H])([H])C1([H])OC(O[H])(C2(C([H])([H])[H])C([H])(O[H])C3(C([H])([H])[H])C4(OC(=O)C([H])([H])[H])C5([H])OC6(C([H])([H])[H])C([H])(OC(=O)C([H])([H])[H])C([H])(O[H])C7(C([H])([H])[H])C(=C([H])[H])C([H])([H])C([H])([H])C6([H])C56S(=O)C([H])(C([H])([H])C([H])([H])C6([H])OC5([H])OC([H])(O[H])C([H])(O[H])C5(O[H])OC7([H])[H])C5(C([H])([H])[H])C4(O[H])C2(O[H])OC([H])([H])C35O[H])C1([H])[H]

$$$$
47:0:1
     RDKit          3D

124133  0  0  1  0  0  0  0  0999 V2000
    5.6219   -8.4202    4.7227 C   0  0  0  0  0  0  0  0  0  0  0  0
    4.4430   -8.1349    5.3063 C   0  0  0  0  0  0  0  0  0  0  0  0
    4.4636   -7.3630    6.6236 C   0  0  0  0  0  0  0  0  0  0  0  0
    4.6013   -5.8169    6.4936 C   0  0  0  0  0  0  0  0  0  0  0  0
    3.5982   -5.1467    5.5139 C   0  0  1  0  0  0  0  0  0  0  0  0
    2.1092   -5.3231    5.8817 C   0  0  1  0  0  0  0  0  0  0  0  0
    1.7518   -5.4792    7.3907 C   0  0  0  0  0  0  0  0  0  0  0  0
    1.6285   -4.0171    5.5189 O   0  0  0  0  0  0  0  0  0  0  0  0
    2.6076   -3.0037    5.8436 C   0  0  1  0  0  0  0  0  0  0  0  0
    3.7455   -3.6460    5.0128 C   0  0  2  0  0  0  0  0  0  0  0  0
    3.6222   -3.5402    3.4135 C   0  0  1  0  0  0  0  0  0  0  0  0
    4.3383   -2.4351    2.5813 C   0  0  0  0  0  0  0  0  0  0  0  0
    5.4410   -1.7223    3.2786 C   0  0  0  0  0  0  0  0  0  0  0  0
    5.2074   -1.3283    4.7463 C   0  0  2  0  0  0  0  0  0  0  0  0
    5.3341   -2.9441    5.6226 S   0  0  0  0  0  0  0  0  0  0  0  0
    5.3366   -2.7088    7.1212 O   0  0  0  0  0  0  0  0  0  0  0  0
    4.1075   -0.2359    5.1001 C   0  0  2  0  0  0  0  0  0  0  0  0
    4.6925    0.8423    4.0979 C   0  0  0  0  0  0  0  0  0  0  0  0
    3.9579    0.1128    6.6293 C   0  0  1  0  0  0  0  0  0  0  0  0
    5.1320   -0.1473    7.3788 O   0  0  0  0  0  0  0  0  0  0  0  0
    3.8643    1.6416    6.6631 C   0  0  0  0  0  0  0  0  0  0  0  0
    2.9171    2.0565    5.6913 O   0  0  0  0  0  0  0  0  0  0  0  0
    1.9310    1.1690    5.2206 C   0  0  2  0  0  0  0  0  0  0  0  0
    1.5004    1.7005    3.9850 O   0  0  0  0  0  0  0  0  0  0  0  0
    0.8279    1.3307    6.3557 C   0  0  1  0  0  0  0  0  0  0  0  0
    0.8449    2.8040    6.9175 C   0  0  0  0  0  0  0  0  0  0  0  0
   -0.6624    1.1345    5.8326 C   0  0  1  0  0  0  0  0  0  0  0  0
   -1.5528    0.6905    6.8436 O   0  0  0  0  0  0  0  0  0  0  0  0
   -1.3006    2.3543    5.1412 C   0  0  0  0  0  0  0  0  0  0  0  0
   -1.7729    1.3604    4.1180 C   0  0  1  0  0  0  0  0  0  0  0  0
   -1.6929    1.7970    2.6563 C   0  0  0  0  0  0  0  0  0  0  0  0
   -2.5222    2.9432    2.5422 O   0  0  0  0  0  0  0  0  0  0  0  0
   -0.7806    0.3954    4.5713 O   0  0  0  0  0  0  0  0  0  0  0  0
    1.4301    0.4672    7.5586 C   0  0  1  0  0  0  0  0  0  0  0  0
    0.4714    0.0582    8.5211 O   0  0  0  0  0  0  0  0  0  0  0  0
    2.5890   -0.5900    7.1988 C   0  0  2  0  0  0  0  0  0  0  0  0
    2.9062   -1.3277    8.5343 C   0  0  0  0  0  0  0  0  0  0  0  0
    2.0897   -1.4568    5.9615 C   0  0  2  0  0  0  0  0  0  0  0  0
    0.6506   -1.5699    5.8440 O   0  0  0  0  0  0  0  0  0  0  0  0
   -0.1615   -2.2905    6.6689 C   0  0  0  0  0  0  0  0  0  0  0  0
   -1.4895   -2.6448    6.0421 C   0  0  0  0  0  0  0  0  0  0  0  0
    0.1245   -2.7406    7.7825 O   0  0  0  0  0  0  0  0  0  0  0  0
    2.5552   -0.3656    4.9202 C   0  0  2  0  0  0  0  0  0  0  0  0
    2.1766   -0.8257    3.6465 O   0  0  0  0  0  0  0  0  0  0  0  0
    4.0225   -4.7615    2.7809 O   0  0  0  0  0  0  0  0  0  0  0  0
    3.3074   -5.1359    1.6307 C   0  0  1  0  0  0  0  0  0  0  0  0
    3.9458   -4.7153    0.4752 O   0  0  0  0  0  0  0  0  0  0  0  0
    4.9946   -5.5863    0.1916 C   0  0  1  0  0  0  0  0  0  0  0  0
    6.1753   -5.2104    0.8585 O   0  0  0  0  0  0  0  0  0  0  0  0
    4.5022   -6.9819    0.6415 C   0  0  1  0  0  0  0  0  0  0  0  0
    5.5194   -7.7295    1.2868 O   0  0  0  0  0  0  0  0  0  0  0  0
    3.2611   -6.6695    1.4990 C   0  0  2  0  0  0  0  0  0  0  0  0
    2.0110   -7.0166    0.9133 O   0  0  0  0  0  0  0  0  0  0  0  0
    3.4246   -7.1620    2.8045 O   0  0  0  0  0  0  0  0  0  0  0  0
    3.1447   -8.5075    3.1360 C   0  0  0  0  0  0  0  0  0  0  0  0
    3.1081   -8.6305    4.6921 C   0  0  1  0  0  0  0  0  0  0  0  0
    3.0016  -10.1486    4.9971 C   0  0  0  0  0  0  0  0  0  0  0  0
    1.7770   -7.9632    5.2017 C   0  0  1  0  0  0  0  0  0  0  0  0
    1.4408   -8.3642    6.5154 O   0  0  0  0  0  0  0  0  0  0  0  0
    1.4545   -6.4251    4.9771 C   0  0  1  0  0  0  0  0  0  0  0  0
    0.0413   -6.3680    5.0901 O   0  0  0  0  0  0  0  0  0  0  0  0
   -0.7176   -6.6682    4.0370 C   0  0  0  0  0  0  0  0  0  0  0  0
   -2.1149   -7.0725    4.4574 C   0  0  0  0  0  0  0  0  0  0  0  0
   -0.3647   -6.6750    2.8539 O   0  0  0  0  0  0  0  0  0  0  0  0
    5.6959   -8.9915    3.8101 H   0  0  0  0  0  0  0  0  0  0  0  0
    6.5447   -8.0875    5.1688 H   0  0  0  0  0  0  0  0  0  0  0  0
    3.6382   -7.6693    7.2516 H   0  0  0  0  0  0  0  0  0  0  0  0
    5.3315   -7.7227    7.1786 H   0  0  0  0  0  0  0  0  0  0  0  0
    4.5445   -5.3587    7.4789 H   0  0  0  0  0  0  0  0  0  0  0  0
    5.6178   -5.6407    6.1464 H   0  0  0  0  0  0  0  0  0  0  0  0
    3.7741   -5.7777    4.6716 H   0  0  0  0  0  0  0  0  0  0  0  0
    2.0807   -6.4116    7.8305 H   0  0  0  0  0  0  0  0  0  0  0  0
    0.6723   -5.4472    7.5235 H   0  0  0  0  0  0  0  0  0  0  0  0
    2.1689   -4.7102    8.0366 H   0  0  0  0  0  0  0  0  0  0  0  0
    2.9100   -3.1951    6.8622 H   0  0  0  0  0  0  0  0  0  0  0  0
    2.5618   -3.3904    3.2314 H   0  0  0  0  0  0  0  0  0  0  0  0
    4.8369   -2.8861    1.7219 H   0  0  0  0  0  0  0  0  0  0  0  0
    3.6769   -1.7069    2.1350 H   0  0  0  0  0  0  0  0  0  0  0  0
    6.1568   -2.5323    3.2555 H   0  0  0  0  0  0  0  0  0  0  0  0
    5.9030   -0.9259    2.6831 H   0  0  0  0  0  0  0  0  0  0  0  0
    6.1394   -0.8814    5.1011 H   0  0  0  0  0  0  0  0  0  0  0  0
    4.3149    1.8533    4.0822 H   0  0  0  0  0  0  0  0  0  0  0  0
    4.4878    0.5477    3.0763 H   0  0  0  0  0  0  0  0  0  0  0  0
    5.7735    0.9522    4.2113 H   0  0  0  0  0  0  0  0  0  0  0  0
    5.2632   -1.0976    7.3962 H   0  0  0  0  0  0  0  0  0  0  0  0
    3.6484    2.0477    7.6464 H   0  0  0  0  0  0  0  0  0  0  0  0
    4.8106    2.1193    6.3964 H   0  0  0  0  0  0  0  0  0  0  0  0
    1.0996    2.5410    4.1431 H   0  0  0  0  0  0  0  0  0  0  0  0
    0.0269    2.9338    7.6243 H   0  0  0  0  0  0  0  0  0  0  0  0
    0.7622    3.5650    6.1472 H   0  0  0  0  0  0  0  0  0  0  0  0
    1.7427    3.0933    7.4589 H   0  0  0  0  0  0  0  0  0  0  0  0
   -1.3446    1.2158    7.6110 H   0  0  0  0  0  0  0  0  0  0  0  0
   -2.0974    2.8498    5.7149 H   0  0  0  0  0  0  0  0  0  0  0  0
   -0.6508    3.0781    4.6447 H   0  0  0  0  0  0  0  0  0  0  0  0
   -2.7553    1.0259    4.4158 H   0  0  0  0  0  0  0  0  0  0  0  0
   -0.6915    2.0603    2.3289 H   0  0  0  0  0  0  0  0  0  0  0  0
   -2.0659    1.0224    1.9849 H   0  0  0  0  0  0  0  0  0  0  0  0
   -2.2949    3.3742    1.7257 H   0  0  0  0  0  0  0  0  0  0  0  0
    1.9534    1.1394    8.2299 H   0  0  0  0  0  0  0  0  0  0  0  0
    0.9518   -0.3124    9.2623 H   0  0  0  0  0  0  0  0  0  0  0  0
    2.0789   -1.9327    8.8862 H   0  0  0  0  0  0  0  0  0  0  0  0
    3.1260   -0.5929    9.3096 H   0  0  0  0  0  0  0  0  0  0  0  0
    3.7615   -1.9920    8.5125 H   0  0  0  0  0  0  0  0  0  0  0  0
   -1.4012   -2.6116    4.9623 H   0  0  0  0  0  0  0  0  0  0  0  0
   -2.2581   -1.9453    6.3701 H   0  0  0  0  0  0  0  0  0  0  0  0
   -1.7759   -3.6547    6.3644 H   0  0  0  0  0  0  0  0  0  0  0  0
    1.2393   -0.6998    3.5726 H   0  0  0  0  0  0  0  0  0  0  0  0
    2.3009   -4.7139    1.6539 H   0  0  0  0  0  0  0  0  0  0  0  0
    5.2037   -5.5624   -0.8768 H   0  0  0  0  0  0  0  0  0  0  0  0
    5.9827   -5.2101    1.7924 H   0  0  0  0  0  0  0  0  0  0  0  0
    4.2145   -7.5599   -0.2334 H   0  0  0  0  0  0  0  0  0  0  0  0
    5.7780   -7.2782    2.0773 H   0  0  0  0  0  0  0  0  0  0  0  0
    1.4274   -7.2269    1.6209 H   0  0  0  0  0  0  0  0  0  0  0  0
    2.1859   -8.7965    2.7203 H   0  0  0  0  0  0  0  0  0  0  0  0
    3.8674   -9.1820    2.6819 H   0  0  0  0  0  0  0  0  0  0  0  0
    2.0767  -10.5874    4.6125 H   0  0  0  0  0  0  0  0  0  0  0  0
    3.0420  -10.3510    6.0677 H   0  0  0  0  0  0  0  0  0  0  0  0
    3.8265  -10.6985    4.5459 H   0  0  0  0  0  0  0  0  0  0  0  0
    1.0313   -8.5121    4.6234 H   0  0  0  0  0  0  0  0  0  0  0  0
    1.3800   -9.3135    6.5314 H   0  0  0  0  0  0  0  0  0  0  0  0
    1.6911   -6.1343    3.9532 H   0  0  0  0  0  0  0  0  0  0  0  0
   -2.4862   -6.3726    5.2325 H   0  0  0  0  0  0  0  0  0  0  0  0
   -2.0833   -8.0605    4.8737 H   0  0  0  0  0  0  0  0  0  0  0  0
   -2.8266   -7.0622    3.6384 H   0  0  0  0  0  0  0  0  0  0  0  0
  1  2  2  0
  1 65  1  0
  1 66  1  0
  2 56  1  0
  2  3  1  0
  3  4  1  0
  3 67  1  0
  3 68  1  0
  4  5  1  0
  4 69  1  0
  4 70  1  0
  5 10  1  0
  5  6  1  0
  5 71  1  6
  6 60  1  0
  6  7  1  1
  6  8  1  0
  7 72  1  0
  7 73  1  0
  7 74  1  0
  8  9  1  0
  9 38  1  0
  9 10  1  0
  9 75  1  1
 10 15  1  1
 10 11  1  0
 11 12  1  0
 11 45  1  0
 11 76  1  1
 12 13  1  0
 12 77  1  0
 12 78  1  0
 13 14  1  0
 13 79  1  0
 13 80  1  0
 15 14  1  6
 14 17  1  0
 14 81  1  1
 15 16  2  0
 17 43  1  0
 17 18  1  6
 17 19  1  0
 18 82  1  0
 18 83  1  0
 18 84  1  0
 19 36  1  0
 19 20  1  1
 19 21  1  0
 20 85  1  0
 21 22  1  0
 21 86  1  0
 21 87  1  0
 22 23  1  0
 23 43  1  0
 23 24  1  6
 23 25  1  0
 24 88  1  0
 25 26  1  1
 25 27  1  0
 25 34  1  0
 26 89  1  0
 26 90  1  0
 26 91  1  0
 27 33  1  0
 27 28  1  1
 27 29  1  0
 28 92  1  0
 29 30  1  0
 29 93  1  0
 29 94  1  0
 30 31  1  0
 30 33  1  0
 30 95  1  1
 31 32  1  0
 31 96  1  0
 31 97  1  0
 32 98  1  0
 34 35  1  0
 34 36  1  0
 34 99  1  1
 35100  1  0
 36 37  1  1
 36 38  1  0
 37101  1  0
 37102  1  0
 37103  1  0
 38 39  1  1
 38 43  1  0
 39 40  1  0
 40 41  1  0
 40 42  2  0
 41104  1  0
 41105  1  0
 41106  1  0
 43 44  1  6
 44107  1  0
 45 46  1  0
 46 52  1  0
 46 47  1  0
 46108  1  1
 47 48  1  0
 48 49  1  0
 48 50  1  0
 48109  1  6
 49110  1  0
 50 51  1  0
 50 52  1  0
 50111  1  6
 51112  1  0
 52 53  1  6
 52 54  1  0
 53113  1  0
 54 55  1  0
 55 56  1  0
 55114  1  0
 55115  1  0
 56 57  1  6
 56 58  1  0
 57116  1  0
 57117  1  0
 57118  1  0
 58 59  1  0
 58 60  1  0
 58119  1  6
 59120  1  0
 60 61  1  0
 60121  1  6
 61 62  1  0
 62 63  1  0
 62 64  2  0
 63122  1  0
 63123  1  0
 63124  1  0
M  END
>  <i_m_ct_stereo_status>  (64) 
1

>  <s_m_source_file>  (64) 
/var/tmp/pbs.5075288.sched01/tmpeqwi9iw0/66la8jmv2o.sdf

>  <i_m_source_file_index>  (64) 
37

>  <i_lp_mmshare_version>  (64) 
48012

>  <i_f3d_flags>  (64) 
0

>  <s_epik_input>  (64) 
W0NIM11DKD1PKU9bQ0BASF0xW0NASF0oW09IXSlbQ0BdKFtDSDNdKShDKD1bQ0gyXSlbQ0gyXVtDSDJdMilbQ0gyXU9bQ0BdKFtPSF0pKFtDQEhdKFtPSF0pW0NAQEhdKE8zKVtPSF0pW0NASF0zT1tDQEBIXTRbQ0gyXVtDSDJdW0NASF0oW1MrXTVbTy1dKVtDQF0oW0NIM10pKFtDQF02KFtPSF0pW0NAXTcoW0NIM10pW0NAXTgoT0MoPU8pW0NIM10pW0NASF05T1tDQEBdMShbQ0BIXTJbQ0BdNDU5KVtDSDNdKVtDQF04KFtPSF0pW0NAXShbT0hdKShPW0NIMl02KVtDQF0oW0NIM10pKFtDQEhdN1tPSF0pW0NAQF0xKFtPSF0pW0NIMl1bQ0BIXShPMSlbQ0gyXVtPSF0=

>  <s_epik_cmdline>  (64) 
J2VwaWtfcHl0aG9uJywgJy1waHQnLCAnMi4wJywgJy1waCcsICc3LjAnLCAnLXRuJywgJzgnLCAnLW1hJywgJzIwMCcsICctaW1hZScsICc8aW5maWxlLm1hZT4nLCAnLW9tYWUnLCAnPG91dGZpbGUubWFlPic=

>  <r_lp_tautomer_probability>  (64) 
1

>  <r_epik_Ionization_Penalty>  (64) 
8.16394e-05

>  <r_epik_Ionization_Penalty_Charging>  (64) 
0

>  <r_epik_Ionization_Penalty_Neutral>  (64) 
8.16394e-05

>  <r_epik_State_Penalty>  (64) 
-0

>  <r_epik_Charging_Adjusted_Penalty>  (64) 
0

>  <i_epik_Tot_Q>  (64) 
0

>  <i_epik_Tot_abs_Q>  (64) 
2

>  <s_epik_Chemistry_Notes>  (64) 
This compound has an ester and may undergo hydrolysis at high or low pH. This compound contains an acetal/aminal-like group ( X-CH(R)-Y where X, Y are N, S, or O) that may be acid/base labile, releasing an aldehyde.

>  <s_lp_Force_Field>  (64) 
OPLS3e

>  <r_lp_Energy>  (64) 
230.607

>  <b_lp_Chiralities_Consistent>  (64) 
1

>  <s_lp_Variant>  (64) 
47:0-1

>  <s_i_glide_gridfile>  (64) 
pfpi4k_grid

>  <i_i_glide_lignum>  (64) 
37

>  <i_i_glide_rotatable_bonds>  (64) 
16

>  <r_i_docking_score>  (64) 
-4.50497

>  <r_i_glide_ligand_efficiency>  (64) 
-0.0703902

>  <r_i_glide_ligand_efficiency_sa>  (64) 
-0.281561

>  <r_i_glide_ligand_efficiency_ln>  (64) 
-0.873246

>  <r_i_glide_gscore>  (64) 
-4.50497

>  <r_i_glide_lipo>  (64) 
-0.268166

>  <r_i_glide_hbond>  (64) 
-0.16

>  <r_i_glide_metal>  (64) 
-0

>  <r_i_glide_rewards>  (64) 
-1.69826

>  <r_i_glide_evdw>  (64) 
-23.1495

>  <r_i_glide_ecoul>  (64) 
-7.99326

>  <r_i_glide_erotb>  (64) 
0.101686

>  <r_i_glide_esite>  (64) 
-0.123767

>  <r_i_glide_emodel>  (64) 
-52.3583

>  <r_i_glide_energy>  (64) 
-31.1427

>  <r_i_glide_einternal>  (64) 
16.3001

>  <r_i_glide_intrahb_reward>  (64) 
-1.5

>  <i_i_glide_confnum>  (64) 
5

>  <i_i_glide_posenum>  (64) 
30

>  <r_i_glide_eff_state_penalty>  (64) 
0

>  <ligand_id>  (64) 
47

>  <original_smiles>  (64) 
C=C1CCC2C3(C)OC4C25C(CCC([S+]5[O-])C2(C)C5(O)COC6(O)C(C)(C7(O)CC(CO)O7)C(O)C5(C)C4(OC(C)=O)C62O)OC2OC(O)C(O)C2(O)OCC1(C)C(O)C3OC(C)=O

>  <smiles>  (64) 
[H]OC([H])([H])C1([H])OC(O[H])(C2(C([H])([H])[H])C([H])(O[H])C3(C([H])([H])[H])C4(OC(=O)C([H])([H])[H])C5([H])OC6(C([H])([H])[H])C([H])(OC(=O)C([H])([H])[H])C([H])(O[H])C7(C([H])([H])[H])C(=C([H])[H])C([H])([H])C([H])([H])C6([H])C56S(=O)C([H])(C([H])([H])C([H])([H])C6([H])OC5([H])OC([H])(O[H])C([H])(O[H])C5(O[H])OC7([H])[H])C5(C([H])([H])[H])C4(O[H])C2(O[H])OC([H])([H])C35O[H])C1([H])[H]

$$$$
47:0:2
     RDKit          3D

124133  0  0  1  0  0  0  0  0999 V2000
    1.7790    6.0289    8.0399 C   0  0  0  0  0  0  0  0  0  0  0  0
    2.2064    5.3838    6.9324 C   0  0  0  0  0  0  0  0  0  0  0  0
    3.5984    4.7544    6.9793 C   0  0  0  0  0  0  0  0  0  0  0  0
    3.6744    3.3537    7.6552 C   0  0  0  0  0  0  0  0  0  0  0  0
    2.6361    2.3239    7.1399 C   0  0  1  0  0  0  0  0  0  0  0  0
    2.7583    1.9670    5.6421 C   0  0  1  0  0  0  0  0  0  0  0  0
    4.1622    2.0809    4.9911 C   0  0  0  0  0  0  0  0  0  0  0  0
    2.4902    0.5576    5.7071 O   0  0  0  0  0  0  0  0  0  0  0  0
    3.0648   -0.0184    6.8964 C   0  0  1  0  0  0  0  0  0  0  0  0
    2.3506    0.9482    7.8748 C   0  0  2  0  0  0  0  0  0  0  0  0
    0.7865    0.7097    8.1025 C   0  0  1  0  0  0  0  0  0  0  0  0
    0.2696   -0.0547    9.3594 C   0  0  0  0  0  0  0  0  0  0  0  0
    1.2187   -0.2469   10.5327 C   0  0  0  0  0  0  0  0  0  0  0  0
    2.6326   -0.6931   10.1130 C   0  0  2  0  0  0  0  0  0  0  0  0
    3.2859    0.9094    9.4596 S   0  0  0  0  0  0  0  0  0  0  0  0
    4.7926    0.8887    9.2248 O   0  0  0  0  0  0  0  0  0  0  0  0
    2.8708   -2.1161    9.3860 C   0  0  2  0  0  0  0  0  0  0  0  0
    2.0959   -2.9853   10.4689 C   0  0  0  0  0  0  0  0  0  0  0  0
    4.3913   -2.4181    9.0677 C   0  0  1  0  0  0  0  0  0  0  0  0
    5.2838   -1.7329    9.9242 O   0  0  0  0  0  0  0  0  0  0  0  0
    4.6007   -3.8736    9.4736 C   0  0  0  0  0  0  0  0  0  0  0  0
    3.5389   -4.6405    8.9293 O   0  0  0  0  0  0  0  0  0  0  0  0
    2.8340   -4.1879    7.8017 C   0  0  2  0  0  0  0  0  0  0  0  0
    1.6170   -4.9141    7.7971 O   0  0  0  0  0  0  0  0  0  0  0  0
    3.8123   -4.6550    6.6428 C   0  0  1  0  0  0  0  0  0  0  0  0
    4.5317   -5.9949    7.0210 C   0  0  0  0  0  0  0  0  0  0  0  0
    3.0396   -5.0672    5.2879 C   0  0  1  0  0  0  0  0  0  0  0  0
    3.9047   -4.9828    4.1620 O   0  0  0  0  0  0  0  0  0  0  0  0
    2.3380   -6.4421    5.2068 C   0  0  0  0  0  0  0  0  0  0  0  0
    1.2142   -5.6940    4.5446 C   0  0  1  0  0  0  0  0  0  0  0  0
   -0.2014   -6.0284    5.0125 C   0  0  0  0  0  0  0  0  0  0  0  0
   -0.9107   -6.6512    3.9687 O   0  0  0  0  0  0  0  0  0  0  0  0
    1.7399   -4.4570    5.0828 O   0  0  0  0  0  0  0  0  0  0  0  0
    4.9636   -3.5570    6.6817 C   0  0  1  0  0  0  0  0  0  0  0  0
    5.7054   -3.4472    5.4772 O   0  0  0  0  0  0  0  0  0  0  0  0
    4.6629   -2.1874    7.4684 C   0  0  2  0  0  0  0  0  0  0  0  0
    5.9428   -1.3097    7.2544 C   0  0  0  0  0  0  0  0  0  0  0  0
    3.2758   -1.6366    6.9276 C   0  0  2  0  0  0  0  0  0  0  0  0
    2.9400   -2.0676    5.5814 O   0  0  0  0  0  0  0  0  0  0  0  0
    3.5345   -1.6241    4.4189 C   0  0  0  0  0  0  0  0  0  0  0  0
    2.8250   -2.0702    3.1468 C   0  0  0  0  0  0  0  0  0  0  0  0
    4.5667   -0.9590    4.3376 O   0  0  0  0  0  0  0  0  0  0  0  0
    2.4499   -2.5503    7.9216 C   0  0  2  0  0  0  0  0  0  0  0  0
    1.0885   -2.3461    7.6407 O   0  0  0  0  0  0  0  0  0  0  0  0
    0.0607    1.9401    8.1267 O   0  0  0  0  0  0  0  0  0  0  0  0
   -1.2270    1.9735    7.5759 C   0  0  1  0  0  0  0  0  0  0  0  0
   -2.1921    1.7474    8.5509 O   0  0  0  0  0  0  0  0  0  0  0  0
   -2.4422    2.9228    9.2611 C   0  0  1  0  0  0  0  0  0  0  0  0
   -1.6061    3.0373   10.4101 O   0  0  0  0  0  0  0  0  0  0  0  0
   -2.2246    4.0720    8.2433 C   0  0  1  0  0  0  0  0  0  0  0  0
   -1.5418    5.1784    8.8037 O   0  0  0  0  0  0  0  0  0  0  0  0
   -1.5074    3.3947    7.0466 C   0  0  2  0  0  0  0  0  0  0  0  0
   -2.3487    3.3135    5.9004 O   0  0  0  0  0  0  0  0  0  0  0  0
   -0.2594    3.9650    6.7879 O   0  0  0  0  0  0  0  0  0  0  0  0
   -0.1663    5.1459    6.0094 C   0  0  0  0  0  0  0  0  0  0  0  0
    1.3349    5.3259    5.6434 C   0  0  1  0  0  0  0  0  0  0  0  0
    1.4440    6.7291    4.9889 C   0  0  0  0  0  0  0  0  0  0  0  0
    1.7085    4.2474    4.5380 C   0  0  1  0  0  0  0  0  0  0  0  0
    2.8945    4.5958    3.8494 O   0  0  0  0  0  0  0  0  0  0  0  0
    1.6432    2.6953    4.8194 C   0  0  1  0  0  0  0  0  0  0  0  0
    1.5234    2.0638    3.5439 O   0  0  0  0  0  0  0  0  0  0  0  0
    0.3804    1.4547    3.1791 C   0  0  0  0  0  0  0  0  0  0  0  0
    0.4324    0.9524    1.7410 C   0  0  0  0  0  0  0  0  0  0  0  0
   -0.6206    1.3101    3.8814 O   0  0  0  0  0  0  0  0  0  0  0  0
    0.8231    6.5293    8.0885 H   0  0  0  0  0  0  0  0  0  0  0  0
    2.3982    6.0758    8.9235 H   0  0  0  0  0  0  0  0  0  0  0  0
    4.0522    4.7902    5.9997 H   0  0  0  0  0  0  0  0  0  0  0  0
    4.2283    5.4290    7.5596 H   0  0  0  0  0  0  0  0  0  0  0  0
    4.6877    2.9624    7.5787 H   0  0  0  0  0  0  0  0  0  0  0  0
    3.5048    3.5291    8.7174 H   0  0  0  0  0  0  0  0  0  0  0  0
    1.7631    2.9302    7.2389 H   0  0  0  0  0  0  0  0  0  0  0  0
    4.5243    3.0957    4.9020 H   0  0  0  0  0  0  0  0  0  0  0  0
    4.1330    1.6824    3.9782 H   0  0  0  0  0  0  0  0  0  0  0  0
    4.9544    1.5519    5.5152 H   0  0  0  0  0  0  0  0  0  0  0  0
    4.0860    0.3255    6.9111 H   0  0  0  0  0  0  0  0  0  0  0  0
    0.4504    0.1561    7.2255 H   0  0  0  0  0  0  0  0  0  0  0  0
   -0.5887    0.4541    9.7843 H   0  0  0  0  0  0  0  0  0  0  0  0
   -0.1437   -1.0161    9.0939 H   0  0  0  0  0  0  0  0  0  0  0  0
    1.2935    0.7034   11.0688 H   0  0  0  0  0  0  0  0  0  0  0  0
    0.7692   -0.9142   11.2732 H   0  0  0  0  0  0  0  0  0  0  0  0
    3.1780   -0.7738   11.0550 H   0  0  0  0  0  0  0  0  0  0  0  0
    2.1396   -4.0651   10.4625 H   0  0  0  0  0  0  0  0  0  0  0  0
    1.0243   -2.8218   10.3831 H   0  0  0  0  0  0  0  0  0  0  0  0
    2.3938   -2.7343   11.4862 H   0  0  0  0  0  0  0  0  0  0  0  0
    6.1511   -2.0559    9.7438 H   0  0  0  0  0  0  0  0  0  0  0  0
    5.5823   -4.2648    9.2276 H   0  0  0  0  0  0  0  0  0  0  0  0
    4.5577   -3.9987   10.5514 H   0  0  0  0  0  0  0  0  0  0  0  0
    1.1416   -4.6214    8.5640 H   0  0  0  0  0  0  0  0  0  0  0  0
    5.1230   -6.3510    6.1721 H   0  0  0  0  0  0  0  0  0  0  0  0
    3.8392   -6.7789    7.3203 H   0  0  0  0  0  0  0  0  0  0  0  0
    5.2363   -5.9176    7.8436 H   0  0  0  0  0  0  0  0  0  0  0  0
    4.1063   -4.0792    3.9750 H   0  0  0  0  0  0  0  0  0  0  0  0
    2.8543   -7.1585    4.5751 H   0  0  0  0  0  0  0  0  0  0  0  0
    2.0453   -6.8678    6.1659 H   0  0  0  0  0  0  0  0  0  0  0  0
    1.3210   -5.7099    3.4456 H   0  0  0  0  0  0  0  0  0  0  0  0
   -0.2057   -6.6981    5.8747 H   0  0  0  0  0  0  0  0  0  0  0  0
   -0.7127   -5.1252    5.3442 H   0  0  0  0  0  0  0  0  0  0  0  0
   -0.5427   -7.5211    3.8426 H   0  0  0  0  0  0  0  0  0  0  0  0
    5.7998   -3.9709    7.2350 H   0  0  0  0  0  0  0  0  0  0  0  0
    5.2707   -2.8402    4.8981 H   0  0  0  0  0  0  0  0  0  0  0  0
    6.0952   -1.0138    6.2187 H   0  0  0  0  0  0  0  0  0  0  0  0
    6.8367   -1.8696    7.5417 H   0  0  0  0  0  0  0  0  0  0  0  0
    5.9814   -0.3864    7.8248 H   0  0  0  0  0  0  0  0  0  0  0  0
    1.7895   -2.3511    3.3522 H   0  0  0  0  0  0  0  0  0  0  0  0
    3.3484   -2.9248    2.7117 H   0  0  0  0  0  0  0  0  0  0  0  0
    2.8277   -1.2703    2.3988 H   0  0  0  0  0  0  0  0  0  0  0  0
    0.9584   -2.6944    6.7732 H   0  0  0  0  0  0  0  0  0  0  0  0
   -1.3039    1.2465    6.7697 H   0  0  0  0  0  0  0  0  0  0  0  0
   -3.4645    2.9014    9.6392 H   0  0  0  0  0  0  0  0  0  0  0  0
   -1.9624    2.4909   11.1068 H   0  0  0  0  0  0  0  0  0  0  0  0
   -3.2046    4.4262    7.9249 H   0  0  0  0  0  0  0  0  0  0  0  0
   -1.9265    5.3814    9.6420 H   0  0  0  0  0  0  0  0  0  0  0  0
   -1.9417    2.7228    5.2829 H   0  0  0  0  0  0  0  0  0  0  0  0
   -0.7530    5.0573    5.0930 H   0  0  0  0  0  0  0  0  0  0  0  0
   -0.5702    6.0092    6.5454 H   0  0  0  0  0  0  0  0  0  0  0  0
    0.8795    6.7953    4.0558 H   0  0  0  0  0  0  0  0  0  0  0  0
    2.4799    6.9911    4.7600 H   0  0  0  0  0  0  0  0  0  0  0  0
    1.0656    7.5118    5.6498 H   0  0  0  0  0  0  0  0  0  0  0  0
    0.9531    4.4059    3.7673 H   0  0  0  0  0  0  0  0  0  0  0  0
    2.9051    4.1257    3.0289 H   0  0  0  0  0  0  0  0  0  0  0  0
    0.7261    2.5103    5.3707 H   0  0  0  0  0  0  0  0  0  0  0  0
    1.4122    0.5405    1.4995 H   0  0  0  0  0  0  0  0  0  0  0  0
    0.2202    1.7681    1.0478 H   0  0  0  0  0  0  0  0  0  0  0  0
   -0.3144    0.1770    1.5750 H   0  0  0  0  0  0  0  0  0  0  0  0
  1  2  2  0
  1 65  1  0
  1 66  1  0
  2 56  1  0
  2  3  1  0
  3  4  1  0
  3 67  1  0
  3 68  1  0
  4  5  1  0
  4 69  1  0
  4 70  1  0
  5 10  1  0
  5  6  1  0
  5 71  1  6
  6 60  1  0
  6  7  1  6
  6  8  1  0
  7 72  1  0
  7 73  1  0
  7 74  1  0
  8  9  1  0
  9 38  1  0
  9 10  1  0
  9 75  1  6
 10 15  1  1
 10 11  1  0
 11 12  1  0
 11 45  1  0
 11 76  1  6
 12 13  1  0
 12 77  1  0
 12 78  1  0
 13 14  1  0
 13 79  1  0
 13 80  1  0
 15 14  1  6
 14 17  1  0
 14 81  1  1
 15 16  2  0
 17 43  1  0
 17 18  1  1
 17 19  1  0
 18 82  1  0
 18 83  1  0
 18 84  1  0
 19 36  1  0
 19 20  1  1
 19 21  1  0
 20 85  1  0
 21 22  1  0
 21 86  1  0
 21 87  1  0
 22 23  1  0
 23 43  1  0
 23 24  1  6
 23 25  1  0
 24 88  1  0
 25 26  1  1
 25 27  1  0
 25 34  1  0
 26 89  1  0
 26 90  1  0
 26 91  1  0
 27 33  1  0
 27 28  1  6
 27 29  1  0
 28 92  1  0
 29 30  1  0
 29 93  1  0
 29 94  1  0
 30 31  1  0
 30 33  1  0
 30 95  1  6
 31 32  1  0
 31 96  1  0
 31 97  1  0
 32 98  1  0
 34 35  1  0
 34 36  1  0
 34 99  1  1
 35100  1  0
 36 37  1  1
 36 38  1  0
 37101  1  0
 37102  1  0
 37103  1  0
 38 39  1  6
 38 43  1  0
 39 40  1  0
 40 41  1  0
 40 42  2  0
 41104  1  0
 41105  1  0
 41106  1  0
 43 44  1  1
 44107  1  0
 45 46  1  0
 46 52  1  0
 46 47  1  0
 46108  1  6
 47 48  1  0
 48 49  1  0
 48 50  1  0
 48109  1  1
 49110  1  0
 50 51  1  0
 50 52  1  0
 50111  1  6
 51112  1  0
 52 53  1  6
 52 54  1  0
 53113  1  0
 54 55  1  0
 55 56  1  0
 55114  1  0
 55115  1  0
 56 57  1  6
 56 58  1  0
 57116  1  0
 57117  1  0
 57118  1  0
 58 59  1  0
 58 60  1  0
 58119  1  6
 59120  1  0
 60 61  1  0
 60121  1  1
 61 62  1  0
 62 63  1  0
 62 64  2  0
 63122  1  0
 63123  1  0
 63124  1  0
M  END
>  <i_m_ct_stereo_status>  (65) 
1

>  <s_m_source_file>  (65) 
/var/tmp/pbs.5075288.sched01/tmpeqwi9iw0/66la8jmv2o.sdf

>  <i_m_source_file_index>  (65) 
37

>  <i_lp_mmshare_version>  (65) 
48012

>  <i_f3d_flags>  (65) 
0

>  <s_epik_input>  (65) 
W0NIM11DKD1PKU9bQ0BASF0xW0NASF0oW09IXSlbQ0BdKFtDSDNdKShDKD1bQ0gyXSlbQ0gyXVtDSDJdMilbQ0gyXU9bQ0BdKFtPSF0pKFtDQEhdKFtPSF0pW0NAQEhdKE8zKVtPSF0pW0NASF0zT1tDQEBIXTRbQ0gyXVtDSDJdW0NASF0oW1MrXTVbTy1dKVtDQF0oW0NIM10pKFtDQF02KFtPSF0pW0NAXTcoW0NIM10pW0NAXTgoT0MoPU8pW0NIM10pW0NASF05T1tDQEBdMShbQ0BIXTJbQ0BdNDU5KVtDSDNdKVtDQF04KFtPSF0pW0NAXShbT0hdKShPW0NIMl02KVtDQF0oW0NIM10pKFtDQEhdN1tPSF0pW0NAQF0xKFtPSF0pW0NIMl1bQ0BIXShPMSlbQ0gyXVtPSF0=

>  <s_epik_cmdline>  (65) 
J2VwaWtfcHl0aG9uJywgJy1waHQnLCAnMi4wJywgJy1waCcsICc3LjAnLCAnLXRuJywgJzgnLCAnLW1hJywgJzIwMCcsICctaW1hZScsICc8aW5maWxlLm1hZT4nLCAnLW9tYWUnLCAnPG91dGZpbGUubWFlPic=

>  <r_lp_tautomer_probability>  (65) 
1

>  <r_epik_Ionization_Penalty>  (65) 
8.16394e-05

>  <r_epik_Ionization_Penalty_Charging>  (65) 
0

>  <r_epik_Ionization_Penalty_Neutral>  (65) 
8.16394e-05

>  <r_epik_State_Penalty>  (65) 
-0

>  <r_epik_Charging_Adjusted_Penalty>  (65) 
0

>  <i_epik_Tot_Q>  (65) 
0

>  <i_epik_Tot_abs_Q>  (65) 
2

>  <s_epik_Chemistry_Notes>  (65) 
This compound has an ester and may undergo hydrolysis at high or low pH. This compound contains an acetal/aminal-like group ( X-CH(R)-Y where X, Y are N, S, or O) that may be acid/base labile, releasing an aldehyde.

>  <s_lp_Force_Field>  (65) 
OPLS3e

>  <r_lp_Energy>  (65) 
230.607

>  <b_lp_Chiralities_Consistent>  (65) 
1

>  <s_lp_Variant>  (65) 
47:0-1

>  <s_i_glide_gridfile>  (65) 
pfpi4k_grid

>  <i_i_glide_lignum>  (65) 
37

>  <i_i_glide_rotatable_bonds>  (65) 
16

>  <r_i_docking_score>  (65) 
-3.27649

>  <r_i_glide_ligand_efficiency>  (65) 
-0.0511951

>  <r_i_glide_ligand_efficiency_sa>  (65) 
-0.20478

>  <r_i_glide_ligand_efficiency_ln>  (65) 
-0.635115

>  <r_i_glide_gscore>  (65) 
-3.27649

>  <r_i_glide_lipo>  (65) 
-0.0345345

>  <r_i_glide_hbond>  (65) 
-0.0581043

>  <r_i_glide_metal>  (65) 
-0

>  <r_i_glide_rewards>  (65) 
-0.548641

>  <r_i_glide_evdw>  (65) 
-35.8678

>  <r_i_glide_ecoul>  (65) 
-5.70189

>  <r_i_glide_erotb>  (65) 
0.101686

>  <r_i_glide_esite>  (65) 
-0.0882206

>  <r_i_glide_emodel>  (65) 
-52.0238

>  <r_i_glide_energy>  (65) 
-41.5697

>  <r_i_glide_einternal>  (65) 
11.1272

>  <r_i_glide_intrahb_reward>  (65) 
-0.5

>  <i_i_glide_confnum>  (65) 
5

>  <i_i_glide_posenum>  (65) 
2

>  <r_i_glide_eff_state_penalty>  (65) 
0

>  <ligand_id>  (65) 
47

>  <original_smiles>  (65) 
C=C1CCC2C3(C)OC4C25C(CCC([S+]5[O-])C2(C)C5(O)COC6(O)C(C)(C7(O)CC(CO)O7)C(O)C5(C)C4(OC(C)=O)C62O)OC2OC(O)C(O)C2(O)OCC1(C)C(O)C3OC(C)=O

>  <smiles>  (65) 
[H]OC([H])([H])C1([H])OC(O[H])(C2(C([H])([H])[H])C([H])(O[H])C3(C([H])([H])[H])C4(OC(=O)C([H])([H])[H])C5([H])OC6(C([H])([H])[H])C([H])(OC(=O)C([H])([H])[H])C([H])(O[H])C7(C([H])([H])[H])C(=C([H])[H])C([H])([H])C([H])([H])C6([H])C56S(=O)C([H])(C([H])([H])C([H])([H])C6([H])OC5([H])OC([H])(O[H])C([H])(O[H])C5(O[H])OC7([H])[H])C5(C([H])([H])[H])C4(O[H])C2(O[H])OC([H])([H])C35O[H])C1([H])[H]

$$$$
52:0:0
     RDKit          3D

 73 79  0  0  1  0  0  0  0  0999 V2000
   -0.2001   -2.7277   10.6932 C   0  0  0  0  0  0  0  0  0  0  0  0
    0.7611   -3.6084    9.8833 C   0  0  0  0  0  0  0  0  0  0  0  0
    2.0211   -2.8227    9.4526 C   0  0  0  0  0  0  0  0  0  0  0  0
    0.0701   -4.2852    8.6928 C   0  0  0  0  0  0  0  0  0  0  0  0
   -1.1059   -4.0628    8.3970 O   0  0  0  0  0  0  0  0  0  0  0  0
    0.9069   -5.1120    8.0396 O   0  0  0  0  0  0  0  0  0  0  0  0
    0.5545   -5.8377    6.8545 C   0  0  2  0  0  0  0  0  0  0  0  0
    0.2450   -7.3258    7.0959 C   0  0  0  0  0  0  0  0  0  0  0  0
    1.3862   -8.3142    7.3487 C   0  0  2  0  0  0  0  0  0  0  0  0
    0.6942   -9.4502    7.8483 O   0  0  0  0  0  0  0  0  0  0  0  0
    2.2466   -7.6510    8.5108 C   0  0  1  0  0  0  0  0  0  0  0  0
    2.9726   -8.5719    9.3054 O   0  0  0  0  0  0  0  0  0  0  0  0
    3.0412   -6.6087    8.0427 O   0  0  0  0  0  0  0  0  0  0  0  0
    3.8106   -6.8313    6.8744 C   0  0  0  0  0  0  0  0  0  0  0  0
    3.0289   -7.3909    5.6399 C   0  0  2  0  0  0  0  0  0  0  0  0
    4.1312   -7.8245    4.8722 O   0  0  0  0  0  0  0  0  0  0  0  0
    2.2669   -6.2119    4.9448 C   0  0  0  0  0  0  0  0  0  0  0  0
    2.5605   -5.9363    3.5518 C   0  0  0  0  0  0  0  0  0  0  0  0
    2.1908   -4.6585    3.0423 C   0  0  0  0  0  0  0  0  0  0  0  0
    2.5751   -4.2748    1.7903 O   0  0  0  0  0  0  0  0  0  0  0  0
    1.4581   -3.7779    3.8122 C   0  0  0  0  0  0  0  0  0  0  0  0
    1.0374   -2.5092    3.4486 O   0  0  0  0  0  0  0  0  0  0  0  0
    0.2685   -2.0513    4.4772 C   0  0  0  0  0  0  0  0  0  0  0  0
    0.1608   -2.9799    5.4837 C   0  0  0  0  0  0  0  0  0  0  0  0
    0.9691   -4.0993    5.1035 C   0  0  0  0  0  0  0  0  0  0  0  0
    1.3493   -5.3611    5.6360 C   0  0  0  0  0  0  0  0  0  0  0  0
    3.1460   -6.8796    2.5445 C   0  0  2  0  0  0  0  0  0  0  0  0
    2.2507   -7.0483    1.4346 O   0  0  0  0  0  0  0  0  0  0  0  0
    2.6731   -8.2477    2.0700 C   0  0  1  0  0  0  0  0  0  0  0  0
    3.6370   -9.0283    1.1658 C   0  0  0  0  0  0  0  0  0  0  0  0
    1.5442   -9.1807    2.5895 C   0  0  2  0  0  0  0  0  0  0  0  0
    0.2154   -8.5301    3.7151 S   0  0  0  0  0  0  0  0  0  0  0  0
    0.0682   -7.0093    3.7570 O   0  0  0  0  0  0  0  0  0  0  0  0
    1.3389   -9.4120    4.9238 C   0  0  1  0  0  0  0  0  0  0  0  0
    1.7975  -10.2876    3.6756 C   0  0  0  0  0  0  0  0  0  0  0  0
    0.8884  -11.4951    3.4721 C   0  0  0  0  0  0  0  0  0  0  0  0
    3.2013  -10.8878    3.6391 C   0  0  0  0  0  0  0  0  0  0  0  0
    2.2138   -8.6873    6.0431 C   0  0  2  0  0  0  0  0  0  0  0  0
    3.2257   -9.7968    6.5414 C   0  0  0  0  0  0  0  0  0  0  0  0
   -1.0677   -3.2943   11.0285 H   0  0  0  0  0  0  0  0  0  0  0  0
   -0.5573   -1.8710   10.1115 H   0  0  0  0  0  0  0  0  0  0  0  0
    0.2942   -2.3343   11.5798 H   0  0  0  0  0  0  0  0  0  0  0  0
    1.0928   -4.4295   10.5258 H   0  0  0  0  0  0  0  0  0  0  0  0
    2.7519   -3.4635    8.9621 H   0  0  0  0  0  0  0  0  0  0  0  0
    2.5101   -2.3876   10.3239 H   0  0  0  0  0  0  0  0  0  0  0  0
    1.7801   -2.0031    8.7692 H   0  0  0  0  0  0  0  0  0  0  0  0
   -0.4473   -5.4740    6.5769 H   0  0  0  0  0  0  0  0  0  0  0  0
   -0.4190   -7.3344    7.9550 H   0  0  0  0  0  0  0  0  0  0  0  0
   -0.3609   -7.6987    6.2655 H   0  0  0  0  0  0  0  0  0  0  0  0
    1.2349  -10.2312    7.7073 H   0  0  0  0  0  0  0  0  0  0  0  0
    1.5843   -7.2052    9.2528 H   0  0  0  0  0  0  0  0  0  0  0  0
    3.4148   -9.1830    8.7235 H   0  0  0  0  0  0  0  0  0  0  0  0
    4.3000   -5.8895    6.6009 H   0  0  0  0  0  0  0  0  0  0  0  0
    4.6288   -7.4946    7.1639 H   0  0  0  0  0  0  0  0  0  0  0  0
    4.5583   -8.5102    5.3550 H   0  0  0  0  0  0  0  0  0  0  0  0
    2.3074   -3.3927    1.6367 H   0  0  0  0  0  0  0  0  0  0  0  0
   -0.1456   -1.0484    4.3594 H   0  0  0  0  0  0  0  0  0  0  0  0
   -0.3972   -2.8613    6.4020 H   0  0  0  0  0  0  0  0  0  0  0  0
    4.1530   -6.5722    2.2544 H   0  0  0  0  0  0  0  0  0  0  0  0
    4.4544   -9.4545    1.7444 H   0  0  0  0  0  0  0  0  0  0  0  0
    4.1151   -8.3582    0.4396 H   0  0  0  0  0  0  0  0  0  0  0  0
    3.1396   -9.8201    0.6169 H   0  0  0  0  0  0  0  0  0  0  0  0
    0.9997   -9.5895    1.7478 H   0  0  0  0  0  0  0  0  0  0  0  0
    0.6267  -10.0475    5.4505 H   0  0  0  0  0  0  0  0  0  0  0  0
    0.9997  -12.2146    4.2814 H   0  0  0  0  0  0  0  0  0  0  0  0
    1.0942  -11.9953    2.5299 H   0  0  0  0  0  0  0  0  0  0  0  0
   -0.1552  -11.2003    3.4546 H   0  0  0  0  0  0  0  0  0  0  0  0
    3.3331  -11.6293    4.4253 H   0  0  0  0  0  0  0  0  0  0  0  0
    3.9690  -10.1108    3.7502 H   0  0  0  0  0  0  0  0  0  0  0  0
    3.3854  -11.3730    2.6863 H   0  0  0  0  0  0  0  0  0  0  0  0
    3.9745  -10.0856    5.8270 H   0  0  0  0  0  0  0  0  0  0  0  0
    2.7073  -10.7033    6.8164 H   0  0  0  0  0  0  0  0  0  0  0  0
    3.8615   -9.5291    7.3734 H   0  0  0  0  0  0  0  0  0  0  0  0
  1  2  1  0
  1 40  1  0
  1 41  1  0
  1 42  1  0
  2  3  1  0
  2  4  1  0
  2 43  1  0
  3 44  1  0
  3 45  1  0
  3 46  1  0
  4  5  2  0
  4  6  1  0
  6  7  1  0
  7 26  1  0
  7  8  1  0
  7 47  1  6
  8  9  1  0
  8 48  1  0
  8 49  1  0
  9 38  1  0
  9 10  1  1
  9 11  1  0
 10 50  1  0
 11 12  1  0
 11 13  1  0
 11 51  1  1
 12 52  1  0
 13 14  1  0
 14 15  1  0
 14 53  1  0
 14 54  1  0
 15 38  1  0
 15 16  1  6
 15 17  1  0
 16 55  1  0
 17 26  1  0
 17 18  2  0
 18 19  1  0
 18 27  1  0
 19 20  1  0
 19 21  2  0
 20 56  1  0
 21 25  1  0
 21 22  1  0
 22 23  1  0
 23 24  2  0
 23 57  1  0
 24 25  1  0
 24 58  1  0
 25 26  2  0
 27 29  1  0
 27 28  1  0
 27 59  1  6
 28 29  1  0
 29 30  1  6
 29 31  1  0
 30 60  1  0
 30 61  1  0
 30 62  1  0
 31 35  1  0
 32 31  1  6
 31 63  1  6
 32 33  2  0
 32 34  1  0
 34 35  1  0
 34 38  1  0
 34 64  1  1
 35 36  1  0
 35 37  1  0
 36 65  1  0
 36 66  1  0
 36 67  1  0
 37 68  1  0
 37 69  1  0
 37 70  1  0
 38 39  1  1
 39 71  1  0
 39 72  1  0
 39 73  1  0
M  END
>  <i_m_ct_stereo_status>  (66) 
1

>  <s_m_source_file>  (66) 
/var/tmp/pbs.5075288.sched01/tmpeqwi9iw0/66la8jmv2o.sdf

>  <i_m_source_file_index>  (66) 
41

>  <i_lp_mmshare_version>  (66) 
48012

>  <i_f3d_flags>  (66) 
0

>  <s_epik_input>  (66) 
W0NIM11bQ0hdKFtDSDNdKUMoPU8pT1tDQEhdKFtDSDJdMSljMmMoW2NIXVtjSF1vMyljM2MoW09IXSljKGMyW0NAXShbT0hdKShbQ0BAXTQoW0NIM10pW0NAXTE1W09IXSlbQ0gyXU9bQ0BASF01W09IXSlbQ0BIXTZbQ0BAXShPNikoW0NIM10pW0NAQEhdN1tTK10oW08tXSlbQ0BIXTRDNyhbQ0gzXSlbQ0gzXQ==

>  <s_epik_cmdline>  (66) 
J2VwaWtfcHl0aG9uJywgJy1waHQnLCAnMi4wJywgJy1waCcsICc3LjAnLCAnLXRuJywgJzgnLCAnLW1hJywgJzIwMCcsICctaW1hZScsICc8aW5maWxlLm1hZT4nLCAnLW9tYWUnLCAnPG91dGZpbGUubWFlPic=

>  <r_epik_Ionization_Penalty>  (66) 
0.00533966

>  <r_epik_Ionization_Penalty_Charging>  (66) 
0

>  <r_epik_Ionization_Penalty_Neutral>  (66) 
0.00533966

>  <r_epik_State_Penalty>  (66) 
0.00389884

>  <r_epik_Charging_Adjusted_Penalty>  (66) 
0.00389884

>  <i_epik_Tot_Q>  (66) 
0

>  <i_epik_Tot_abs_Q>  (66) 
2

>  <s_epik_Chemistry_Notes>  (66) 
This compound has an ester and may undergo hydrolysis at high or low pH. This compound contains an acetal/aminal-like group ( X-CH(R)-Y where X, Y are N, S, or O) that may be acid/base labile, releasing an aldehyde.

>  <s_lp_Force_Field>  (66) 
OPLS3e

>  <r_lp_Energy>  (66) 
123.846

>  <b_lp_Chiralities_Consistent>  (66) 
1

>  <s_lp_Variant>  (66) 
52:0-1

>  <s_i_glide_gridfile>  (66) 
pfpi4k_grid

>  <i_i_glide_lignum>  (66) 
41

>  <i_i_glide_rotatable_bonds>  (66) 
7

>  <r_i_docking_score>  (66) 
-2.44666

>  <r_i_glide_ligand_efficiency>  (66) 
-0.0627349

>  <r_i_glide_ligand_efficiency_sa>  (66) 
-0.212747

>  <r_i_glide_ligand_efficiency_ln>  (66) 
-0.524633

>  <r_i_glide_gscore>  (66) 
-2.44666

>  <r_i_glide_lipo>  (66) 
-0.249459

>  <r_i_glide_hbond>  (66) 
-0.00938468

>  <r_i_glide_metal>  (66) 
-0

>  <r_i_glide_rewards>  (66) 
0

>  <r_i_glide_evdw>  (66) 
-26.8611

>  <r_i_glide_ecoul>  (66) 
-5.65121

>  <r_i_glide_erotb>  (66) 
0.0491169

>  <r_i_glide_esite>  (66) 
-0.0461955

>  <r_i_glide_emodel>  (66) 
-37.0327

>  <r_i_glide_energy>  (66) 
-32.5123

>  <r_i_glide_einternal>  (66) 
1.60989

>  <r_i_glide_intrahb_reward>  (66) 
-0

>  <i_i_glide_confnum>  (66) 
4

>  <i_i_glide_posenum>  (66) 
39

>  <r_i_glide_eff_state_penalty>  (66) 
0

>  <ligand_id>  (66) 
52

>  <original_smiles>  (66) 
CC(C)C(=O)OC1CC2(O)C(O)OCC3(O)c4c(c(O)c5occc5c41)C1OC1(C)C1[S+]([O-])C(C1(C)C)C32C

>  <smiles>  (66) 
[H]Oc1c2c3c(c4c([H])c([H])oc14)C([H])(OC(=O)C([H])(C([H])([H])[H])C([H])([H])[H])C([H])([H])C1(O[H])C([H])(O[H])OC([H])([H])C3(O[H])C1(C([H])([H])[H])C1([H])S(=O)C([H])(C3(C([H])([H])[H])OC23[H])C1(C([H])([H])[H])C([H])([H])[H]

$$$$
52:0:1
     RDKit          3D

 73 79  0  0  1  0  0  0  0  0999 V2000
    1.9440   -2.6775    9.4368 C   0  0  0  0  0  0  0  0  0  0  0  0
    0.8087   -3.6220    9.8772 C   0  0  0  0  0  0  0  0  0  0  0  0
    1.3065   -4.6833   10.8662 C   0  0  0  0  0  0  0  0  0  0  0  0
    0.1248   -4.2922    8.6831 C   0  0  0  0  0  0  0  0  0  0  0  0
   -1.0614   -4.0848    8.4194 O   0  0  0  0  0  0  0  0  0  0  0  0
    0.9693   -5.0774    7.9888 O   0  0  0  0  0  0  0  0  0  0  0  0
    0.5893   -5.8123    6.8236 C   0  0  2  0  0  0  0  0  0  0  0  0
    0.2625   -7.3003    7.0600 C   0  0  0  0  0  0  0  0  0  0  0  0
    1.3999   -8.2985    7.3301 C   0  0  2  0  0  0  0  0  0  0  0  0
    0.6954   -9.4325    7.8300 O   0  0  0  0  0  0  0  0  0  0  0  0
    2.2581   -7.6537    8.4912 C   0  0  1  0  0  0  0  0  0  0  0  0
    2.9729   -8.5716    9.2840 O   0  0  0  0  0  0  0  0  0  0  0  0
    3.0685   -6.6083    8.0294 O   0  0  0  0  0  0  0  0  0  0  0  0
    3.8429   -6.8420    6.8581 C   0  0  0  0  0  0  0  0  0  0  0  0
    3.0598   -7.3997    5.6283 C   0  0  2  0  0  0  0  0  0  0  0  0
    4.1623   -7.8447    4.8653 O   0  0  0  0  0  0  0  0  0  0  0  0
    2.3120   -6.2190    4.9191 C   0  0  0  0  0  0  0  0  0  0  0  0
    2.6138   -5.9470    3.5335 C   0  0  0  0  0  0  0  0  0  0  0  0
    2.2531   -4.6652    3.0109 C   0  0  0  0  0  0  0  0  0  0  0  0
    2.6349   -4.2887    1.7432 O   0  0  0  0  0  0  0  0  0  0  0  0
    1.5222   -3.7813    3.7902 C   0  0  0  0  0  0  0  0  0  0  0  0
    1.1115   -2.5062    3.4276 O   0  0  0  0  0  0  0  0  0  0  0  0
    0.3489   -2.0384    4.4528 C   0  0  0  0  0  0  0  0  0  0  0  0
    0.2330   -2.9739    5.4583 C   0  0  0  0  0  0  0  0  0  0  0  0
    1.0307   -4.0964    5.0682 C   0  0  0  0  0  0  0  0  0  0  0  0
    1.3954   -5.3624    5.6058 C   0  0  0  0  0  0  0  0  0  0  0  0
    3.2014   -6.9009    2.5357 C   0  0  2  0  0  0  0  0  0  0  0  0
    2.3145   -7.0532    1.4140 O   0  0  0  0  0  0  0  0  0  0  0  0
    2.7101   -8.2627    2.0496 C   0  0  1  0  0  0  0  0  0  0  0  0
    3.6701   -9.0498    1.1561 C   0  0  0  0  0  0  0  0  0  0  0  0
    1.5624   -9.1778    2.5741 C   0  0  2  0  0  0  0  0  0  0  0  0
    0.2475   -8.5030    3.6946 S   0  0  0  0  0  0  0  0  0  0  0  0
    0.0958   -6.9875    3.7248 O   0  0  0  0  0  0  0  0  0  0  0  0
    1.3399   -9.4077    4.9041 C   0  0  1  0  0  0  0  0  0  0  0  0
    1.8061  -10.2852    3.6604 C   0  0  0  0  0  0  0  0  0  0  0  0
    0.8831  -11.4883    3.4612 C   0  0  0  0  0  0  0  0  0  0  0  0
    3.2032  -10.8937    3.6389 C   0  0  0  0  0  0  0  0  0  0  0  0
    2.2349   -8.6883    6.0323 C   0  0  2  0  0  0  0  0  0  0  0  0
    3.2270   -9.8007    6.5351 C   0  0  0  0  0  0  0  0  0  0  0  0
    1.5807   -1.8822    8.7809 H   0  0  0  0  0  0  0  0  0  0  0  0
    2.7398   -3.2102    8.9145 H   0  0  0  0  0  0  0  0  0  0  0  0
    2.3890   -2.1968   10.3094 H   0  0  0  0  0  0  0  0  0  0  0  0
    0.0487   -3.0194   10.3735 H   0  0  0  0  0  0  0  0  0  0  0  0
    0.4766   -5.3017   11.2165 H   0  0  0  0  0  0  0  0  0  0  0  0
    1.7725   -4.2149   11.7337 H   0  0  0  0  0  0  0  0  0  0  0  0
    2.0516   -5.3352   10.4081 H   0  0  0  0  0  0  0  0  0  0  0  0
   -0.3981   -5.4368    6.5435 H   0  0  0  0  0  0  0  0  0  0  0  0
   -0.3986   -7.2961    7.9237 H   0  0  0  0  0  0  0  0  0  0  0  0
   -0.3411   -7.6668    6.2418 H   0  0  0  0  0  0  0  0  0  0  0  0
    1.2453  -10.2004    7.7393 H   0  0  0  0  0  0  0  0  0  0  0  0
    1.5852   -7.1968    9.2201 H   0  0  0  0  0  0  0  0  0  0  0  0
    3.4092   -9.1869    8.7169 H   0  0  0  0  0  0  0  0  0  0  0  0
    4.3374   -5.9069    6.5870 H   0  0  0  0  0  0  0  0  0  0  0  0
    4.6500   -7.5092    7.1568 H   0  0  0  0  0  0  0  0  0  0  0  0
    4.5860   -8.5284    5.3567 H   0  0  0  0  0  0  0  0  0  0  0  0
    3.1105   -4.9551    1.2630 H   0  0  0  0  0  0  0  0  0  0  0  0
   -0.0466   -1.0385    4.3263 H   0  0  0  0  0  0  0  0  0  0  0  0
   -0.3178   -2.8586    6.3729 H   0  0  0  0  0  0  0  0  0  0  0  0
    4.2095   -6.6158    2.2594 H   0  0  0  0  0  0  0  0  0  0  0  0
    4.4742   -9.4866    1.7398 H   0  0  0  0  0  0  0  0  0  0  0  0
    4.1552   -8.3958    0.4293 H   0  0  0  0  0  0  0  0  0  0  0  0
    3.1636   -9.8465    0.6058 H   0  0  0  0  0  0  0  0  0  0  0  0
    1.0105   -9.5880    1.7235 H   0  0  0  0  0  0  0  0  0  0  0  0
    0.6295  -10.0290    5.4394 H   0  0  0  0  0  0  0  0  0  0  0  0
    0.9813  -12.2035    4.2747 H   0  0  0  0  0  0  0  0  0  0  0  0
    1.0862  -11.9922    2.5228 H   0  0  0  0  0  0  0  0  0  0  0  0
   -0.1624  -11.1797    3.4369 H   0  0  0  0  0  0  0  0  0  0  0  0
    3.3227  -11.6426    4.4259 H   0  0  0  0  0  0  0  0  0  0  0  0
    3.9758  -10.1352    3.7477 H   0  0  0  0  0  0  0  0  0  0  0  0
    3.3873  -11.3947    2.6850 H   0  0  0  0  0  0  0  0  0  0  0  0
    3.9754  -10.1015    5.8248 H   0  0  0  0  0  0  0  0  0  0  0  0
    2.6946  -10.7054    6.8126 H   0  0  0  0  0  0  0  0  0  0  0  0
    3.8598   -9.5380    7.3682 H   0  0  0  0  0  0  0  0  0  0  0  0
  1  2  1  0
  1 40  1  0
  1 41  1  0
  1 42  1  0
  2  3  1  0
  2  4  1  0
  2 43  1  0
  3 44  1  0
  3 45  1  0
  3 46  1  0
  4  5  2  0
  4  6  1  0
  6  7  1  0
  7 26  1  0
  7  8  1  0
  7 47  1  6
  8  9  1  0
  8 48  1  0
  8 49  1  0
  9 38  1  0
  9 10  1  1
  9 11  1  0
 10 50  1  0
 11 12  1  0
 11 13  1  0
 11 51  1  1
 12 52  1  0
 13 14  1  0
 14 15  1  0
 14 53  1  0
 14 54  1  0
 15 38  1  0
 15 16  1  6
 15 17  1  0
 16 55  1  0
 17 26  1  0
 17 18  2  0
 18 19  1  0
 18 27  1  0
 19 20  1  0
 19 21  2  0
 20 56  1  0
 21 25  1  0
 21 22  1  0
 22 23  1  0
 23 24  2  0
 23 57  1  0
 24 25  1  0
 24 58  1  0
 25 26  2  0
 27 29  1  0
 27 28  1  0
 27 59  1  6
 28 29  1  0
 29 30  1  6
 29 31  1  0
 30 60  1  0
 30 61  1  0
 30 62  1  0
 31 35  1  0
 32 31  1  6
 31 63  1  6
 32 33  2  0
 32 34  1  0
 34 35  1  0
 34 38  1  0
 34 64  1  1
 35 36  1  0
 35 37  1  0
 36 65  1  0
 36 66  1  0
 36 67  1  0
 37 68  1  0
 37 69  1  0
 37 70  1  0
 38 39  1  1
 39 71  1  0
 39 72  1  0
 39 73  1  0
M  END
>  <i_m_ct_stereo_status>  (67) 
1

>  <s_m_source_file>  (67) 
/var/tmp/pbs.5075288.sched01/tmpeqwi9iw0/66la8jmv2o.sdf

>  <i_m_source_file_index>  (67) 
41

>  <i_lp_mmshare_version>  (67) 
48012

>  <i_f3d_flags>  (67) 
0

>  <s_epik_input>  (67) 
W0NIM11bQ0hdKFtDSDNdKUMoPU8pT1tDQEhdKFtDSDJdMSljMmMoW2NIXVtjSF1vMyljM2MoW09IXSljKGMyW0NAXShbT0hdKShbQ0BAXTQoW0NIM10pW0NAXTE1W09IXSlbQ0gyXU9bQ0BASF01W09IXSlbQ0BIXTZbQ0BAXShPNikoW0NIM10pW0NAQEhdN1tTK10oW08tXSlbQ0BIXTRDNyhbQ0gzXSlbQ0gzXQ==

>  <s_epik_cmdline>  (67) 
J2VwaWtfcHl0aG9uJywgJy1waHQnLCAnMi4wJywgJy1waCcsICc3LjAnLCAnLXRuJywgJzgnLCAnLW1hJywgJzIwMCcsICctaW1hZScsICc8aW5maWxlLm1hZT4nLCAnLW9tYWUnLCAnPG91dGZpbGUubWFlPic=

>  <r_epik_Ionization_Penalty>  (67) 
0.00533966

>  <r_epik_Ionization_Penalty_Charging>  (67) 
0

>  <r_epik_Ionization_Penalty_Neutral>  (67) 
0.00533966

>  <r_epik_State_Penalty>  (67) 
0.00389884

>  <r_epik_Charging_Adjusted_Penalty>  (67) 
0.00389884

>  <i_epik_Tot_Q>  (67) 
0

>  <i_epik_Tot_abs_Q>  (67) 
2

>  <s_epik_Chemistry_Notes>  (67) 
This compound has an ester and may undergo hydrolysis at high or low pH. This compound contains an acetal/aminal-like group ( X-CH(R)-Y where X, Y are N, S, or O) that may be acid/base labile, releasing an aldehyde.

>  <s_lp_Force_Field>  (67) 
OPLS3e

>  <r_lp_Energy>  (67) 
123.846

>  <b_lp_Chiralities_Consistent>  (67) 
1

>  <s_lp_Variant>  (67) 
52:0-1

>  <s_i_glide_gridfile>  (67) 
pfpi4k_grid

>  <i_i_glide_lignum>  (67) 
41

>  <i_i_glide_rotatable_bonds>  (67) 
7

>  <r_i_docking_score>  (67) 
-2.19668

>  <r_i_glide_ligand_efficiency>  (67) 
-0.0563252

>  <r_i_glide_ligand_efficiency_sa>  (67) 
-0.191011

>  <r_i_glide_ligand_efficiency_ln>  (67) 
-0.471031

>  <r_i_glide_gscore>  (67) 
-2.19668

>  <r_i_glide_lipo>  (67) 
-0.252048

>  <r_i_glide_hbond>  (67) 
-0.00234096

>  <r_i_glide_metal>  (67) 
-0

>  <r_i_glide_rewards>  (67) 
0

>  <r_i_glide_evdw>  (67) 
-26.3606

>  <r_i_glide_ecoul>  (67) 
-4.19474

>  <r_i_glide_erotb>  (67) 
0.0491169

>  <r_i_glide_esite>  (67) 
-0.0441697

>  <r_i_glide_emodel>  (67) 
-34.6812

>  <r_i_glide_energy>  (67) 
-30.5553

>  <r_i_glide_einternal>  (67) 
1.35001

>  <r_i_glide_intrahb_reward>  (67) 
-0

>  <i_i_glide_confnum>  (67) 
4

>  <i_i_glide_posenum>  (67) 
6

>  <r_i_glide_eff_state_penalty>  (67) 
0

>  <ligand_id>  (67) 
52

>  <original_smiles>  (67) 
CC(C)C(=O)OC1CC2(O)C(O)OCC3(O)c4c(c(O)c5occc5c41)C1OC1(C)C1[S+]([O-])C(C1(C)C)C32C

>  <smiles>  (67) 
[H]Oc1c2c3c(c4c([H])c([H])oc14)C([H])(OC(=O)C([H])(C([H])([H])[H])C([H])([H])[H])C([H])([H])C1(O[H])C([H])(O[H])OC([H])([H])C3(O[H])C1(C([H])([H])[H])C1([H])S(=O)C([H])(C3(C([H])([H])[H])OC23[H])C1(C([H])([H])[H])C([H])([H])[H]

$$$$
52:0:2
     RDKit          3D

 73 79  0  0  1  0  0  0  0  0999 V2000
    1.6275   -3.8247   10.3181 C   0  0  0  0  0  0  0  0  0  0  0  0
    0.9540   -2.8375    9.3468 C   0  0  0  0  0  0  0  0  0  0  0  0
    0.0135   -1.8774   10.0911 C   0  0  0  0  0  0  0  0  0  0  0  0
    0.2478   -3.5693    8.1939 C   0  0  0  0  0  0  0  0  0  0  0  0
   -0.9731   -3.5223    8.0254 O   0  0  0  0  0  0  0  0  0  0  0  0
    1.1159   -4.2245    7.4136 O   0  0  0  0  0  0  0  0  0  0  0  0
    0.7132   -5.0009    6.2860 C   0  0  2  0  0  0  0  0  0  0  0  0
    0.1452   -6.4042    6.5951 C   0  0  0  0  0  0  0  0  0  0  0  0
    1.1172   -7.5114    7.0451 C   0  0  2  0  0  0  0  0  0  0  0  0
    0.2577   -8.5032    7.5952 O   0  0  0  0  0  0  0  0  0  0  0  0
    1.9729   -6.8918    8.2195 C   0  0  1  0  0  0  0  0  0  0  0  0
    2.4945   -7.8305    9.1358 O   0  0  0  0  0  0  0  0  0  0  0  0
    2.9497   -6.0139    7.7486 O   0  0  0  0  0  0  0  0  0  0  0  0
    3.7719   -6.4537    6.6807 C   0  0  0  0  0  0  0  0  0  0  0  0
    3.0126   -6.9967    5.4317 C   0  0  2  0  0  0  0  0  0  0  0  0
    4.0975   -7.6545    4.8034 O   0  0  0  0  0  0  0  0  0  0  0  0
    2.4891   -5.7949    4.5739 C   0  0  0  0  0  0  0  0  0  0  0  0
    2.9437   -5.6835    3.2068 C   0  0  0  0  0  0  0  0  0  0  0  0
    2.8070   -4.4113    2.5697 C   0  0  0  0  0  0  0  0  0  0  0  0
    3.3207   -4.1922    1.3116 O   0  0  0  0  0  0  0  0  0  0  0  0
    2.1519   -3.3703    3.2135 C   0  0  0  0  0  0  0  0  0  0  0  0
    1.9497   -2.0866    2.7383 O   0  0  0  0  0  0  0  0  0  0  0  0
    1.1829   -1.4444    3.6624 C   0  0  0  0  0  0  0  0  0  0  0  0
    0.8662   -2.2649    4.7140 C   0  0  0  0  0  0  0  0  0  0  0  0
    1.5190   -3.5131    4.4624 C   0  0  0  0  0  0  0  0  0  0  0  0
    1.6541   -4.7623    5.1074 C   0  0  0  0  0  0  0  0  0  0  0  0
    3.4757   -6.7792    2.3393 C   0  0  2  0  0  0  0  0  0  0  0  0
    2.6578   -6.8909    1.1631 O   0  0  0  0  0  0  0  0  0  0  0  0
    2.8371   -8.0921    1.9088 C   0  0  1  0  0  0  0  0  0  0  0  0
    3.7365   -9.0747    1.1545 C   0  0  0  0  0  0  0  0  0  0  0  0
    1.5334   -8.7883    2.3947 C   0  0  2  0  0  0  0  0  0  0  0  0
    0.2272   -7.8656    3.3341 S   0  0  0  0  0  0  0  0  0  0  0  0
    0.2656   -6.3366    3.2455 O   0  0  0  0  0  0  0  0  0  0  0  0
    1.0854   -8.7968    4.7061 C   0  0  1  0  0  0  0  0  0  0  0  0
    1.5198   -9.8299    3.5702 C   0  0  0  0  0  0  0  0  0  0  0  0
    0.4559  -10.9154    3.3641 C   0  0  0  0  0  0  0  0  0  0  0  0
    2.8149  -10.6268    3.7146 C   0  0  0  0  0  0  0  0  0  0  0  0
    1.9853   -8.1213    5.8594 C   0  0  2  0  0  0  0  0  0  0  0  0
    2.7604   -9.3253    6.5199 C   0  0  0  0  0  0  0  0  0  0  0  0
    2.3635   -4.4510    9.8126 H   0  0  0  0  0  0  0  0  0  0  0  0
    0.8958   -4.4768   10.7989 H   0  0  0  0  0  0  0  0  0  0  0  0
    2.1632   -3.2895   11.1037 H   0  0  0  0  0  0  0  0  0  0  0  0
    1.7444   -2.2406    8.8907 H   0  0  0  0  0  0  0  0  0  0  0  0
   -0.3647   -1.1028    9.4256 H   0  0  0  0  0  0  0  0  0  0  0  0
    0.5360   -1.3702   10.9022 H   0  0  0  0  0  0  0  0  0  0  0  0
   -0.8326   -2.4055   10.5317 H   0  0  0  0  0  0  0  0  0  0  0  0
   -0.1814   -4.4962    5.9139 H   0  0  0  0  0  0  0  0  0  0  0  0
   -0.5795   -6.2474    7.3909 H   0  0  0  0  0  0  0  0  0  0  0  0
   -0.4591   -6.7446    5.7593 H   0  0  0  0  0  0  0  0  0  0  0  0
   -0.0593   -9.0574    6.9005 H   0  0  0  0  0  0  0  0  0  0  0  0
    1.3185   -6.2948    8.8540 H   0  0  0  0  0  0  0  0  0  0  0  0
    2.9073   -8.5230    8.6451 H   0  0  0  0  0  0  0  0  0  0  0  0
    4.4086   -5.6183    6.3895 H   0  0  0  0  0  0  0  0  0  0  0  0
    4.4519   -7.1946    7.1006 H   0  0  0  0  0  0  0  0  0  0  0  0
    4.3854   -8.3491    5.3715 H   0  0  0  0  0  0  0  0  0  0  0  0
    3.6833   -4.9621    0.8990 H   0  0  0  0  0  0  0  0  0  0  0  0
    0.9480   -0.4158    3.4236 H   0  0  0  0  0  0  0  0  0  0  0  0
    0.2758   -2.0254    5.5818 H   0  0  0  0  0  0  0  0  0  0  0  0
    4.5328   -6.6507    2.1344 H   0  0  0  0  0  0  0  0  0  0  0  0
    4.4234   -9.5727    1.8326 H   0  0  0  0  0  0  0  0  0  0  0  0
    4.3618   -8.5526    0.4290 H   0  0  0  0  0  0  0  0  0  0  0  0
    3.1651   -9.8340    0.6181 H   0  0  0  0  0  0  0  0  0  0  0  0
    0.9998   -9.1873    1.5347 H   0  0  0  0  0  0  0  0  0  0  0  0
    0.2501   -9.2764    5.2141 H   0  0  0  0  0  0  0  0  0  0  0  0
    0.3831  -11.5695    4.2322 H   0  0  0  0  0  0  0  0  0  0  0  0
    0.6679  -11.5183    2.4839 H   0  0  0  0  0  0  0  0  0  0  0  0
   -0.5385  -10.4909    3.2131 H   0  0  0  0  0  0  0  0  0  0  0  0
    2.7686  -11.3174    4.5588 H   0  0  0  0  0  0  0  0  0  0  0  0
    3.6784   -9.9742    3.8357 H   0  0  0  0  0  0  0  0  0  0  0  0
    3.0009  -11.2230    2.8197 H   0  0  0  0  0  0  0  0  0  0  0  0
    3.5156   -9.7794    5.9028 H   0  0  0  0  0  0  0  0  0  0  0  0
    2.0888  -10.1293    6.8181 H   0  0  0  0  0  0  0  0  0  0  0  0
    3.3597   -9.0841    7.3824 H   0  0  0  0  0  0  0  0  0  0  0  0
  1  2  1  0
  1 40  1  0
  1 41  1  0
  1 42  1  0
  2  3  1  0
  2  4  1  0
  2 43  1  0
  3 44  1  0
  3 45  1  0
  3 46  1  0
  4  5  2  0
  4  6  1  0
  6  7  1  0
  7 26  1  0
  7  8  1  0
  7 47  1  6
  8  9  1  0
  8 48  1  0
  8 49  1  0
  9 38  1  0
  9 10  1  1
  9 11  1  0
 10 50  1  0
 11 12  1  0
 11 13  1  0
 11 51  1  1
 12 52  1  0
 13 14  1  0
 14 15  1  0
 14 53  1  0
 14 54  1  0
 15 38  1  0
 15 16  1  6
 15 17  1  0
 16 55  1  0
 17 26  1  0
 17 18  2  0
 18 19  1  0
 18 27  1  0
 19 20  1  0
 19 21  2  0
 20 56  1  0
 21 25  1  0
 21 22  1  0
 22 23  1  0
 23 24  2  0
 23 57  1  0
 24 25  1  0
 24 58  1  0
 25 26  2  0
 27 29  1  0
 27 28  1  0
 27 59  1  6
 28 29  1  0
 29 30  1  6
 29 31  1  0
 30 60  1  0
 30 61  1  0
 30 62  1  0
 31 35  1  0
 32 31  1  6
 31 63  1  6
 32 33  2  0
 32 34  1  0
 34 35  1  0
 34 38  1  0
 34 64  1  1
 35 36  1  0
 35 37  1  0
 36 65  1  0
 36 66  1  0
 36 67  1  0
 37 68  1  0
 37 69  1  0
 37 70  1  0
 38 39  1  1
 39 71  1  0
 39 72  1  0
 39 73  1  0
M  END
>  <i_m_ct_stereo_status>  (68) 
1

>  <s_m_source_file>  (68) 
/var/tmp/pbs.5075288.sched01/tmpeqwi9iw0/66la8jmv2o.sdf

>  <i_m_source_file_index>  (68) 
41

>  <i_lp_mmshare_version>  (68) 
48012

>  <i_f3d_flags>  (68) 
0

>  <s_epik_input>  (68) 
W0NIM11bQ0hdKFtDSDNdKUMoPU8pT1tDQEhdKFtDSDJdMSljMmMoW2NIXVtjSF1vMyljM2MoW09IXSljKGMyW0NAXShbT0hdKShbQ0BAXTQoW0NIM10pW0NAXTE1W09IXSlbQ0gyXU9bQ0BASF01W09IXSlbQ0BIXTZbQ0BAXShPNikoW0NIM10pW0NAQEhdN1tTK10oW08tXSlbQ0BIXTRDNyhbQ0gzXSlbQ0gzXQ==

>  <s_epik_cmdline>  (68) 
J2VwaWtfcHl0aG9uJywgJy1waHQnLCAnMi4wJywgJy1waCcsICc3LjAnLCAnLXRuJywgJzgnLCAnLW1hJywgJzIwMCcsICctaW1hZScsICc8aW5maWxlLm1hZT4nLCAnLW9tYWUnLCAnPG91dGZpbGUubWFlPic=

>  <r_epik_Ionization_Penalty>  (68) 
0.00533966

>  <r_epik_Ionization_Penalty_Charging>  (68) 
0

>  <r_epik_Ionization_Penalty_Neutral>  (68) 
0.00533966

>  <r_epik_State_Penalty>  (68) 
0.00389884

>  <r_epik_Charging_Adjusted_Penalty>  (68) 
0.00389884

>  <i_epik_Tot_Q>  (68) 
0

>  <i_epik_Tot_abs_Q>  (68) 
2

>  <s_epik_Chemistry_Notes>  (68) 
This compound has an ester and may undergo hydrolysis at high or low pH. This compound contains an acetal/aminal-like group ( X-CH(R)-Y where X, Y are N, S, or O) that may be acid/base labile, releasing an aldehyde.

>  <s_lp_Force_Field>  (68) 
OPLS3e

>  <r_lp_Energy>  (68) 
123.846

>  <b_lp_Chiralities_Consistent>  (68) 
1

>  <s_lp_Variant>  (68) 
52:0-1

>  <s_i_glide_gridfile>  (68) 
pfpi4k_grid

>  <i_i_glide_lignum>  (68) 
41

>  <i_i_glide_rotatable_bonds>  (68) 
7

>  <r_i_docking_score>  (68) 
-2.12614

>  <r_i_glide_ligand_efficiency>  (68) 
-0.0545163

>  <r_i_glide_ligand_efficiency_sa>  (68) 
-0.184876

>  <r_i_glide_ligand_efficiency_ln>  (68) 
-0.455904

>  <r_i_glide_gscore>  (68) 
-2.12614

>  <r_i_glide_lipo>  (68) 
-0.0565824

>  <r_i_glide_hbond>  (68) 
-0.134447

>  <r_i_glide_metal>  (68) 
-0

>  <r_i_glide_rewards>  (68) 
0

>  <r_i_glide_evdw>  (68) 
-25.7579

>  <r_i_glide_ecoul>  (68) 
-4.25445

>  <r_i_glide_erotb>  (68) 
0.0491169

>  <r_i_glide_esite>  (68) 
-0.0581581

>  <r_i_glide_emodel>  (68) 
-34.3948

>  <r_i_glide_energy>  (68) 
-30.0124

>  <r_i_glide_einternal>  (68) 
0.699449

>  <r_i_glide_intrahb_reward>  (68) 
-0

>  <i_i_glide_confnum>  (68) 
1

>  <i_i_glide_posenum>  (68) 
28

>  <r_i_glide_eff_state_penalty>  (68) 
0

>  <ligand_id>  (68) 
52

>  <original_smiles>  (68) 
CC(C)C(=O)OC1CC2(O)C(O)OCC3(O)c4c(c(O)c5occc5c41)C1OC1(C)C1[S+]([O-])C(C1(C)C)C32C

>  <smiles>  (68) 
[H]Oc1c2c3c(c4c([H])c([H])oc14)C([H])(OC(=O)C([H])(C([H])([H])[H])C([H])([H])[H])C([H])([H])C1(O[H])C([H])(O[H])OC([H])([H])C3(O[H])C1(C([H])([H])[H])C1([H])S(=O)C([H])(C3(C([H])([H])[H])OC23[H])C1(C([H])([H])[H])C([H])([H])[H]

$$$$
53:0:0
     RDKit          3D

136146  0  0  1  0  0  0  0  0999 V2000
    2.9192   -9.4678    6.6541 C   0  0  0  0  0  0  0  0  0  0  0  0
    2.6980   -8.4052    5.8558 C   0  0  0  0  0  0  0  0  0  0  0  0
    3.6988   -7.7084    4.9268 C   0  0  1  0  0  0  0  0  0  0  0  0
    4.9249   -8.6196    4.6649 C   0  0  0  0  0  0  0  0  0  0  0  0
    3.0470   -7.2498    3.6070 C   0  0  0  0  0  0  0  0  0  0  0  0
    2.5946   -5.7634    3.7329 C   0  0  2  0  0  0  0  0  0  0  0  0
    1.1904   -5.8845    3.9471 O   0  0  0  0  0  0  0  0  0  0  0  0
    2.8303   -4.9609    2.3601 C   0  0  1  0  0  0  0  0  0  0  0  0
    1.8314   -5.3862    1.4708 O   0  0  0  0  0  0  0  0  0  0  0  0
    2.7206   -3.5799    2.6135 O   0  0  0  0  0  0  0  0  0  0  0  0
    3.7224   -2.8405    1.9192 C   0  0  1  0  0  0  0  0  0  0  0  0
    4.8834   -2.4381    2.6736 O   0  0  0  0  0  0  0  0  0  0  0  0
    4.9221   -1.2406    1.8053 C   0  0  1  0  0  0  0  0  0  0  0  0
    5.7089   -1.5955    0.5153 C   0  0  1  0  0  0  0  0  0  0  0  0
    7.0216   -1.0432    0.5345 O   0  0  0  0  0  0  0  0  0  0  0  0
    5.6650   -3.1408    0.2649 C   0  0  1  0  0  0  0  0  0  0  0  0
    6.0173   -3.4803   -1.1972 C   0  0  0  0  0  0  0  0  0  0  0  0
    6.7759   -3.6843    0.9665 O   0  0  0  0  0  0  0  0  0  0  0  0
    4.2510   -3.7033    0.7760 C   0  0  2  0  0  0  0  0  0  0  0  0
    3.2623   -3.6097   -0.4184 C   0  0  0  0  0  0  0  0  0  0  0  0
    4.1643   -5.0851    1.5253 C   0  0  1  0  0  0  0  0  0  0  0  0
    5.2626   -5.3944    2.3727 O   0  0  0  0  0  0  0  0  0  0  0  0
    3.3993   -1.3304    1.7346 C   0  0  2  0  0  0  0  0  0  0  0  0
    2.5323   -0.6411    2.8207 C   0  0  0  0  0  0  0  0  0  0  0  0
    3.4758   -0.4192    4.4224 S   0  0  0  0  0  0  0  0  0  0  0  0
    3.9904    1.0215    4.3791 O   0  0  0  0  0  0  0  0  0  0  0  0
    2.1802   -0.5835    5.7616 C   0  0  2  0  0  0  0  0  0  0  0  0
    1.3034   -1.6479    5.4528 O   0  0  0  0  0  0  0  0  0  0  0  0
    1.1913    0.6124    5.6043 C   0  0  0  0  0  0  0  0  0  0  0  0
    1.7058    1.8618    6.2847 C   0  0  1  0  0  0  0  0  0  0  0  0
    1.4921    3.1648    5.7802 O   0  0  0  0  0  0  0  0  0  0  0  0
    2.0193    4.0644    6.7805 C   0  0  0  0  0  0  0  0  0  0  0  0
    1.8236    3.3834    8.1349 C   0  0  2  0  0  0  0  0  0  0  0  0
    2.4320    2.0877    8.7100 C   0  0  2  0  0  0  0  0  0  0  0  0
    3.8222    1.4982    8.4009 C   0  0  2  0  0  0  0  0  0  0  0  0
    4.8289    2.2764    7.5034 C   0  0  1  0  0  0  0  0  0  0  0  0
    5.4166    3.3244    8.2454 O   0  0  0  0  0  0  0  0  0  0  0  0
    5.8324    1.2242    6.9808 C   0  0  1  0  0  0  0  0  0  0  0  0
    7.3414    1.5394    7.1928 C   0  0  0  0  0  0  0  0  0  0  0  0
    7.9296    2.4971    6.1461 C   0  0  0  0  0  0  0  0  0  0  0  0
    5.3926   -0.1235    7.5950 C   0  0  2  0  0  0  0  0  0  0  0  0
    5.7379   -1.3797    6.7638 C   0  0  1  0  0  0  0  0  0  0  0  0
    7.0868   -1.8023    6.9551 O   0  0  0  0  0  0  0  0  0  0  0  0
    7.5153   -2.3477    8.1160 C   0  0  0  0  0  0  0  0  0  0  0  0
    8.9640   -2.7922    8.0519 C   0  0  0  0  0  0  0  0  0  0  0  0
    6.8554   -2.5005    9.1416 O   0  0  0  0  0  0  0  0  0  0  0  0
    4.7660   -2.5227    6.9672 C   0  0  0  0  0  0  0  0  0  0  0  0
    3.4317   -2.4240    7.1658 C   0  0  0  0  0  0  0  0  0  0  0  0
    2.6477   -3.7797    7.4518 C   0  0  1  0  0  0  0  0  0  0  0  0
    3.4518   -4.6298    8.4866 C   0  0  0  0  0  0  0  0  0  0  0  0
    1.2878   -3.5571    8.1767 C   0  0  0  0  0  0  0  0  0  0  0  0
    0.5873   -4.7575    8.4551 O   0  0  0  0  0  0  0  0  0  0  0  0
    0.3614   -5.5689    7.3461 C   0  0  0  0  0  0  0  0  0  0  0  0
   -0.0350   -6.9289    7.9132 C   0  0  0  0  0  0  0  0  0  0  0  0
   -0.7649   -4.9963    6.4550 C   0  0  0  0  0  0  0  0  0  0  0  0
    1.5286   -5.7750    6.6014 O   0  0  0  0  0  0  0  0  0  0  0  0
    2.2746   -4.6325    6.1527 C   0  0  2  0  0  0  0  0  0  0  0  0
    3.2930   -5.1815    5.0411 C   0  0  2  0  0  0  0  0  0  0  0  0
    4.2027   -4.1622    4.7142 O   0  0  0  0  0  0  0  0  0  0  0  0
    4.1449   -6.3716    5.5382 C   0  0  0  0  0  0  0  0  0  0  0  0
    5.1434   -6.2569    6.2469 O   0  0  0  0  0  0  0  0  0  0  0  0
    2.8346   -0.9452    7.2070 C   0  0  2  0  0  0  0  0  0  0  0  0
    1.7178   -0.8531    8.0721 O   0  0  0  0  0  0  0  0  0  0  0  0
    3.9164   -0.0320    8.0376 C   0  0  2  0  0  0  0  0  0  0  0  0
    3.9297   -0.6473    9.3301 O   0  0  0  0  0  0  0  0  0  0  0  0
    1.3394    2.0537    7.7140 C   0  0  2  0  0  0  0  0  0  0  0  0
    0.0566    1.6644    8.1851 O   0  0  0  0  0  0  0  0  0  0  0  0
   -1.1270    2.1732    7.7853 C   0  0  0  0  0  0  0  0  0  0  0  0
   -1.0789    3.4000    6.8719 C   0  0  0  0  0  0  0  0  0  0  0  0
   -2.2034    1.6917    8.1114 O   0  0  0  0  0  0  0  0  0  0  0  0
    3.8778   -9.9639    6.7182 H   0  0  0  0  0  0  0  0  0  0  0  0
    2.1217   -9.8684    7.2669 H   0  0  0  0  0  0  0  0  0  0  0  0
    1.7042   -7.9896    5.8580 H   0  0  0  0  0  0  0  0  0  0  0  0
    5.4424   -8.8949    5.5868 H   0  0  0  0  0  0  0  0  0  0  0  0
    5.6755   -8.1462    4.0280 H   0  0  0  0  0  0  0  0  0  0  0  0
    4.6144   -9.5460    4.1792 H   0  0  0  0  0  0  0  0  0  0  0  0
    3.7664   -7.3749    2.8045 H   0  0  0  0  0  0  0  0  0  0  0  0
    2.2239   -7.9087    3.3355 H   0  0  0  0  0  0  0  0  0  0  0  0
    1.0563   -6.4175    4.7230 H   0  0  0  0  0  0  0  0  0  0  0  0
    2.1505   -5.2452    0.5909 H   0  0  0  0  0  0  0  0  0  0  0  0
    5.2746   -0.3467    2.3220 H   0  0  0  0  0  0  0  0  0  0  0  0
    5.2066   -1.1078   -0.3123 H   0  0  0  0  0  0  0  0  0  0  0  0
    7.0137   -0.2135    0.9909 H   0  0  0  0  0  0  0  0  0  0  0  0
    5.3894   -2.9667   -1.9238 H   0  0  0  0  0  0  0  0  0  0  0  0
    5.8850   -4.5503   -1.3502 H   0  0  0  0  0  0  0  0  0  0  0  0
    7.0488   -3.2033   -1.4216 H   0  0  0  0  0  0  0  0  0  0  0  0
    6.5965   -3.5802    1.8938 H   0  0  0  0  0  0  0  0  0  0  0  0
    3.3732   -4.4492   -1.1072 H   0  0  0  0  0  0  0  0  0  0  0  0
    3.4062   -2.6886   -0.9824 H   0  0  0  0  0  0  0  0  0  0  0  0
    2.2313   -3.5551   -0.0935 H   0  0  0  0  0  0  0  0  0  0  0  0
    4.0985   -5.9133    0.8174 H   0  0  0  0  0  0  0  0  0  0  0  0
    5.2498   -4.7843    3.1062 H   0  0  0  0  0  0  0  0  0  0  0  0
    3.0092   -1.1162    0.7436 H   0  0  0  0  0  0  0  0  0  0  0  0
    2.1869    0.3389    2.4831 H   0  0  0  0  0  0  0  0  0  0  0  0
    1.6219   -1.2234    2.9811 H   0  0  0  0  0  0  0  0  0  0  0  0
    1.4656   -1.9328    4.5630 H   0  0  0  0  0  0  0  0  0  0  0  0
    1.0223    0.8227    4.5447 H   0  0  0  0  0  0  0  0  0  0  0  0
    0.2102    0.3497    5.9959 H   0  0  0  0  0  0  0  0  0  0  0  0
    2.7646    1.6949    6.2060 H   0  0  0  0  0  0  0  0  0  0  0  0
    3.0637    4.3819    6.6534 H   0  0  0  0  0  0  0  0  0  0  0  0
    1.4329    4.9799    6.7318 H   0  0  0  0  0  0  0  0  0  0  0  0
    1.2299    3.9440    8.8408 H   0  0  0  0  0  0  0  0  0  0  0  0
    2.1159    1.8692    9.7298 H   0  0  0  0  0  0  0  0  0  0  0  0
    4.3163    1.5766    9.3771 H   0  0  0  0  0  0  0  0  0  0  0  0
    4.3991    2.7503    6.6279 H   0  0  0  0  0  0  0  0  0  0  0  0
    5.9959    3.7969    7.6613 H   0  0  0  0  0  0  0  0  0  0  0  0
    5.6978    1.1488    5.9076 H   0  0  0  0  0  0  0  0  0  0  0  0
    7.5404    1.9066    8.2016 H   0  0  0  0  0  0  0  0  0  0  0  0
    7.9153    0.6175    7.1182 H   0  0  0  0  0  0  0  0  0  0  0  0
    8.9951    2.6481    6.3150 H   0  0  0  0  0  0  0  0  0  0  0  0
    7.4451    3.4721    6.1651 H   0  0  0  0  0  0  0  0  0  0  0  0
    7.8279    2.0841    5.1434 H   0  0  0  0  0  0  0  0  0  0  0  0
    5.9633   -0.1467    8.5269 H   0  0  0  0  0  0  0  0  0  0  0  0
    5.6687   -1.1245    5.7138 H   0  0  0  0  0  0  0  0  0  0  0  0
    9.0529   -3.6160    7.3426 H   0  0  0  0  0  0  0  0  0  0  0  0
    9.2760   -3.1531    9.0310 H   0  0  0  0  0  0  0  0  0  0  0  0
    9.6108   -1.9653    7.7491 H   0  0  0  0  0  0  0  0  0  0  0  0
    5.2332   -3.4916    6.9189 H   0  0  0  0  0  0  0  0  0  0  0  0
    2.9306   -5.5437    8.7672 H   0  0  0  0  0  0  0  0  0  0  0  0
    3.6161   -4.0721    9.4116 H   0  0  0  0  0  0  0  0  0  0  0  0
    4.4322   -4.9475    8.1510 H   0  0  0  0  0  0  0  0  0  0  0  0
    1.4242   -3.0709    9.1450 H   0  0  0  0  0  0  0  0  0  0  0  0
    0.6103   -2.9458    7.5872 H   0  0  0  0  0  0  0  0  0  0  0  0
    0.7463   -7.3053    8.5764 H   0  0  0  0  0  0  0  0  0  0  0  0
   -0.1815   -7.6489    7.1102 H   0  0  0  0  0  0  0  0  0  0  0  0
   -0.9531   -6.8251    8.4874 H   0  0  0  0  0  0  0  0  0  0  0  0
   -0.5105   -4.0286    6.0281 H   0  0  0  0  0  0  0  0  0  0  0  0
   -1.6807   -4.8847    7.0334 H   0  0  0  0  0  0  0  0  0  0  0  0
   -0.9570   -5.6820    5.6335 H   0  0  0  0  0  0  0  0  0  0  0  0
    1.5945   -4.0108    5.5846 H   0  0  0  0  0  0  0  0  0  0  0  0
    3.7064   -3.4253    4.3735 H   0  0  0  0  0  0  0  0  0  0  0  0
    1.0490   -1.4300    7.7236 H   0  0  0  0  0  0  0  0  0  0  0  0
    3.0521   -0.5557    9.6826 H   0  0  0  0  0  0  0  0  0  0  0  0
   -0.5093    3.1638    5.9712 H   0  0  0  0  0  0  0  0  0  0  0  0
   -0.5829    4.2183    7.4005 H   0  0  0  0  0  0  0  0  0  0  0  0
   -2.0850    3.7861    6.6213 H   0  0  0  0  0  0  0  0  0  0  0  0
  1  2  2  0
  1 71  1  0
  1 72  1  0
  2  3  1  0
  2 73  1  0
  3 60  1  0
  3  4  1  6
  3  5  1  0
  4 74  1  0
  4 75  1  0
  4 76  1  0
  5  6  1  0
  5 77  1  0
  5 78  1  0
  6 58  1  0
  6  7  1  1
  6  8  1  0
  7 79  1  0
  8 21  1  0
  8  9  1  6
  8 10  1  0
  9 80  1  0
 11 10  1  1
 11 19  1  0
 11 23  1  0
 11 12  1  0
 12 13  1  0
 13 14  1  0
 13 23  1  0
 13 81  1  1
 14 15  1  0
 14 16  1  0
 14 82  1  6
 15 83  1  0
 16 17  1  0
 16 18  1  1
 16 19  1  0
 17 84  1  0
 17 85  1  0
 17 86  1  0
 18 87  1  0
 19 20  1  6
 19 21  1  0
 20 88  1  0
 20 89  1  0
 20 90  1  0
 21 22  1  0
 21 91  1  6
 22 92  1  0
 23 24  1  0
 23 93  1  6
 25 24  1  6
 24 94  1  0
 24 95  1  0
 25 26  2  0
 25 27  1  0
 27 62  1  0
 27 28  1  6
 27 29  1  0
 28 96  1  0
 29 30  1  0
 29 97  1  0
 29 98  1  0
 30 66  1  0
 30 31  1  0
 30 99  1  1
 31 32  1  0
 32 33  1  0
 32100  1  0
 32101  1  0
 33 66  1  0
 33 34  1  0
 33102  1  1
 34 35  1  0
 34 66  1  0
 34103  1  1
 35 64  1  0
 35 36  1  0
 35104  1  1
 36 37  1  0
 36 38  1  0
 36105  1  6
 37106  1  0
 38 39  1  0
 38 41  1  0
 38107  1  6
 39 40  1  0
 39108  1  0
 39109  1  0
 40110  1  0
 40111  1  0
 40112  1  0
 41 64  1  0
 41 42  1  0
 41113  1  1
 42 43  1  0
 42 47  1  0
 42114  1  6
 43 44  1  0
 44 45  1  0
 44 46  2  0
 45115  1  0
 45116  1  0
 45117  1  0
 47 48  2  0
 47118  1  0
 48 49  1  0
 48 62  1  0
 49 57  1  0
 49 50  1  1
 49 51  1  0
 50119  1  0
 50120  1  0
 50121  1  0
 51 52  1  0
 51122  1  0
 51123  1  0
 52 53  1  0
 53 54  1  0
 53 55  1  0
 53 56  1  0
 54124  1  0
 54125  1  0
 54126  1  0
 55127  1  0
 55128  1  0
 55129  1  0
 56 57  1  0
 57 58  1  0
 57130  1  6
 58 59  1  6
 58 60  1  0
 59131  1  0
 60 61  2  0
 62 63  1  1
 62 64  1  0
 63132  1  0
 64 65  1  1
 65133  1  0
 66 67  1  1
 67 68  1  0
 68 69  1  0
 68 70  2  0
 69134  1  0
 69135  1  0
 69136  1  0
M  END
>  <i_m_ct_stereo_status>  (69) 
1

>  <s_m_source_file>  (69) 
/var/tmp/pbs.5075288.sched01/tmpeqwi9iw0/66la8jmv2o.sdf

>  <i_m_source_file_index>  (69) 
42

>  <i_lp_mmshare_version>  (69) 
48012

>  <i_f3d_flags>  (69) 
0

>  <s_epik_input>  (69) 
W0NAXTEyM1tDQEBdNChbQ0gzXSlbQ0BdKFtDSDNdKShbT0hdKVtDQEhdKFtPSF0pW0NASF0oTzIpW0NAQEhdM1tDSDJdW1MrXShbTy1dKVtDQEBdNShbT0hdKVtDQEBdNihbT0hdKUMoW0NAXTcoW0NIM10pW0NASF0oT0MoW0NIM10pKFtDSDNdKU9bQ0gyXTcpW0NAXTgoW09IXSlbQ0BAXShbT0hdKShbQ0BdKE8xKShbT0hdKVtDQEBIXTRbT0hdKVtDSDJdW0NAQF0oW0NIM10pKEM4PU8pW0NIXT1bQ0gyXSk9W0NIXVtDQEhdKE9DKD1PKVtDSDNdKVtDQEBIXTlbQ0BAXTYoW09IXSlbQ0BASF0oW0NAQEhdKFtPSF0pW0NASF05W0NIMl1bQ0gzXSlbQ0BIXTFbQ0BASF0yW0NAXTEoW0NAQEhdKFtDSDJdNSlPW0NIMl0yKU9DKD1PKVtDSDNd

>  <s_epik_cmdline>  (69) 
J2VwaWtfcHl0aG9uJywgJy1waHQnLCAnMi4wJywgJy1waCcsICc3LjAnLCAnLXRuJywgJzgnLCAnLW1hJywgJzIwMCcsICctaW1hZScsICc8aW5maWxlLm1hZT4nLCAnLW9tYWUnLCAnPG91dGZpbGUubWFlPic=

>  <r_lp_tautomer_probability>  (69) 
1

>  <r_epik_Ionization_Penalty>  (69) 
3.17675e-05

>  <r_epik_Ionization_Penalty_Charging>  (69) 
0

>  <r_epik_Ionization_Penalty_Neutral>  (69) 
3.17675e-05

>  <r_epik_State_Penalty>  (69) 
-0

>  <r_epik_Charging_Adjusted_Penalty>  (69) 
0

>  <i_epik_Tot_Q>  (69) 
0

>  <i_epik_Tot_abs_Q>  (69) 
2

>  <s_epik_Chemistry_Notes>  (69) 
This compound has an ester and may undergo hydrolysis at high or low pH.

>  <s_lp_Force_Field>  (69) 
OPLS3e

>  <r_lp_Energy>  (69) 
172.762

>  <b_lp_Chiralities_Consistent>  (69) 
1

>  <s_lp_Variant>  (69) 
53:0-1

>  <s_i_glide_gridfile>  (69) 
pfpi4k_grid

>  <i_i_glide_lignum>  (69) 
42

>  <i_i_glide_rotatable_bonds>  (69) 
16

>  <r_i_docking_score>  (69) 
-5.36862

>  <r_i_glide_ligand_efficiency>  (69) 
-0.0766946

>  <r_i_glide_ligand_efficiency_sa>  (69) 
-0.31608

>  <r_i_glide_ligand_efficiency_ln>  (69) 
-1.02289

>  <r_i_glide_gscore>  (69) 
-5.36862

>  <r_i_glide_lipo>  (69) 
-0.620123

>  <r_i_glide_hbond>  (69) 
-0.0259404

>  <r_i_glide_metal>  (69) 
-0

>  <r_i_glide_rewards>  (69) 
-2.03657

>  <r_i_glide_evdw>  (69) 
-31.6337

>  <r_i_glide_ecoul>  (69) 
-7.65437

>  <r_i_glide_erotb>  (69) 
0.0654256

>  <r_i_glide_esite>  (69) 
-0.0215682

>  <r_i_glide_emodel>  (69) 
-67.4458

>  <r_i_glide_energy>  (69) 
-39.2881

>  <r_i_glide_einternal>  (69) 
10.1281

>  <r_i_glide_intrahb_reward>  (69) 
-2

>  <i_i_glide_confnum>  (69) 
3

>  <i_i_glide_posenum>  (69) 
25

>  <r_i_glide_eff_state_penalty>  (69) 
0

>  <ligand_id>  (69) 
53

>  <original_smiles>  (69) 
C=CC1(C)CC2(O)C3(O)OC45OC(C(O)C(C)(O)C4(C)C3O)C5C[S+]([O-])C3(O)CC4OCC5C(C6C(O)C(CC)C7C(OC(C)=O)C=C(C8(C)COC(C)(C)OC8C2(O)C1=O)C3(O)C76O)C45OC(C)=O

>  <smiles>  (69) 
[H]OC1([H])C([H])(C([H])([H])C([H])([H])[H])C2([H])C([H])(OC(=O)C([H])([H])[H])C([H])=C3C4(O[H])C(O[H])(S(=O)C([H])([H])C5([H])C6([H])OC57OC(O[H])(C([H])(O[H])C7(C([H])([H])[H])C(O[H])(C([H])([H])[H])C6([H])O[H])C5(O[H])C([H])([H])C(C([H])=C([H])[H])(C([H])([H])[H])C(=O)C5(O[H])C5([H])OC(C([H])([H])[H])(C([H])([H])[H])OC([H])([H])C35C([H])([H])[H])C([H])([H])C3([H])OC([H])([H])C5([H])C([H])(C1([H])C42O[H])C35OC(=O)C([H])([H])[H]

$$$$
53:0:1
     RDKit          3D

136146  0  0  1  0  0  0  0  0999 V2000
    3.0470   -8.1051    7.6965 C   0  0  0  0  0  0  0  0  0  0  0  0
    2.7582   -7.2220    6.7202 C   0  0  0  0  0  0  0  0  0  0  0  0
    3.7299   -6.5808    5.7248 C   0  0  1  0  0  0  0  0  0  0  0  0
    5.0496   -7.3977    5.6572 C   0  0  0  0  0  0  0  0  0  0  0  0
    3.1053   -6.4036    4.3300 C   0  0  0  0  0  0  0  0  0  0  0  0
    2.5092   -4.9733    4.2027 C   0  0  2  0  0  0  0  0  0  0  0  0
    1.1125   -5.2020    4.3758 O   0  0  0  0  0  0  0  0  0  0  0  0
    2.7326   -4.3771    2.7230 C   0  0  1  0  0  0  0  0  0  0  0  0
    1.8356   -5.0472    1.8890 O   0  0  0  0  0  0  0  0  0  0  0  0
    2.4718   -2.9946    2.7462 O   0  0  0  0  0  0  0  0  0  0  0  0
    3.4249   -2.2819    1.9781 C   0  0  1  0  0  0  0  0  0  0  0  0
    4.5125   -1.6522    2.6909 O   0  0  0  0  0  0  0  0  0  0  0  0
    4.4744   -0.6069    1.6458 C   0  0  1  0  0  0  0  0  0  0  0  0
    5.3316   -1.1052    0.4487 C   0  0  1  0  0  0  0  0  0  0  0  0
    6.6024   -0.5043    0.4533 O   0  0  0  0  0  0  0  0  0  0  0  0
    5.4642   -2.6580    0.4512 C   0  0  1  0  0  0  0  0  0  0  0  0
    5.9472   -3.1694   -0.9219 C   0  0  0  0  0  0  0  0  0  0  0  0
    6.5896   -2.9599    1.2667 O   0  0  0  0  0  0  0  0  0  0  0  0
    4.0895   -3.2588    1.0042 C   0  0  2  0  0  0  0  0  0  0  0  0
    3.1653   -3.4459   -0.2210 C   0  0  0  0  0  0  0  0  0  0  0  0
    4.1083   -4.4978    1.9649 C   0  0  1  0  0  0  0  0  0  0  0  0
    5.1914   -4.5606    2.8834 O   0  0  0  0  0  0  0  0  0  0  0  0
    2.9763   -0.8551    1.5455 C   0  0  2  0  0  0  0  0  0  0  0  0
    1.9881   -0.0904    2.4746 C   0  0  0  0  0  0  0  0  0  0  0  0
    2.8228    0.4796    4.0555 S   0  0  0  0  0  0  0  0  0  0  0  0
    3.1880    1.9423    3.8153 O   0  0  0  0  0  0  0  0  0  0  0  0
    1.4827    0.3856    5.3607 C   0  0  2  0  0  0  0  0  0  0  0  0
    0.7399   -0.8025    5.1708 O   0  0  0  0  0  0  0  0  0  0  0  0
    0.3813    1.4290    4.9774 C   0  0  0  0  0  0  0  0  0  0  0  0
    0.7012    2.8319    5.4584 C   0  0  1  0  0  0  0  0  0  0  0  0
    0.3582    4.0021    4.7344 O   0  0  0  0  0  0  0  0  0  0  0  0
    0.7394    5.0941    5.5958 C   0  0  0  0  0  0  0  0  0  0  0  0
    0.6001    4.6197    7.0512 C   0  0  2  0  0  0  0  0  0  0  0  0
    1.3099    3.4923    7.8432 C   0  0  2  0  0  0  0  0  0  0  0  0
    2.7644    2.9956    7.6720 C   0  0  2  0  0  0  0  0  0  0  0  0
    3.7113    3.7385    6.7087 C   0  0  1  0  0  0  0  0  0  0  0  0
    4.0670    4.9505    7.3263 O   0  0  0  0  0  0  0  0  0  0  0  0
    4.8890    2.7854    6.4262 C   0  0  1  0  0  0  0  0  0  0  0  0
    6.3561    3.3362    6.6349 C   0  0  0  0  0  0  0  0  0  0  0  0
    6.6915    4.7084    5.9693 C   0  0  0  0  0  0  0  0  0  0  0  0
    4.5532    1.4598    7.1768 C   0  0  2  0  0  0  0  0  0  0  0  0
    5.0453    0.1399    6.5383 C   0  0  1  0  0  0  0  0  0  0  0  0
    6.3917   -0.0487    6.9368 O   0  0  0  0  0  0  0  0  0  0  0  0
    7.3983    0.4137    6.2456 C   0  0  0  0  0  0  0  0  0  0  0  0
    8.6370    0.6838    7.0357 C   0  0  0  0  0  0  0  0  0  0  0  0
    7.3418    0.7241    4.9968 O   0  0  0  0  0  0  0  0  0  0  0  0
    4.2093   -1.0508    6.9396 C   0  0  0  0  0  0  0  0  0  0  0  0
    2.8603   -1.0748    7.0836 C   0  0  0  0  0  0  0  0  0  0  0  0
    2.1913   -2.4361    7.5549 C   0  0  1  0  0  0  0  0  0  0  0  0
    3.0147   -3.0320    8.7382 C   0  0  0  0  0  0  0  0  0  0  0  0
    0.7768   -2.2372    8.1779 C   0  0  0  0  0  0  0  0  0  0  0  0
    0.1722   -3.4424    8.6241 O   0  0  0  0  0  0  0  0  0  0  0  0
    0.0881   -4.4447    7.6563 C   0  0  0  0  0  0  0  0  0  0  0  0
   -0.2082   -5.7340    8.4118 C   0  0  0  0  0  0  0  0  0  0  0  0
   -1.0314   -4.1436    6.6472 C   0  0  0  0  0  0  0  0  0  0  0  0
    1.3093   -4.6416    6.9994 O   0  0  0  0  0  0  0  0  0  0  0  0
    1.9629   -3.5114    6.3978 C   0  0  2  0  0  0  0  0  0  0  0  0
    3.0801   -4.1238    5.4182 C   0  0  2  0  0  0  0  0  0  0  0  0
    3.8993   -3.0758    4.9675 O   0  0  0  0  0  0  0  0  0  0  0  0
    4.0130   -5.1287    6.1246 C   0  0  0  0  0  0  0  0  0  0  0  0
    4.9688   -4.8035    6.8355 O   0  0  0  0  0  0  0  0  0  0  0  0
    2.1008    0.3173    6.8655 C   0  0  2  0  0  0  0  0  0  0  0  0
    0.9465    0.4306    7.6857 O   0  0  0  0  0  0  0  0  0  0  0  0
    3.0523    1.4542    7.5675 C   0  0  2  0  0  0  0  0  0  0  0  0
    3.0858    1.0640    8.9471 O   0  0  0  0  0  0  0  0  0  0  0  0
    0.2751    3.1830    6.8535 C   0  0  2  0  0  0  0  0  0  0  0  0
   -0.9662    2.7488    7.3898 O   0  0  0  0  0  0  0  0  0  0  0  0
   -2.1497    3.0881    6.8308 C   0  0  0  0  0  0  0  0  0  0  0  0
   -3.3462    2.5696    7.6238 C   0  0  0  0  0  0  0  0  0  0  0  0
   -2.3133    3.7131    5.7844 O   0  0  0  0  0  0  0  0  0  0  0  0
    4.0460   -8.4692    7.8797 H   0  0  0  0  0  0  0  0  0  0  0  0
    2.2631   -8.4835    8.3395 H   0  0  0  0  0  0  0  0  0  0  0  0
    1.7290   -6.9242    6.6153 H   0  0  0  0  0  0  0  0  0  0  0  0
    5.5447   -7.4701    6.6280 H   0  0  0  0  0  0  0  0  0  0  0  0
    5.7847   -6.9528    4.9804 H   0  0  0  0  0  0  0  0  0  0  0  0
    4.8490   -8.4139    5.3149 H   0  0  0  0  0  0  0  0  0  0  0  0
    3.8723   -6.5831    3.5837 H   0  0  0  0  0  0  0  0  0  0  0  0
    2.3644   -7.1834    4.1368 H   0  0  0  0  0  0  0  0  0  0  0  0
    0.9856   -5.6518    5.2076 H   0  0  0  0  0  0  0  0  0  0  0  0
    2.1542   -4.9656    0.9943 H   0  0  0  0  0  0  0  0  0  0  0  0
    4.7105    0.3893    2.0176 H   0  0  0  0  0  0  0  0  0  0  0  0
    4.8399   -0.7720   -0.4619 H   0  0  0  0  0  0  0  0  0  0  0  0
    6.4766    0.4310    0.5488 H   0  0  0  0  0  0  0  0  0  0  0  0
    5.3020   -2.8504   -1.7415 H   0  0  0  0  0  0  0  0  0  0  0  0
    6.0080   -4.2585   -0.9277 H   0  0  0  0  0  0  0  0  0  0  0  0
    6.9398   -2.7861   -1.1455 H   0  0  0  0  0  0  0  0  0  0  0  0
    6.3916   -2.6342    2.1391 H   0  0  0  0  0  0  0  0  0  0  0  0
    3.3809   -4.3686   -0.7616 H   0  0  0  0  0  0  0  0  0  0  0  0
    3.2458   -2.6128   -0.9197 H   0  0  0  0  0  0  0  0  0  0  0  0
    2.1189   -3.4374    0.0545 H   0  0  0  0  0  0  0  0  0  0  0  0
    4.1564   -5.4273    1.3964 H   0  0  0  0  0  0  0  0  0  0  0  0
    5.1153   -3.8102    3.4735 H   0  0  0  0  0  0  0  0  0  0  0  0
    2.6382   -0.8328    0.5213 H   0  0  0  0  0  0  0  0  0  0  0  0
    1.5733    0.7824    1.9637 H   0  0  0  0  0  0  0  0  0  0  0  0
    1.1362   -0.7389    2.6819 H   0  0  0  0  0  0  0  0  0  0  0  0
    0.9493   -1.1574    4.3156 H   0  0  0  0  0  0  0  0  0  0  0  0
    0.2563    1.4546    3.8937 H   0  0  0  0  0  0  0  0  0  0  0  0
   -0.5898    1.1194    5.3686 H   0  0  0  0  0  0  0  0  0  0  0  0
    1.7635    2.8201    5.3941 H   0  0  0  0  0  0  0  0  0  0  0  0
    1.7621    5.4151    5.4198 H   0  0  0  0  0  0  0  0  0  0  0  0
    0.0921    5.9606    5.4162 H   0  0  0  0  0  0  0  0  0  0  0  0
   -0.0882    5.2102    7.6357 H   0  0  0  0  0  0  0  0  0  0  0  0
    0.9743    3.4179    8.8814 H   0  0  0  0  0  0  0  0  0  0  0  0
    3.1954    3.2751    8.6422 H   0  0  0  0  0  0  0  0  0  0  0  0
    3.2863    4.0126    5.7402 H   0  0  0  0  0  0  0  0  0  0  0  0
    4.6702    5.3880    6.7488 H   0  0  0  0  0  0  0  0  0  0  0  0
    4.8366    2.5519    5.3700 H   0  0  0  0  0  0  0  0  0  0  0  0
    6.5628    3.3921    7.7271 H   0  0  0  0  0  0  0  0  0  0  0  0
    7.0528    2.6471    6.1384 H   0  0  0  0  0  0  0  0  0  0  0  0
    7.7765    4.8444    6.0646 H   0  0  0  0  0  0  0  0  0  0  0  0
    6.1640    5.5982    6.3614 H   0  0  0  0  0  0  0  0  0  0  0  0
    6.4932    4.6197    4.8951 H   0  0  0  0  0  0  0  0  0  0  0  0
    5.1119    1.5407    8.1138 H   0  0  0  0  0  0  0  0  0  0  0  0
    5.0018    0.1926    5.4521 H   0  0  0  0  0  0  0  0  0  0  0  0
    8.3488    1.3614    7.8348 H   0  0  0  0  0  0  0  0  0  0  0  0
    9.4169    1.1863    6.4745 H   0  0  0  0  0  0  0  0  0  0  0  0
    9.0491   -0.2308    7.4900 H   0  0  0  0  0  0  0  0  0  0  0  0
    4.7954   -1.9461    7.0916 H   0  0  0  0  0  0  0  0  0  0  0  0
    2.5646   -3.9403    9.1399 H   0  0  0  0  0  0  0  0  0  0  0  0
    3.0756   -2.3246    9.5684 H   0  0  0  0  0  0  0  0  0  0  0  0
    4.0350   -3.2976    8.4885 H   0  0  0  0  0  0  0  0  0  0  0  0
    0.8147   -1.5990    9.0653 H   0  0  0  0  0  0  0  0  0  0  0  0
    0.0792   -1.7913    7.4735 H   0  0  0  0  0  0  0  0  0  0  0  0
    0.5653   -5.9255    9.1583 H   0  0  0  0  0  0  0  0  0  0  0  0
   -0.2558   -6.5869    7.7328 H   0  0  0  0  0  0  0  0  0  0  0  0
   -1.1673   -5.6364    8.9183 H   0  0  0  0  0  0  0  0  0  0  0  0
   -0.8548   -3.2351    6.0754 H   0  0  0  0  0  0  0  0  0  0  0  0
   -1.9896   -4.0422    7.1595 H   0  0  0  0  0  0  0  0  0  0  0  0
   -1.0919   -4.9807    5.9541 H   0  0  0  0  0  0  0  0  0  0  0  0
    1.2536   -3.0656    5.7149 H   0  0  0  0  0  0  0  0  0  0  0  0
    3.3467   -2.4607    4.4940 H   0  0  0  0  0  0  0  0  0  0  0  0
    0.6507    1.3340    7.6625 H   0  0  0  0  0  0  0  0  0  0  0  0
    2.2031    1.1427    9.2924 H   0  0  0  0  0  0  0  0  0  0  0  0
   -3.3574    2.9537    8.6405 H   0  0  0  0  0  0  0  0  0  0  0  0
   -3.3328    1.4836    7.6470 H   0  0  0  0  0  0  0  0  0  0  0  0
   -4.2789    2.8764    7.1549 H   0  0  0  0  0  0  0  0  0  0  0  0
  1  2  2  0
  1 71  1  0
  1 72  1  0
  2  3  1  0
  2 73  1  0
  3 60  1  0
  3  4  1  6
  3  5  1  0
  4 74  1  0
  4 75  1  0
  4 76  1  0
  5  6  1  0
  5 77  1  0
  5 78  1  0
  6 58  1  0
  6  7  1  1
  6  8  1  0
  7 79  1  0
  8 21  1  0
  8  9  1  6
  8 10  1  0
  9 80  1  0
 11 10  1  1
 11 19  1  0
 11 23  1  0
 11 12  1  0
 12 13  1  0
 13 14  1  0
 13 23  1  0
 13 81  1  1
 14 15  1  0
 14 16  1  0
 14 82  1  6
 15 83  1  0
 16 17  1  0
 16 18  1  1
 16 19  1  0
 17 84  1  0
 17 85  1  0
 17 86  1  0
 18 87  1  0
 19 20  1  6
 19 21  1  0
 20 88  1  0
 20 89  1  0
 20 90  1  0
 21 22  1  0
 21 91  1  6
 22 92  1  0
 23 24  1  0
 23 93  1  6
 25 24  1  6
 24 94  1  0
 24 95  1  0
 25 26  2  0
 25 27  1  0
 27 62  1  0
 27 28  1  6
 27 29  1  0
 28 96  1  0
 29 30  1  0
 29 97  1  0
 29 98  1  0
 30 66  1  0
 30 31  1  0
 30 99  1  1
 31 32  1  0
 32 33  1  0
 32100  1  0
 32101  1  0
 33 66  1  0
 33 34  1  0
 33102  1  1
 34 35  1  0
 34 66  1  0
 34103  1  1
 35 64  1  0
 35 36  1  0
 35104  1  1
 36 37  1  0
 36 38  1  0
 36105  1  6
 37106  1  0
 38 39  1  0
 38 41  1  0
 38107  1  6
 39 40  1  0
 39108  1  0
 39109  1  0
 40110  1  0
 40111  1  0
 40112  1  0
 41 64  1  0
 41 42  1  0
 41113  1  1
 42 43  1  0
 42 47  1  0
 42114  1  6
 43 44  1  0
 44 45  1  0
 44 46  2  0
 45115  1  0
 45116  1  0
 45117  1  0
 47 48  2  0
 47118  1  0
 48 49  1  0
 48 62  1  0
 49 57  1  0
 49 50  1  1
 49 51  1  0
 50119  1  0
 50120  1  0
 50121  1  0
 51 52  1  0
 51122  1  0
 51123  1  0
 52 53  1  0
 53 54  1  0
 53 55  1  0
 53 56  1  0
 54124  1  0
 54125  1  0
 54126  1  0
 55127  1  0
 55128  1  0
 55129  1  0
 56 57  1  0
 57 58  1  0
 57130  1  6
 58 59  1  6
 58 60  1  0
 59131  1  0
 60 61  2  0
 62 63  1  1
 62 64  1  0
 63132  1  0
 64 65  1  1
 65133  1  0
 66 67  1  1
 67 68  1  0
 68 69  1  0
 68 70  2  0
 69134  1  0
 69135  1  0
 69136  1  0
M  END
>  <i_m_ct_stereo_status>  (70) 
1

>  <s_m_source_file>  (70) 
/var/tmp/pbs.5075288.sched01/tmpeqwi9iw0/66la8jmv2o.sdf

>  <i_m_source_file_index>  (70) 
42

>  <i_lp_mmshare_version>  (70) 
48012

>  <i_f3d_flags>  (70) 
0

>  <s_epik_input>  (70) 
W0NAXTEyM1tDQEBdNChbQ0gzXSlbQ0BdKFtDSDNdKShbT0hdKVtDQEhdKFtPSF0pW0NASF0oTzIpW0NAQEhdM1tDSDJdW1MrXShbTy1dKVtDQEBdNShbT0hdKVtDQEBdNihbT0hdKUMoW0NAXTcoW0NIM10pW0NASF0oT0MoW0NIM10pKFtDSDNdKU9bQ0gyXTcpW0NAXTgoW09IXSlbQ0BAXShbT0hdKShbQ0BdKE8xKShbT0hdKVtDQEBIXTRbT0hdKVtDSDJdW0NAQF0oW0NIM10pKEM4PU8pW0NIXT1bQ0gyXSk9W0NIXVtDQEhdKE9DKD1PKVtDSDNdKVtDQEBIXTlbQ0BAXTYoW09IXSlbQ0BASF0oW0NAQEhdKFtPSF0pW0NASF05W0NIMl1bQ0gzXSlbQ0BIXTFbQ0BASF0yW0NAXTEoW0NAQEhdKFtDSDJdNSlPW0NIMl0yKU9DKD1PKVtDSDNd

>  <s_epik_cmdline>  (70) 
J2VwaWtfcHl0aG9uJywgJy1waHQnLCAnMi4wJywgJy1waCcsICc3LjAnLCAnLXRuJywgJzgnLCAnLW1hJywgJzIwMCcsICctaW1hZScsICc8aW5maWxlLm1hZT4nLCAnLW9tYWUnLCAnPG91dGZpbGUubWFlPic=

>  <r_lp_tautomer_probability>  (70) 
1

>  <r_epik_Ionization_Penalty>  (70) 
3.17675e-05

>  <r_epik_Ionization_Penalty_Charging>  (70) 
0

>  <r_epik_Ionization_Penalty_Neutral>  (70) 
3.17675e-05

>  <r_epik_State_Penalty>  (70) 
-0

>  <r_epik_Charging_Adjusted_Penalty>  (70) 
0

>  <i_epik_Tot_Q>  (70) 
0

>  <i_epik_Tot_abs_Q>  (70) 
2

>  <s_epik_Chemistry_Notes>  (70) 
This compound has an ester and may undergo hydrolysis at high or low pH.

>  <s_lp_Force_Field>  (70) 
OPLS3e

>  <r_lp_Energy>  (70) 
172.762

>  <b_lp_Chiralities_Consistent>  (70) 
1

>  <s_lp_Variant>  (70) 
53:0-1

>  <s_i_glide_gridfile>  (70) 
pfpi4k_grid

>  <i_i_glide_lignum>  (70) 
42

>  <i_i_glide_rotatable_bonds>  (70) 
16

>  <r_i_docking_score>  (70) 
-4.89147

>  <r_i_glide_ligand_efficiency>  (70) 
-0.0698781

>  <r_i_glide_ligand_efficiency_sa>  (70) 
-0.287988

>  <r_i_glide_ligand_efficiency_ln>  (70) 
-0.931975

>  <r_i_glide_gscore>  (70) 
-4.89147

>  <r_i_glide_lipo>  (70) 
-0.60588

>  <r_i_glide_hbond>  (70) 
0

>  <r_i_glide_metal>  (70) 
-0

>  <r_i_glide_rewards>  (70) 
-2.29934

>  <r_i_glide_evdw>  (70) 
-30.7687

>  <r_i_glide_ecoul>  (70) 
-3.75094

>  <r_i_glide_erotb>  (70) 
0.0654256

>  <r_i_glide_esite>  (70) 
-0.0154482

>  <r_i_glide_emodel>  (70) 
-58.8905

>  <r_i_glide_energy>  (70) 
-34.5196

>  <r_i_glide_einternal>  (70) 
12.124

>  <r_i_glide_intrahb_reward>  (70) 
-2

>  <i_i_glide_confnum>  (70) 
1

>  <i_i_glide_posenum>  (70) 
39

>  <r_i_glide_eff_state_penalty>  (70) 
0

>  <ligand_id>  (70) 
53

>  <original_smiles>  (70) 
C=CC1(C)CC2(O)C3(O)OC45OC(C(O)C(C)(O)C4(C)C3O)C5C[S+]([O-])C3(O)CC4OCC5C(C6C(O)C(CC)C7C(OC(C)=O)C=C(C8(C)COC(C)(C)OC8C2(O)C1=O)C3(O)C76O)C45OC(C)=O

>  <smiles>  (70) 
[H]OC1([H])C([H])(C([H])([H])C([H])([H])[H])C2([H])C([H])(OC(=O)C([H])([H])[H])C([H])=C3C4(O[H])C(O[H])(S(=O)C([H])([H])C5([H])C6([H])OC57OC(O[H])(C([H])(O[H])C7(C([H])([H])[H])C(O[H])(C([H])([H])[H])C6([H])O[H])C5(O[H])C([H])([H])C(C([H])=C([H])[H])(C([H])([H])[H])C(=O)C5(O[H])C5([H])OC(C([H])([H])[H])(C([H])([H])[H])OC([H])([H])C35C([H])([H])[H])C([H])([H])C3([H])OC([H])([H])C5([H])C([H])(C1([H])C42O[H])C35OC(=O)C([H])([H])[H]

$$$$
53:0:2
     RDKit          3D

136146  0  0  1  0  0  0  0  0999 V2000
    2.5057   -7.7021    8.3877 C   0  0  0  0  0  0  0  0  0  0  0  0
    2.2940   -6.8967    7.3244 C   0  0  0  0  0  0  0  0  0  0  0  0
    3.3318   -6.3707    6.3325 C   0  0  1  0  0  0  0  0  0  0  0  0
    4.6163   -7.2436    6.3621 C   0  0  0  0  0  0  0  0  0  0  0  0
    2.7702   -6.2499    4.9106 C   0  0  0  0  0  0  0  0  0  0  0  0
    2.2646   -4.8018    4.6801 C   0  0  2  0  0  0  0  0  0  0  0  0
    0.8617   -4.9557    4.8336 O   0  0  0  0  0  0  0  0  0  0  0  0
    2.5519   -4.3101    3.1806 C   0  0  1  0  0  0  0  0  0  0  0  0
    1.6499   -4.9947    2.3646 O   0  0  0  0  0  0  0  0  0  0  0  0
    2.3435   -2.9257    3.0977 O   0  0  0  0  0  0  0  0  0  0  0  0
    3.3499   -2.3066    2.3155 C   0  0  1  0  0  0  0  0  0  0  0  0
    4.4505   -1.6924    3.0186 O   0  0  0  0  0  0  0  0  0  0  0  0
    4.4928   -0.7049    1.9190 C   0  0  1  0  0  0  0  0  0  0  0  0
    5.3526   -1.3092    0.7555 C   0  0  1  0  0  0  0  0  0  0  0  0
    6.6476   -0.7420    0.6820 O   0  0  0  0  0  0  0  0  0  0  0  0
    5.4077   -2.8619    0.8559 C   0  0  1  0  0  0  0  0  0  0  0  0
    5.9255   -3.4963   -0.4422 C   0  0  0  0  0  0  0  0  0  0  0  0
    6.4973   -3.1885    1.6818 O   0  0  0  0  0  0  0  0  0  0  0  0
    4.0019   -3.3732    1.4243 C   0  0  2  0  0  0  0  0  0  0  0  0
    3.1261   -3.6067    0.1811 C   0  0  0  0  0  0  0  0  0  0  0  0
    3.9448   -4.5418    2.4682 C   0  0  1  0  0  0  0  0  0  0  0  0
    4.9972   -4.5783    3.4309 O   0  0  0  0  0  0  0  0  0  0  0  0
    2.9899   -0.8885    1.7830 C   0  0  2  0  0  0  0  0  0  0  0  0
    2.0172   -0.0152    2.6261 C   0  0  0  0  0  0  0  0  0  0  0  0
    2.8232    0.6020    4.1929 S   0  0  0  0  0  0  0  0  0  0  0  0
    3.2619    2.0451    3.8855 O   0  0  0  0  0  0  0  0  0  0  0  0
    1.4435    0.6552    5.4453 C   0  0  2  0  0  0  0  0  0  0  0  0
    0.6455   -0.5068    5.3163 O   0  0  0  0  0  0  0  0  0  0  0  0
    0.4150    1.7140    4.9438 C   0  0  0  0  0  0  0  0  0  0  0  0
    0.7822    3.1325    5.3510 C   0  0  1  0  0  0  0  0  0  0  0  0
    0.5135    4.2731    4.5422 O   0  0  0  0  0  0  0  0  0  0  0  0
    0.8985    5.4003    5.3524 C   0  0  0  0  0  0  0  0  0  0  0  0
    0.6869    5.0164    6.8225 C   0  0  2  0  0  0  0  0  0  0  0  0
    1.3201    3.9160    7.7110 C   0  0  2  0  0  0  0  0  0  0  0  0
    2.7520    3.3464    7.6336 C   0  0  2  0  0  0  0  0  0  0  0  0
    3.7676    3.9872    6.6660 C   0  0  1  0  0  0  0  0  0  0  0  0
    4.1417    5.2107    7.2278 O   0  0  0  0  0  0  0  0  0  0  0  0
    4.9119    2.9670    6.4937 C   0  0  1  0  0  0  0  0  0  0  0  0
    6.3964    3.4536    6.7284 C   0  0  0  0  0  0  0  0  0  0  0  0
    6.8421    4.7552    5.9737 C   0  0  0  0  0  0  0  0  0  0  0  0
    4.4890    1.7063    7.3079 C   0  0  2  0  0  0  0  0  0  0  0  0
    4.9474    0.3352    6.7747 C   0  0  1  0  0  0  0  0  0  0  0  0
    6.2746    0.1124    7.2382 O   0  0  0  0  0  0  0  0  0  0  0  0
    7.3229    0.4342    6.4851 C   0  0  0  0  0  0  0  0  0  0  0  0
    8.6156    0.5379    7.2576 C   0  0  0  0  0  0  0  0  0  0  0  0
    7.2865    0.6568    5.2648 O   0  0  0  0  0  0  0  0  0  0  0  0
    4.0419   -0.7970    7.2209 C   0  0  0  0  0  0  0  0  0  0  0  0
    2.6869   -0.7447    7.3089 C   0  0  0  0  0  0  0  0  0  0  0  0
    1.9338   -2.0458    7.8412 C   0  0  1  0  0  0  0  0  0  0  0  0
    2.6798   -2.5956    9.0905 C   0  0  0  0  0  0  0  0  0  0  0  0
    0.5096   -1.7359    8.3939 C   0  0  0  0  0  0  0  0  0  0  0  0
   -0.1850   -2.8772    8.8919 O   0  0  0  0  0  0  0  0  0  0  0  0
   -0.2731   -3.9400    7.9899 C   0  0  0  0  0  0  0  0  0  0  0  0
   -0.6583   -5.1674    8.8149 C   0  0  0  0  0  0  0  0  0  0  0  0
   -1.3311   -3.6619    6.9102 C   0  0  0  0  0  0  0  0  0  0  0  0
    0.9727   -4.2260    7.4145 O   0  0  0  0  0  0  0  0  0  0  0  0
    1.6965   -3.1764    6.7536 C   0  0  2  0  0  0  0  0  0  0  0  0
    2.8156   -3.9042    5.8502 C   0  0  2  0  0  0  0  0  0  0  0  0
    3.7073   -2.9324    5.3634 O   0  0  0  0  0  0  0  0  0  0  0  0
    3.6663   -4.9074    6.6618 C   0  0  0  0  0  0  0  0  0  0  0  0
    4.6015   -4.5840    7.3903 O   0  0  0  0  0  0  0  0  0  0  0  0
    2.0008    0.6576    6.9764 C   0  0  2  0  0  0  0  0  0  0  0  0
    0.8271    0.8745    7.7421 O   0  0  0  0  0  0  0  0  0  0  0  0
    2.9765    1.7934    7.6354 C   0  0  2  0  0  0  0  0  0  0  0  0
    2.9391    1.4921    9.0348 O   0  0  0  0  0  0  0  0  0  0  0  0
    0.3130    3.5868    6.7055 C   0  0  2  0  0  0  0  0  0  0  0  0
   -0.9607    3.2239    7.2160 O   0  0  0  0  0  0  0  0  0  0  0  0
   -2.0884    3.3432    6.4865 C   0  0  0  0  0  0  0  0  0  0  0  0
   -3.3368    2.8761    7.2361 C   0  0  0  0  0  0  0  0  0  0  0  0
   -2.1741    3.7329    5.3217 O   0  0  0  0  0  0  0  0  0  0  0  0
    3.4767   -8.0752    8.6591 H   0  0  0  0  0  0  0  0  0  0  0  0
    1.6726   -8.0014    9.0203 H   0  0  0  0  0  0  0  0  0  0  0  0
    1.2853   -6.5710    7.1250 H   0  0  0  0  0  0  0  0  0  0  0  0
    5.0823   -7.2678    7.3519 H   0  0  0  0  0  0  0  0  0  0  0  0
    5.3906   -6.8772    5.6839 H   0  0  0  0  0  0  0  0  0  0  0  0
    4.3799   -8.2742    6.0835 H   0  0  0  0  0  0  0  0  0  0  0  0
    3.5473   -6.5112    4.2055 H   0  0  0  0  0  0  0  0  0  0  0  0
    1.9848   -6.9938    4.7409 H   0  0  0  0  0  0  0  0  0  0  0  0
    0.4605   -4.1261    4.6148 H   0  0  0  0  0  0  0  0  0  0  0  0
    1.9671   -4.9556    1.4790 H   0  0  0  0  0  0  0  0  0  0  0  0
    4.7703    0.2937    2.2467 H   0  0  0  0  0  0  0  0  0  0  0  0
    4.8766   -1.0219   -0.1738 H   0  0  0  0  0  0  0  0  0  0  0  0
    6.5857    0.1759    0.9053 H   0  0  0  0  0  0  0  0  0  0  0  0
    5.3324   -3.2059   -1.3134 H   0  0  0  0  0  0  0  0  0  0  0  0
    5.9469   -4.5845   -0.3597 H   0  0  0  0  0  0  0  0  0  0  0  0
    6.9441   -3.1684   -0.6372 H   0  0  0  0  0  0  0  0  0  0  0  0
    6.2622   -2.8801    2.5501 H   0  0  0  0  0  0  0  0  0  0  0  0
    3.3285   -4.5716   -0.2854 H   0  0  0  0  0  0  0  0  0  0  0  0
    3.2783   -2.8204   -0.5592 H   0  0  0  0  0  0  0  0  0  0  0  0
    2.0801   -3.5278    0.4246 H   0  0  0  0  0  0  0  0  0  0  0  0
    3.9742   -5.5076    1.9714 H   0  0  0  0  0  0  0  0  0  0  0  0
    4.8944   -3.8288    4.0089 H   0  0  0  0  0  0  0  0  0  0  0  0
    2.6770   -0.9202    0.7507 H   0  0  0  0  0  0  0  0  0  0  0  0
    1.6551    0.8429    2.0432 H   0  0  0  0  0  0  0  0  0  0  0  0
    1.1210   -0.6059    2.8438 H   0  0  0  0  0  0  0  0  0  0  0  0
    0.8315   -0.9100    4.4783 H   0  0  0  0  0  0  0  0  0  0  0  0
    0.3248    1.6709    3.8558 H   0  0  0  0  0  0  0  0  0  0  0  0
   -0.5720    1.4429    5.3136 H   0  0  0  0  0  0  0  0  0  0  0  0
    1.8388    3.0696    5.3391 H   0  0  0  0  0  0  0  0  0  0  0  0
    1.9420    5.6691    5.2101 H   0  0  0  0  0  0  0  0  0  0  0  0
    0.3025    6.2872    5.1026 H   0  0  0  0  0  0  0  0  0  0  0  0
    0.0019    5.6653    7.3464 H   0  0  0  0  0  0  0  0  0  0  0  0
    0.9350    3.9356    8.7396 H   0  0  0  0  0  0  0  0  0  0  0  0
    3.1639    3.6574    8.6045 H   0  0  0  0  0  0  0  0  0  0  0  0
    3.3888    4.2161    5.6646 H   0  0  0  0  0  0  0  0  0  0  0  0
    4.7622    5.6104    6.6425 H   0  0  0  0  0  0  0  0  0  0  0  0
    4.8900    2.6713    5.4537 H   0  0  0  0  0  0  0  0  0  0  0  0
    6.5478    3.6166    7.8151 H   0  0  0  0  0  0  0  0  0  0  0  0
    7.0644    2.6323    6.3384 H   0  0  0  0  0  0  0  0  0  0  0  0
    7.9260    4.8452    6.1025 H   0  0  0  0  0  0  0  0  0  0  0  0
    6.3360    5.7030    6.2625 H   0  0  0  0  0  0  0  0  0  0  0  0
    6.6900    4.5874    4.9045 H   0  0  0  0  0  0  0  0  0  0  0  0
    5.0107    1.8244    8.2636 H   0  0  0  0  0  0  0  0  0  0  0  0
    4.9207    0.3073    5.6946 H   0  0  0  0  0  0  0  0  0  0  0  0
    8.4294    1.2693    8.0361 H   0  0  0  0  0  0  0  0  0  0  0  0
    9.4189    0.9431    6.6389 H   0  0  0  0  0  0  0  0  0  0  0  0
    8.9260   -0.4060    7.7240 H   0  0  0  0  0  0  0  0  0  0  0  0
    4.5851   -1.7024    7.4470 H   0  0  0  0  0  0  0  0  0  0  0  0
    2.1702   -3.4538    9.5275 H   0  0  0  0  0  0  0  0  0  0  0  0
    2.7427   -1.8428    9.8741 H   0  0  0  0  0  0  0  0  0  0  0  0
    3.6963   -2.9244    8.8943 H   0  0  0  0  0  0  0  0  0  0  0  0
    0.5395   -1.0472    9.2417 H   0  0  0  0  0  0  0  0  0  0  0  0
   -0.1381   -1.3086    7.6324 H   0  0  0  0  0  0  0  0  0  0  0  0
    0.0810   -5.3525    9.5904 H   0  0  0  0  0  0  0  0  0  0  0  0
   -0.7196   -6.0537    8.1767 H   0  0  0  0  0  0  0  0  0  0  0  0
   -1.6318   -5.0132    9.2820 H   0  0  0  0  0  0  0  0  0  0  0  0
   -1.1052   -2.7960    6.2928 H   0  0  0  0  0  0  0  0  0  0  0  0
   -2.3127   -3.5065    7.3644 H   0  0  0  0  0  0  0  0  0  0  0  0
   -1.3924   -4.5392    6.2638 H   0  0  0  0  0  0  0  0  0  0  0  0
    1.0258   -2.7402    6.0186 H   0  0  0  0  0  0  0  0  0  0  0  0
    3.2008   -2.3200    4.8358 H   0  0  0  0  0  0  0  0  0  0  0  0
    0.5399    1.7683    7.6066 H   0  0  0  0  0  0  0  0  0  0  0  0
    2.0412    1.5937    9.3233 H   0  0  0  0  0  0  0  0  0  0  0  0
   -3.5482    3.5064    8.1001 H   0  0  0  0  0  0  0  0  0  0  0  0
   -3.2630    1.8352    7.5453 H   0  0  0  0  0  0  0  0  0  0  0  0
   -4.1878    2.9051    6.5547 H   0  0  0  0  0  0  0  0  0  0  0  0
  1  2  2  0
  1 71  1  0
  1 72  1  0
  2  3  1  0
  2 73  1  0
  3 60  1  0
  3  4  1  6
  3  5  1  0
  4 74  1  0
  4 75  1  0
  4 76  1  0
  5  6  1  0
  5 77  1  0
  5 78  1  0
  6 58  1  0
  6  7  1  1
  6  8  1  0
  7 79  1  0
  8 21  1  0
  8  9  1  6
  8 10  1  0
  9 80  1  0
 11 10  1  1
 11 19  1  0
 11 23  1  0
 11 12  1  0
 12 13  1  0
 13 14  1  0
 13 23  1  0
 13 81  1  1
 14 15  1  0
 14 16  1  0
 14 82  1  6
 15 83  1  0
 16 17  1  0
 16 18  1  1
 16 19  1  0
 17 84  1  0
 17 85  1  0
 17 86  1  0
 18 87  1  0
 19 20  1  6
 19 21  1  0
 20 88  1  0
 20 89  1  0
 20 90  1  0
 21 22  1  0
 21 91  1  6
 22 92  1  0
 23 24  1  0
 23 93  1  6
 25 24  1  6
 24 94  1  0
 24 95  1  0
 25 26  2  0
 25 27  1  0
 27 62  1  0
 27 28  1  1
 27 29  1  0
 28 96  1  0
 29 30  1  0
 29 97  1  0
 29 98  1  0
 30 66  1  0
 30 31  1  0
 30 99  1  1
 31 32  1  0
 32 33  1  0
 32100  1  0
 32101  1  0
 33 66  1  0
 33 34  1  0
 33102  1  1
 34 35  1  0
 34 66  1  0
 34103  1  1
 35 64  1  0
 35 36  1  0
 35104  1  1
 36 37  1  0
 36 38  1  0
 36105  1  6
 37106  1  0
 38 39  1  0
 38 41  1  0
 38107  1  6
 39 40  1  0
 39108  1  0
 39109  1  0
 40110  1  0
 40111  1  0
 40112  1  0
 41 64  1  0
 41 42  1  0
 41113  1  1
 42 43  1  0
 42 47  1  0
 42114  1  6
 43 44  1  0
 44 45  1  0
 44 46  2  0
 45115  1  0
 45116  1  0
 45117  1  0
 47 48  2  0
 47118  1  0
 48 49  1  0
 48 62  1  0
 49 57  1  0
 49 50  1  1
 49 51  1  0
 50119  1  0
 50120  1  0
 50121  1  0
 51 52  1  0
 51122  1  0
 51123  1  0
 52 53  1  0
 53 54  1  0
 53 55  1  0
 53 56  1  0
 54124  1  0
 54125  1  0
 54126  1  0
 55127  1  0
 55128  1  0
 55129  1  0
 56 57  1  0
 57 58  1  0
 57130  1  6
 58 59  1  6
 58 60  1  0
 59131  1  0
 60 61  2  0
 62 63  1  1
 62 64  1  0
 63132  1  0
 64 65  1  1
 65133  1  0
 66 67  1  1
 67 68  1  0
 68 69  1  0
 68 70  2  0
 69134  1  0
 69135  1  0
 69136  1  0
M  END
>  <i_m_ct_stereo_status>  (71) 
1

>  <s_m_source_file>  (71) 
/var/tmp/pbs.5075288.sched01/tmpeqwi9iw0/66la8jmv2o.sdf

>  <i_m_source_file_index>  (71) 
42

>  <i_lp_mmshare_version>  (71) 
48012

>  <i_f3d_flags>  (71) 
0

>  <s_epik_input>  (71) 
W0NAXTEyM1tDQEBdNChbQ0gzXSlbQ0BdKFtDSDNdKShbT0hdKVtDQEhdKFtPSF0pW0NASF0oTzIpW0NAQEhdM1tDSDJdW1MrXShbTy1dKVtDQEBdNShbT0hdKVtDQEBdNihbT0hdKUMoW0NAXTcoW0NIM10pW0NASF0oT0MoW0NIM10pKFtDSDNdKU9bQ0gyXTcpW0NAXTgoW09IXSlbQ0BAXShbT0hdKShbQ0BdKE8xKShbT0hdKVtDQEBIXTRbT0hdKVtDSDJdW0NAQF0oW0NIM10pKEM4PU8pW0NIXT1bQ0gyXSk9W0NIXVtDQEhdKE9DKD1PKVtDSDNdKVtDQEBIXTlbQ0BAXTYoW09IXSlbQ0BASF0oW0NAQEhdKFtPSF0pW0NASF05W0NIMl1bQ0gzXSlbQ0BIXTFbQ0BASF0yW0NAXTEoW0NAQEhdKFtDSDJdNSlPW0NIMl0yKU9DKD1PKVtDSDNd

>  <s_epik_cmdline>  (71) 
J2VwaWtfcHl0aG9uJywgJy1waHQnLCAnMi4wJywgJy1waCcsICc3LjAnLCAnLXRuJywgJzgnLCAnLW1hJywgJzIwMCcsICctaW1hZScsICc8aW5maWxlLm1hZT4nLCAnLW9tYWUnLCAnPG91dGZpbGUubWFlPic=

>  <r_lp_tautomer_probability>  (71) 
1

>  <r_epik_Ionization_Penalty>  (71) 
3.17675e-05

>  <r_epik_Ionization_Penalty_Charging>  (71) 
0

>  <r_epik_Ionization_Penalty_Neutral>  (71) 
3.17675e-05

>  <r_epik_State_Penalty>  (71) 
-0

>  <r_epik_Charging_Adjusted_Penalty>  (71) 
0

>  <i_epik_Tot_Q>  (71) 
0

>  <i_epik_Tot_abs_Q>  (71) 
2

>  <s_epik_Chemistry_Notes>  (71) 
This compound has an ester and may undergo hydrolysis at high or low pH.

>  <s_lp_Force_Field>  (71) 
OPLS3e

>  <r_lp_Energy>  (71) 
172.762

>  <b_lp_Chiralities_Consistent>  (71) 
1

>  <s_lp_Variant>  (71) 
53:0-1

>  <s_i_glide_gridfile>  (71) 
pfpi4k_grid

>  <i_i_glide_lignum>  (71) 
42

>  <i_i_glide_rotatable_bonds>  (71) 
16

>  <r_i_docking_score>  (71) 
-4.54863

>  <r_i_glide_ligand_efficiency>  (71) 
-0.0649805

>  <r_i_glide_ligand_efficiency_sa>  (71) 
-0.267803

>  <r_i_glide_ligand_efficiency_ln>  (71) 
-0.866655

>  <r_i_glide_gscore>  (71) 
-4.54863

>  <r_i_glide_lipo>  (71) 
-0.597746

>  <r_i_glide_hbond>  (71) 
-0.16

>  <r_i_glide_metal>  (71) 
-0

>  <r_i_glide_rewards>  (71) 
-1.78661

>  <r_i_glide_evdw>  (71) 
-32.4105

>  <r_i_glide_ecoul>  (71) 
-5.12728

>  <r_i_glide_erotb>  (71) 
0.0654256

>  <r_i_glide_esite>  (71) 
-0.0313864

>  <r_i_glide_emodel>  (71) 
-56.4635

>  <r_i_glide_energy>  (71) 
-37.5378

>  <r_i_glide_einternal>  (71) 
10.3883

>  <r_i_glide_intrahb_reward>  (71) 
-1.5

>  <i_i_glide_confnum>  (71) 
2

>  <i_i_glide_posenum>  (71) 
24

>  <r_i_glide_eff_state_penalty>  (71) 
0

>  <ligand_id>  (71) 
53

>  <original_smiles>  (71) 
C=CC1(C)CC2(O)C3(O)OC45OC(C(O)C(C)(O)C4(C)C3O)C5C[S+]([O-])C3(O)CC4OCC5C(C6C(O)C(CC)C7C(OC(C)=O)C=C(C8(C)COC(C)(C)OC8C2(O)C1=O)C3(O)C76O)C45OC(C)=O

>  <smiles>  (71) 
[H]OC1([H])C([H])(C([H])([H])C([H])([H])[H])C2([H])C([H])(OC(=O)C([H])([H])[H])C([H])=C3C4(O[H])C(O[H])(S(=O)C([H])([H])C5([H])C6([H])OC57OC(O[H])(C([H])(O[H])C7(C([H])([H])[H])C(O[H])(C([H])([H])[H])C6([H])O[H])C5(O[H])C([H])([H])C(C([H])=C([H])[H])(C([H])([H])[H])C(=O)C5(O[H])C5([H])OC(C([H])([H])[H])(C([H])([H])[H])OC([H])([H])C35C([H])([H])[H])C([H])([H])C3([H])OC([H])([H])C5([H])C([H])(C1([H])C42O[H])C35OC(=O)C([H])([H])[H]

$$$$
53:1:0
     RDKit          3D

136146  0  0  1  0  0  0  0  0999 V2000
    3.6953  -12.1472    3.8243 C   0  0  0  0  0  0  0  0  0  0  0  0
    3.4586  -11.7251    5.0784 C   0  0  0  0  0  0  0  0  0  0  0  0
    3.9021  -10.3873    5.6820 C   0  0  1  0  0  0  0  0  0  0  0  0
    4.2330  -10.6081    7.1759 C   0  0  0  0  0  0  0  0  0  0  0  0
    5.0767   -9.7042    4.9317 C   0  0  0  0  0  0  0  0  0  0  0  0
    4.4964   -8.5329    4.0745 C   0  0  2  0  0  0  0  0  0  0  0  0
    3.8950   -9.1131    2.9180 O   0  0  0  0  0  0  0  0  0  0  0  0
    5.5254   -7.4349    3.5492 C   0  0  1  0  0  0  0  0  0  0  0  0
    4.9973   -6.8366    2.4022 O   0  0  0  0  0  0  0  0  0  0  0  0
    5.6312   -6.4307    4.4989 O   0  0  0  0  0  0  0  0  0  0  0  0
    6.8498   -6.4925    5.1247 C   0  0  1  0  0  0  0  0  0  0  0  0
    6.9053   -7.3364    6.2940 O   0  0  0  0  0  0  0  0  0  0  0  0
    7.8525   -6.3842    6.8219 C   0  0  1  0  0  0  0  0  0  0  0  0
    9.2417   -6.8667    6.3183 C   0  0  1  0  0  0  0  0  0  0  0  0
    9.9456   -7.5902    7.3113 O   0  0  0  0  0  0  0  0  0  0  0  0
    9.0993   -7.6503    4.9681 C   0  0  1  0  0  0  0  0  0  0  0  0
   10.4317   -7.7019    4.2143 C   0  0  0  0  0  0  0  0  0  0  0  0
    8.8345   -8.9915    5.3506 O   0  0  0  0  0  0  0  0  0  0  0  0
    7.9024   -7.0085    4.1440 C   0  0  2  0  0  0  0  0  0  0  0  0
    8.4070   -5.8091    3.3363 C   0  0  0  0  0  0  0  0  0  0  0  0
    7.0081   -7.8444    3.1904 C   0  0  1  0  0  0  0  0  0  0  0  0
    7.2678   -9.2225    3.0972 O   0  0  0  0  0  0  0  0  0  0  0  0
    7.1408   -5.2700    6.0313 C   0  0  2  0  0  0  0  0  0  0  0  0
    5.9598   -4.5927    6.7613 C   0  0  0  0  0  0  0  0  0  0  0  0
    5.4861   -2.9081    6.1306 S   0  0  0  0  0  0  0  0  0  0  0  0
    5.1903   -2.0869    7.3693 O   0  0  0  0  0  0  0  0  0  0  0  0
    3.9541   -3.0775    5.0134 C   0  0  2  0  0  0  0  0  0  0  0  0
    4.0773   -4.1149    4.0593 O   0  0  0  0  0  0  0  0  0  0  0  0
    4.1598   -1.8466    4.0655 C   0  0  0  0  0  0  0  0  0  0  0  0
    3.7472   -0.5414    4.7389 C   0  0  1  0  0  0  0  0  0  0  0  0
    4.4919    0.6626    4.6135 O   0  0  0  0  0  0  0  0  0  0  0  0
    3.7515    1.6141    5.3893 C   0  0  0  0  0  0  0  0  0  0  0  0
    2.2874    1.1986    5.2826 C   0  0  2  0  0  0  0  0  0  0  0  0
    1.4636    0.0067    5.8348 C   0  0  2  0  0  0  0  0  0  0  0  0
    1.7338   -0.8527    7.0565 C   0  0  2  0  0  0  0  0  0  0  0  0
    2.7777   -0.4220    8.0815 C   0  0  1  0  0  0  0  0  0  0  0  0
    2.3887    0.8199    8.6027 O   0  0  0  0  0  0  0  0  0  0  0  0
    2.7947   -1.5894    9.0978 C   0  0  1  0  0  0  0  0  0  0  0  0
    2.0949   -1.2687   10.4505 C   0  0  0  0  0  0  0  0  0  0  0  0
    2.9453   -0.4308   11.4273 C   0  0  0  0  0  0  0  0  0  0  0  0
    2.1499   -2.8133    8.3685 C   0  0  2  0  0  0  0  0  0  0  0  0
    2.9295   -4.1320    8.4400 C   0  0  1  0  0  0  0  0  0  0  0  0
    2.8590   -4.7099    9.7520 O   0  0  0  0  0  0  0  0  0  0  0  0
    3.7306   -5.6496   10.2686 C   0  0  0  0  0  0  0  0  0  0  0  0
    4.9117   -6.0261    9.3323 C   0  0  0  0  0  0  0  0  0  0  0  0
    3.6376   -6.0905   11.3981 O   0  0  0  0  0  0  0  0  0  0  0  0
    2.4416   -5.1100    7.3867 C   0  0  0  0  0  0  0  0  0  0  0  0
    2.2093   -4.8242    6.0780 C   0  0  0  0  0  0  0  0  0  0  0  0
    1.4546   -5.9229    5.1784 C   0  0  1  0  0  0  0  0  0  0  0  0
    0.4162   -6.6719    6.0645 C   0  0  0  0  0  0  0  0  0  0  0  0
    0.5694   -5.2959    4.0580 C   0  0  0  0  0  0  0  0  0  0  0  0
   -0.1491   -6.2461    3.2855 O   0  0  0  0  0  0  0  0  0  0  0  0
    0.6535   -7.2099    2.6655 C   0  0  0  0  0  0  0  0  0  0  0  0
   -0.2827   -8.3216    2.2111 C   0  0  0  0  0  0  0  0  0  0  0  0
    1.4413   -6.6360    1.4662 C   0  0  0  0  0  0  0  0  0  0  0  0
    1.5168   -7.7979    3.5660 O   0  0  0  0  0  0  0  0  0  0  0  0
    2.3501   -6.9655    4.3699 C   0  0  2  0  0  0  0  0  0  0  0  0
    3.3607   -7.9989    5.0184 C   0  0  2  0  0  0  0  0  0  0  0  0
    3.8646   -7.3936    6.1728 O   0  0  0  0  0  0  0  0  0  0  0  0
    2.7781   -9.3363    5.5443 C   0  0  0  0  0  0  0  0  0  0  0  0
    1.6405   -9.5239    5.9238 O   0  0  0  0  0  0  0  0  0  0  0  0
    2.4782   -3.2917    5.6992 C   0  0  2  0  0  0  0  0  0  0  0  0
    1.6524   -2.9216    4.6240 O   0  0  0  0  0  0  0  0  0  0  0  0
    1.7934   -2.4101    6.9116 C   0  0  2  0  0  0  0  0  0  0  0  0
    0.4033   -2.7361    6.8515 O   0  0  0  0  0  0  0  0  0  0  0  0
    2.3156   -0.1351    4.6179 C   0  0  2  0  0  0  0  0  0  0  0  0
    1.8916    0.0883    3.2778 O   0  0  0  0  0  0  0  0  0  0  0  0
    0.6385    0.4403    2.8556 C   0  0  0  0  0  0  0  0  0  0  0  0
    0.6977    1.1848    1.5431 C   0  0  0  0  0  0  0  0  0  0  0  0
   -0.4454    0.2792    3.4248 O   0  0  0  0  0  0  0  0  0  0  0  0
    4.1771  -11.5588    3.0600 H   0  0  0  0  0  0  0  0  0  0  0  0
    3.4164  -13.1331    3.5033 H   0  0  0  0  0  0  0  0  0  0  0  0
    2.9139  -12.3910    5.7490 H   0  0  0  0  0  0  0  0  0  0  0  0
    3.3881  -11.0438    7.7100 H   0  0  0  0  0  0  0  0  0  0  0  0
    4.4698   -9.6825    7.6996 H   0  0  0  0  0  0  0  0  0  0  0  0
    5.0723  -11.2987    7.3029 H   0  0  0  0  0  0  0  0  0  0  0  0
    5.7893   -9.3337    5.6661 H   0  0  0  0  0  0  0  0  0  0  0  0
    5.6348  -10.4405    4.3601 H   0  0  0  0  0  0  0  0  0  0  0  0
    4.4859   -9.7438    2.5479 H   0  0  0  0  0  0  0  0  0  0  0  0
    4.8555   -7.5431    1.7621 H   0  0  0  0  0  0  0  0  0  0  0  0
    7.7531   -6.2532    7.8912 H   0  0  0  0  0  0  0  0  0  0  0  0
    9.8173   -5.9692    6.1364 H   0  0  0  0  0  0  0  0  0  0  0  0
   10.1114   -7.0069    8.0459 H   0  0  0  0  0  0  0  0  0  0  0  0
   10.8413   -6.7111    3.9980 H   0  0  0  0  0  0  0  0  0  0  0  0
   10.2697   -8.2385    3.2832 H   0  0  0  0  0  0  0  0  0  0  0  0
   11.1706   -8.2399    4.8009 H   0  0  0  0  0  0  0  0  0  0  0  0
    7.9858   -8.9662    5.7890 H   0  0  0  0  0  0  0  0  0  0  0  0
    8.9999   -6.0842    2.4694 H   0  0  0  0  0  0  0  0  0  0  0  0
    9.0177   -5.1511    3.9496 H   0  0  0  0  0  0  0  0  0  0  0  0
    7.5541   -5.2340    2.9778 H   0  0  0  0  0  0  0  0  0  0  0  0
    7.2044   -7.4861    2.1818 H   0  0  0  0  0  0  0  0  0  0  0  0
    6.6851   -9.5945    2.4399 H   0  0  0  0  0  0  0  0  0  0  0  0
    7.8757   -4.5906    5.6499 H   0  0  0  0  0  0  0  0  0  0  0  0
    5.0905   -5.2155    6.7491 H   0  0  0  0  0  0  0  0  0  0  0  0
    6.2519   -4.4099    7.7794 H   0  0  0  0  0  0  0  0  0  0  0  0
    3.7428   -4.9225    4.4473 H   0  0  0  0  0  0  0  0  0  0  0  0
    5.2228   -1.7971    3.8076 H   0  0  0  0  0  0  0  0  0  0  0  0
    3.6325   -1.9866    3.1197 H   0  0  0  0  0  0  0  0  0  0  0  0
    3.8921   -0.7750    5.7615 H   0  0  0  0  0  0  0  0  0  0  0  0
    3.9994    1.5884    6.4472 H   0  0  0  0  0  0  0  0  0  0  0  0
    3.9086    2.6410    5.0194 H   0  0  0  0  0  0  0  0  0  0  0  0
    1.6926    1.9630    4.8237 H   0  0  0  0  0  0  0  0  0  0  0  0
    0.3851    0.0320    5.6581 H   0  0  0  0  0  0  0  0  0  0  0  0
    0.7965   -0.6867    7.6078 H   0  0  0  0  0  0  0  0  0  0  0  0
    3.7787   -0.2786    7.6699 H   0  0  0  0  0  0  0  0  0  0  0  0
    3.0507    1.0667    9.2426 H   0  0  0  0  0  0  0  0  0  0  0  0
    3.8359   -1.8125    9.3358 H   0  0  0  0  0  0  0  0  0  0  0  0
    1.1179   -0.8013   10.2758 H   0  0  0  0  0  0  0  0  0  0  0  0
    1.8686   -2.1999   10.9661 H   0  0  0  0  0  0  0  0  0  0  0  0
    2.3563   -0.1300   12.2894 H   0  0  0  0  0  0  0  0  0  0  0  0
    3.3293    0.4927   10.9972 H   0  0  0  0  0  0  0  0  0  0  0  0
    3.8145   -0.9855   11.7890 H   0  0  0  0  0  0  0  0  0  0  0  0
    1.2200   -3.0171    8.9043 H   0  0  0  0  0  0  0  0  0  0  0  0
    3.9212   -3.8421    8.1581 H   0  0  0  0  0  0  0  0  0  0  0  0
    4.4960   -6.5038    8.4465 H   0  0  0  0  0  0  0  0  0  0  0  0
    5.6290   -6.7591    9.7431 H   0  0  0  0  0  0  0  0  0  0  0  0
    5.4567   -5.1205    9.1372 H   0  0  0  0  0  0  0  0  0  0  0  0
    2.2656   -6.0946    7.7750 H   0  0  0  0  0  0  0  0  0  0  0  0
   -0.2029   -7.3557    5.4865 H   0  0  0  0  0  0  0  0  0  0  0  0
   -0.2680   -5.9756    6.5556 H   0  0  0  0  0  0  0  0  0  0  0  0
    0.8719   -7.2823    6.8422 H   0  0  0  0  0  0  0  0  0  0  0  0
   -0.1752   -4.6117    4.4759 H   0  0  0  0  0  0  0  0  0  0  0  0
    1.1679   -4.7534    3.3272 H   0  0  0  0  0  0  0  0  0  0  0  0
   -0.8242   -8.7334    3.0614 H   0  0  0  0  0  0  0  0  0  0  0  0
    0.2988   -9.1303    1.7675 H   0  0  0  0  0  0  0  0  0  0  0  0
   -0.9935   -7.9480    1.4760 H   0  0  0  0  0  0  0  0  0  0  0  0
    2.1524   -5.8649    1.7507 H   0  0  0  0  0  0  0  0  0  0  0  0
    0.7590   -6.2261    0.7238 H   0  0  0  0  0  0  0  0  0  0  0  0
    2.0143   -7.4384    0.9953 H   0  0  0  0  0  0  0  0  0  0  0  0
    2.9571   -6.3550    3.7120 H   0  0  0  0  0  0  0  0  0  0  0  0
    4.5094   -8.0028    6.5307 H   0  0  0  0  0  0  0  0  0  0  0  0
    1.8765   -2.0277    4.3662 H   0  0  0  0  0  0  0  0  0  0  0  0
    0.3437   -3.6891    6.8151 H   0  0  0  0  0  0  0  0  0  0  0  0
    0.9906    0.5229    0.7315 H   0  0  0  0  0  0  0  0  0  0  0  0
    1.4376    1.9710    1.6560 H   0  0  0  0  0  0  0  0  0  0  0  0
   -0.2603    1.6555    1.3177 H   0  0  0  0  0  0  0  0  0  0  0  0
  1  2  2  0
  1 71  1  0
  1 72  1  0
  2  3  1  0
  2 73  1  0
  3 60  1  0
  3  4  1  1
  3  5  1  0
  4 74  1  0
  4 75  1  0
  4 76  1  0
  5  6  1  0
  5 77  1  0
  5 78  1  0
  6 58  1  0
  6  7  1  6
  6  8  1  0
  7 79  1  0
  8 21  1  0
  8  9  1  6
  8 10  1  0
  9 80  1  0
 11 10  1  6
 11 19  1  0
 11 23  1  0
 11 12  1  0
 12 13  1  0
 13 14  1  0
 13 23  1  0
 13 81  1  1
 14 15  1  0
 14 16  1  0
 14 82  1  6
 15 83  1  0
 16 17  1  0
 16 18  1  1
 16 19  1  0
 17 84  1  0
 17 85  1  0
 17 86  1  0
 18 87  1  0
 19 20  1  6
 19 21  1  0
 20 88  1  0
 20 89  1  0
 20 90  1  0
 21 22  1  0
 21 91  1  6
 22 92  1  0
 23 24  1  0
 23 93  1  6
 25 24  1  1
 24 94  1  0
 24 95  1  0
 25 26  2  0
 25 27  1  0
 27 62  1  0
 27 28  1  6
 27 29  1  0
 28 96  1  0
 29 30  1  0
 29 97  1  0
 29 98  1  0
 30 66  1  0
 30 31  1  0
 30 99  1  1
 31 32  1  0
 32 33  1  0
 32100  1  0
 32101  1  0
 33 66  1  0
 33 34  1  0
 33102  1  6
 34 35  1  0
 34 66  1  0
 34103  1  6
 35 64  1  0
 35 36  1  0
 35104  1  1
 36 37  1  0
 36 38  1  0
 36105  1  6
 37106  1  0
 38 39  1  0
 38 41  1  0
 38107  1  1
 39 40  1  0
 39108  1  0
 39109  1  0
 40110  1  0
 40111  1  0
 40112  1  0
 41 64  1  0
 41 42  1  0
 41113  1  1
 42 43  1  0
 42 47  1  0
 42114  1  6
 43 44  1  0
 44 45  1  0
 44 46  2  0
 45115  1  0
 45116  1  0
 45117  1  0
 47 48  2  0
 47118  1  0
 48 49  1  0
 48 62  1  0
 49 57  1  0
 49 50  1  1
 49 51  1  0
 50119  1  0
 50120  1  0
 50121  1  0
 51 52  1  0
 51122  1  0
 51123  1  0
 52 53  1  0
 53 54  1  0
 53 55  1  0
 53 56  1  0
 54124  1  0
 54125  1  0
 54126  1  0
 55127  1  0
 55128  1  0
 55129  1  0
 56 57  1  0
 57 58  1  0
 57130  1  6
 58 59  1  1
 58 60  1  0
 59131  1  0
 60 61  2  0
 62 63  1  6
 62 64  1  0
 63132  1  0
 64 65  1  1
 65133  1  0
 66 67  1  6
 67 68  1  0
 68 69  1  0
 68 70  2  0
 69134  1  0
 69135  1  0
 69136  1  0
M  END
>  <i_m_ct_stereo_status>  (72) 
1

>  <s_m_source_file>  (72) 
/var/tmp/pbs.5075288.sched01/tmpeqwi9iw0/66la8jmv2o.sdf

>  <i_m_source_file_index>  (72) 
43

>  <i_lp_mmshare_version>  (72) 
48012

>  <i_f3d_flags>  (72) 
0

>  <s_epik_input>  (72) 
W0NAXTEyM1tDQEBdNChbQ0gzXSlbQ0BdKFtDSDNdKShbT0hdKVtDQEhdKFtPSF0pW0NASF0oTzIpW0NAQEhdM1tDSDJdW1MrXShbTy1dKVtDQEBdNShbT0hdKVtDQEBdNihbT0hdKUMoW0NAXTcoW0NIM10pW0NASF0oT0MoW0NIM10pKFtDSDNdKU9bQ0gyXTcpW0NAXTgoW09IXSlbQ0BAXShbT0hdKShbQ0BdKE8xKShbT0hdKVtDQEBIXTRbT0hdKVtDSDJdW0NAQF0oW0NIM10pKEM4PU8pW0NIXT1bQ0gyXSk9W0NIXVtDQEhdKE9DKD1PKVtDSDNdKVtDQEBIXTlbQ0BAXTYoW09IXSlbQ0BASF0oW0NAQEhdKFtPSF0pW0NASF05W0NIMl1bQ0gzXSlbQ0BIXTFbQ0BASF0yW0NAXTEoW0NAQEhdKFtDSDJdNSlPW0NIMl0yKU9DKD1PKVtDSDNd

>  <s_epik_cmdline>  (72) 
J2VwaWtfcHl0aG9uJywgJy1waHQnLCAnMi4wJywgJy1waCcsICc3LjAnLCAnLXRuJywgJzgnLCAnLW1hJywgJzIwMCcsICctaW1hZScsICc8aW5maWxlLm1hZT4nLCAnLW9tYWUnLCAnPG91dGZpbGUubWFlPic=

>  <r_lp_tautomer_probability>  (72) 
1

>  <r_epik_Ionization_Penalty>  (72) 
3.17675e-05

>  <r_epik_Ionization_Penalty_Charging>  (72) 
0

>  <r_epik_Ionization_Penalty_Neutral>  (72) 
3.17675e-05

>  <r_epik_State_Penalty>  (72) 
-0

>  <r_epik_Charging_Adjusted_Penalty>  (72) 
0

>  <i_epik_Tot_Q>  (72) 
0

>  <i_epik_Tot_abs_Q>  (72) 
2

>  <s_epik_Chemistry_Notes>  (72) 
This compound has an ester and may undergo hydrolysis at high or low pH.

>  <s_lp_Force_Field>  (72) 
OPLS3e

>  <r_lp_Energy>  (72) 
188.705

>  <b_lp_Chiralities_Consistent>  (72) 
1

>  <s_lp_Variant>  (72) 
53:0-2

>  <s_i_glide_gridfile>  (72) 
pfpi4k_grid

>  <i_i_glide_lignum>  (72) 
43

>  <i_i_glide_rotatable_bonds>  (72) 
16

>  <r_i_docking_score>  (72) 
-2.32471

>  <r_i_glide_ligand_efficiency>  (72) 
-0.0332101

>  <r_i_glide_ligand_efficiency_sa>  (72) 
-0.136868

>  <r_i_glide_ligand_efficiency_ln>  (72) 
-0.442928

>  <r_i_glide_gscore>  (72) 
-2.32471

>  <r_i_glide_lipo>  (72) 
-0.047773

>  <r_i_glide_hbond>  (72) 
-0.119966

>  <r_i_glide_metal>  (72) 
-0

>  <r_i_glide_rewards>  (72) 
-0.51947

>  <r_i_glide_evdw>  (72) 
-29.6447

>  <r_i_glide_ecoul>  (72) 
-3.04372

>  <r_i_glide_erotb>  (72) 
0.0654256

>  <r_i_glide_esite>  (72) 
-0.096721

>  <r_i_glide_emodel>  (72) 
-26.327

>  <r_i_glide_energy>  (72) 
-32.6884

>  <r_i_glide_einternal>  (72) 
24.5995

>  <r_i_glide_intrahb_reward>  (72) 
-0.5

>  <i_i_glide_confnum>  (72) 
1

>  <i_i_glide_posenum>  (72) 
37

>  <r_i_glide_eff_state_penalty>  (72) 
0

>  <ligand_id>  (72) 
53

>  <original_smiles>  (72) 
C=CC1(C)CC2(O)C3(O)OC45OC(C(O)C(C)(O)C4(C)C3O)C5C[S+]([O-])C3(O)CC4OCC5C(C6C(O)C(CC)C7C(OC(C)=O)C=C(C8(C)COC(C)(C)OC8C2(O)C1=O)C3(O)C76O)C45OC(C)=O

>  <smiles>  (72) 
[H]OC1([H])C([H])(C([H])([H])C([H])([H])[H])C2([H])C([H])(OC(=O)C([H])([H])[H])C([H])=C3C4(O[H])C(O[H])(S(=O)C([H])([H])C5([H])C6([H])OC57OC(O[H])(C([H])(O[H])C7(C([H])([H])[H])C(O[H])(C([H])([H])[H])C6([H])O[H])C5(O[H])C([H])([H])C(C([H])=C([H])[H])(C([H])([H])[H])C(=O)C5(O[H])C5([H])OC(C([H])([H])[H])(C([H])([H])[H])OC([H])([H])C35C([H])([H])[H])C([H])([H])C3([H])OC([H])([H])C5([H])C([H])(C1([H])C42O[H])C35OC(=O)C([H])([H])[H]

$$$$
53:1:1
     RDKit          3D

136146  0  0  1  0  0  0  0  0999 V2000
    3.6475  -12.1560    3.2469 C   0  0  0  0  0  0  0  0  0  0  0  0
    3.3211  -11.8256    4.5113 C   0  0  0  0  0  0  0  0  0  0  0  0
    3.8113  -10.5956    5.2945 C   0  0  1  0  0  0  0  0  0  0  0  0
    4.0228  -10.9981    6.7641 C   0  0  0  0  0  0  0  0  0  0  0  0
    5.0874   -9.9071    4.7364 C   0  0  0  0  0  0  0  0  0  0  0  0
    4.6433   -8.6090    3.9976 C   0  0  2  0  0  0  0  0  0  0  0  0
    4.0997   -9.0434    2.7583 O   0  0  0  0  0  0  0  0  0  0  0  0
    5.7846   -7.5257    3.6865 C   0  0  1  0  0  0  0  0  0  0  0  0
    5.3592   -6.7582    2.5886 O   0  0  0  0  0  0  0  0  0  0  0  0
    5.8759   -6.6439    4.7484 O   0  0  0  0  0  0  0  0  0  0  0  0
    7.0269   -6.8674    5.4625 C   0  0  1  0  0  0  0  0  0  0  0  0
    6.9026   -7.8308    6.5285 O   0  0  0  0  0  0  0  0  0  0  0  0
    7.8801   -7.0270    7.2219 C   0  0  1  0  0  0  0  0  0  0  0  0
    9.2702   -7.5566    6.7765 C   0  0  1  0  0  0  0  0  0  0  0  0
    9.8159   -8.4478    7.7269 O   0  0  0  0  0  0  0  0  0  0  0  0
    9.2065   -8.1650    5.3376 C   0  0  1  0  0  0  0  0  0  0  0  0
   10.5939   -8.2073    4.6830 C   0  0  0  0  0  0  0  0  0  0  0  0
    8.8707   -9.5351    5.5267 O   0  0  0  0  0  0  0  0  0  0  0  0
    8.1226   -7.3460    4.5150 C   0  0  2  0  0  0  0  0  0  0  0  0
    8.7765   -6.1037    3.9064 C   0  0  0  0  0  0  0  0  0  0  0  0
    7.2750   -8.0050    3.4045 C   0  0  1  0  0  0  0  0  0  0  0  0
    7.5064   -9.3844    3.2389 O   0  0  0  0  0  0  0  0  0  0  0  0
    7.3183   -5.7744    6.5191 C   0  0  2  0  0  0  0  0  0  0  0  0
    6.1259   -5.1099    7.2571 C   0  0  0  0  0  0  0  0  0  0  0  0
    5.8047   -3.3333    6.7987 S   0  0  0  0  0  0  0  0  0  0  0  0
    5.4300   -2.6556    8.0965 O   0  0  0  0  0  0  0  0  0  0  0  0
    4.3723   -3.2582    5.5520 C   0  0  2  0  0  0  0  0  0  0  0  0
    4.5294   -4.2019    4.5115 O   0  0  0  0  0  0  0  0  0  0  0  0
    4.7219   -1.9468    4.7685 C   0  0  0  0  0  0  0  0  0  0  0  0
    4.3615   -0.6949    5.5674 C   0  0  1  0  0  0  0  0  0  0  0  0
    5.1786    0.4572    5.6687 O   0  0  0  0  0  0  0  0  0  0  0  0
    4.4102    1.3485    6.5014 C   0  0  0  0  0  0  0  0  0  0  0  0
    2.9267    1.0748    6.2501 C   0  0  2  0  0  0  0  0  0  0  0  0
    2.0198   -0.1609    6.4551 C   0  0  2  0  0  0  0  0  0  0  0  0
    2.0831   -1.1566    7.6303 C   0  0  2  0  0  0  0  0  0  0  0  0
    3.0536   -0.9104    8.7985 C   0  0  1  0  0  0  0  0  0  0  0  0
    2.7399    0.3141    9.4271 O   0  0  0  0  0  0  0  0  0  0  0  0
    2.9294   -2.1937    9.6711 C   0  0  1  0  0  0  0  0  0  0  0  0
    2.1470   -1.9982   10.9997 C   0  0  0  0  0  0  0  0  0  0  0  0
    2.9611   -1.3386   12.1323 C   0  0  0  0  0  0  0  0  0  0  0  0
    2.2857   -3.2841    8.7530 C   0  0  2  0  0  0  0  0  0  0  0  0
    2.9775   -4.6607    8.7271 C   0  0  1  0  0  0  0  0  0  0  0  0
    2.7567   -5.3886    9.9538 O   0  0  0  0  0  0  0  0  0  0  0  0
    3.5119   -6.4367   10.4111 C   0  0  0  0  0  0  0  0  0  0  0  0
    4.7530   -6.7820    9.5452 C   0  0  0  0  0  0  0  0  0  0  0  0
    3.2715   -7.0160   11.4761 O   0  0  0  0  0  0  0  0  0  0  0  0
    2.5209   -5.4691    7.5261 C   0  0  0  0  0  0  0  0  0  0  0  0
    2.4236   -5.0021    6.2465 C   0  0  0  0  0  0  0  0  0  0  0  0
    1.6809   -5.9369    5.1632 C   0  0  1  0  0  0  0  0  0  0  0  0
    0.5317   -6.7134    5.8687 C   0  0  0  0  0  0  0  0  0  0  0  0
    0.9347   -5.1200    4.0685 C   0  0  0  0  0  0  0  0  0  0  0  0
    0.2238   -5.9284    3.1367 O   0  0  0  0  0  0  0  0  0  0  0  0
    1.0181   -6.8576    2.4654 C   0  0  0  0  0  0  0  0  0  0  0  0
    0.0671   -7.8387    1.7990 C   0  0  0  0  0  0  0  0  0  0  0  0
    1.9439   -6.2042    1.4113 C   0  0  0  0  0  0  0  0  0  0  0  0
    1.7654   -7.6133    3.3462 O   0  0  0  0  0  0  0  0  0  0  0  0
    2.5812   -6.9364    4.3051 C   0  0  2  0  0  0  0  0  0  0  0  0
    3.4596   -8.1108    4.9063 C   0  0  2  0  0  0  0  0  0  0  0  0
    3.9115   -7.6860    6.1582 O   0  0  0  0  0  0  0  0  0  0  0  0
    2.7769   -9.4619    5.2148 C   0  0  0  0  0  0  0  0  0  0  0  0
    1.5784   -9.6285    5.4529 O   0  0  0  0  0  0  0  0  0  0  0  0
    2.8247   -3.4618    6.0825 C   0  0  2  0  0  0  0  0  0  0  0  0
    2.1548   -2.8565    4.9961 O   0  0  0  0  0  0  0  0  0  0  0  0
    2.0816   -2.6899    7.3274 C   0  0  2  0  0  0  0  0  0  0  0  0
    0.6879   -2.9554    7.1264 O   0  0  0  0  0  0  0  0  0  0  0  0
    3.0097   -0.1185    5.3642 C   0  0  2  0  0  0  0  0  0  0  0  0
    2.4808   -0.0495    4.0353 O   0  0  0  0  0  0  0  0  0  0  0  0
    2.5959    1.0313    3.2149 C   0  0  0  0  0  0  0  0  0  0  0  0
    2.1092    0.7633    1.7927 C   0  0  0  0  0  0  0  0  0  0  0  0
    3.0181    2.1470    3.5182 O   0  0  0  0  0  0  0  0  0  0  0  0
    4.2821  -11.5447    2.6243 H   0  0  0  0  0  0  0  0  0  0  0  0
    3.2874  -13.0613    2.7799 H   0  0  0  0  0  0  0  0  0  0  0  0
    2.6365  -12.4842    5.0486 H   0  0  0  0  0  0  0  0  0  0  0  0
    3.0990  -11.4061    7.1550 H   0  0  0  0  0  0  0  0  0  0  0  0
    4.2625  -10.1594    7.4176 H   0  0  0  0  0  0  0  0  0  0  0  0
    4.7871  -11.7725    6.8766 H   0  0  0  0  0  0  0  0  0  0  0  0
    5.7495   -9.6668    5.5675 H   0  0  0  0  0  0  0  0  0  0  0  0
    5.6537  -10.6009    4.1200 H   0  0  0  0  0  0  0  0  0  0  0  0
    4.7465   -9.5724    2.3266 H   0  0  0  0  0  0  0  0  0  0  0  0
    6.0644   -6.1744    2.3082 H   0  0  0  0  0  0  0  0  0  0  0  0
    7.7027   -7.0026    8.2895 H   0  0  0  0  0  0  0  0  0  0  0  0
    9.9320   -6.6986    6.7590 H   0  0  0  0  0  0  0  0  0  0  0  0
    9.2622   -9.2235    7.7197 H   0  0  0  0  0  0  0  0  0  0  0  0
   11.0737   -7.2264    4.6272 H   0  0  0  0  0  0  0  0  0  0  0  0
   10.5172   -8.6119    3.6754 H   0  0  0  0  0  0  0  0  0  0  0  0
   11.2472   -8.8622    5.2511 H   0  0  0  0  0  0  0  0  0  0  0  0
    8.5325   -9.8495    4.6906 H   0  0  0  0  0  0  0  0  0  0  0  0
    9.4255   -6.3119    3.0567 H   0  0  0  0  0  0  0  0  0  0  0  0
    9.3376   -5.5201    4.6435 H   0  0  0  0  0  0  0  0  0  0  0  0
    7.9540   -5.4894    3.5389 H   0  0  0  0  0  0  0  0  0  0  0  0
    7.5639   -7.5712    2.4525 H   0  0  0  0  0  0  0  0  0  0  0  0
    8.3089   -9.4826    2.7272 H   0  0  0  0  0  0  0  0  0  0  0  0
    8.1331   -5.0999    6.2800 H   0  0  0  0  0  0  0  0  0  0  0  0
    5.2124   -5.6597    7.1097 H   0  0  0  0  0  0  0  0  0  0  0  0
    6.3116   -5.0767    8.3031 H   0  0  0  0  0  0  0  0  0  0  0  0
    5.3651   -4.6375    4.6099 H   0  0  0  0  0  0  0  0  0  0  0  0
    5.8001   -1.9627    4.5902 H   0  0  0  0  0  0  0  0  0  0  0  0
    4.2481   -1.9529    3.7817 H   0  0  0  0  0  0  0  0  0  0  0  0
    4.3682   -1.0734    6.5600 H   0  0  0  0  0  0  0  0  0  0  0  0
    4.5817    1.1766    7.5616 H   0  0  0  0  0  0  0  0  0  0  0  0
    4.6376    2.3947    6.2677 H   0  0  0  0  0  0  0  0  0  0  0  0
    2.3690    1.9354    5.9313 H   0  0  0  0  0  0  0  0  0  0  0  0
    1.0021   -0.0046    6.0855 H   0  0  0  0  0  0  0  0  0  0  0  0
    1.1135   -0.9900    8.1230 H   0  0  0  0  0  0  0  0  0  0  0  0
    4.0975   -0.8037    8.4975 H   0  0  0  0  0  0  0  0  0  0  0  0
    1.8896    0.2277    9.8497 H   0  0  0  0  0  0  0  0  0  0  0  0
    3.9309   -2.5162    9.9616 H   0  0  0  0  0  0  0  0  0  0  0  0
    1.2079   -1.4663   10.8160 H   0  0  0  0  0  0  0  0  0  0  0  0
    1.8393   -2.9691   11.3792 H   0  0  0  0  0  0  0  0  0  0  0  0
    2.3253   -1.1066   12.9844 H   0  0  0  0  0  0  0  0  0  0  0  0
    3.4335   -0.3997   11.8432 H   0  0  0  0  0  0  0  0  0  0  0  0
    3.7654   -1.9904   12.4858 H   0  0  0  0  0  0  0  0  0  0  0  0
    1.2952   -3.4732    9.1743 H   0  0  0  0  0  0  0  0  0  0  0  0
    4.0045   -4.4145    8.5583 H   0  0  0  0  0  0  0  0  0  0  0  0
    4.3980   -7.1249    8.5666 H   0  0  0  0  0  0  0  0  0  0  0  0
    5.3594   -7.6355    9.9075 H   0  0  0  0  0  0  0  0  0  0  0  0
    5.3760   -5.9326    9.5039 H   0  0  0  0  0  0  0  0  0  0  0  0
    2.2424   -6.4733    7.7817 H   0  0  0  0  0  0  0  0  0  0  0  0
   -0.0812   -7.2795    5.1675 H   0  0  0  0  0  0  0  0  0  0  0  0
   -0.1456   -6.0323    6.3923 H   0  0  0  0  0  0  0  0  0  0  0  0
    0.8825   -7.4452    6.5963 H   0  0  0  0  0  0  0  0  0  0  0  0
    0.1859   -4.4477    4.4902 H   0  0  0  0  0  0  0  0  0  0  0  0
    1.6273   -4.5341    3.4691 H   0  0  0  0  0  0  0  0  0  0  0  0
   -0.5704   -8.3130    2.5460 H   0  0  0  0  0  0  0  0  0  0  0  0
    0.6609   -8.6149    1.3156 H   0  0  0  0  0  0  0  0  0  0  0  0
   -0.5567   -7.3344    1.0586 H   0  0  0  0  0  0  0  0  0  0  0  0
    2.6734   -5.5221    1.8411 H   0  0  0  0  0  0  0  0  0  0  0  0
    1.3679   -5.6577    0.6646 H   0  0  0  0  0  0  0  0  0  0  0  0
    2.5079   -6.9891    0.9011 H   0  0  0  0  0  0  0  0  0  0  0  0
    3.2756   -6.2877    3.7789 H   0  0  0  0  0  0  0  0  0  0  0  0
    4.4729   -8.3897    6.4677 H   0  0  0  0  0  0  0  0  0  0  0  0
    1.2550   -3.1753    4.9936 H   0  0  0  0  0  0  0  0  0  0  0  0
    0.3997   -2.4543    6.3695 H   0  0  0  0  0  0  0  0  0  0  0  0
    1.0581    0.5004    1.7601 H   0  0  0  0  0  0  0  0  0  0  0  0
    2.6903   -0.0047    1.2866 H   0  0  0  0  0  0  0  0  0  0  0  0
    2.2128    1.6828    1.2263 H   0  0  0  0  0  0  0  0  0  0  0  0
  1  2  2  0
  1 71  1  0
  1 72  1  0
  2  3  1  0
  2 73  1  0
  3 60  1  0
  3  4  1  1
  3  5  1  0
  4 74  1  0
  4 75  1  0
  4 76  1  0
  5  6  1  0
  5 77  1  0
  5 78  1  0
  6 58  1  0
  6  7  1  6
  6  8  1  0
  7 79  1  0
  8 21  1  0
  8  9  1  6
  8 10  1  0
  9 80  1  0
 11 10  1  6
 11 19  1  0
 11 23  1  0
 11 12  1  0
 12 13  1  0
 13 14  1  0
 13 23  1  0
 13 81  1  1
 14 15  1  0
 14 16  1  0
 14 82  1  6
 15 83  1  0
 16 17  1  0
 16 18  1  1
 16 19  1  0
 17 84  1  0
 17 85  1  0
 17 86  1  0
 18 87  1  0
 19 20  1  6
 19 21  1  0
 20 88  1  0
 20 89  1  0
 20 90  1  0
 21 22  1  0
 21 91  1  6
 22 92  1  0
 23 24  1  0
 23 93  1  6
 25 24  1  1
 24 94  1  0
 24 95  1  0
 25 26  2  0
 25 27  1  0
 27 62  1  0
 27 28  1  6
 27 29  1  0
 28 96  1  0
 29 30  1  0
 29 97  1  0
 29 98  1  0
 30 66  1  0
 30 31  1  0
 30 99  1  1
 31 32  1  0
 32 33  1  0
 32100  1  0
 32101  1  0
 33 66  1  0
 33 34  1  0
 33102  1  6
 34 35  1  0
 34 66  1  0
 34103  1  6
 35 64  1  0
 35 36  1  0
 35104  1  1
 36 37  1  0
 36 38  1  0
 36105  1  6
 37106  1  0
 38 39  1  0
 38 41  1  0
 38107  1  1
 39 40  1  0
 39108  1  0
 39109  1  0
 40110  1  0
 40111  1  0
 40112  1  0
 41 64  1  0
 41 42  1  0
 41113  1  1
 42 43  1  0
 42 47  1  0
 42114  1  6
 43 44  1  0
 44 45  1  0
 44 46  2  0
 45115  1  0
 45116  1  0
 45117  1  0
 47 48  2  0
 47118  1  0
 48 49  1  0
 48 62  1  0
 49 57  1  0
 49 50  1  1
 49 51  1  0
 50119  1  0
 50120  1  0
 50121  1  0
 51 52  1  0
 51122  1  0
 51123  1  0
 52 53  1  0
 53 54  1  0
 53 55  1  0
 53 56  1  0
 54124  1  0
 54125  1  0
 54126  1  0
 55127  1  0
 55128  1  0
 55129  1  0
 56 57  1  0
 57 58  1  0
 57130  1  6
 58 59  1  1
 58 60  1  0
 59131  1  0
 60 61  2  0
 62 63  1  6
 62 64  1  0
 63132  1  0
 64 65  1  6
 65133  1  0
 66 67  1  6
 67 68  1  0
 68 69  1  0
 68 70  2  0
 69134  1  0
 69135  1  0
 69136  1  0
M  END
>  <i_m_ct_stereo_status>  (73) 
1

>  <s_m_source_file>  (73) 
/var/tmp/pbs.5075288.sched01/tmpeqwi9iw0/66la8jmv2o.sdf

>  <i_m_source_file_index>  (73) 
43

>  <i_lp_mmshare_version>  (73) 
48012

>  <i_f3d_flags>  (73) 
0

>  <s_epik_input>  (73) 
W0NAXTEyM1tDQEBdNChbQ0gzXSlbQ0BdKFtDSDNdKShbT0hdKVtDQEhdKFtPSF0pW0NASF0oTzIpW0NAQEhdM1tDSDJdW1MrXShbTy1dKVtDQEBdNShbT0hdKVtDQEBdNihbT0hdKUMoW0NAXTcoW0NIM10pW0NASF0oT0MoW0NIM10pKFtDSDNdKU9bQ0gyXTcpW0NAXTgoW09IXSlbQ0BAXShbT0hdKShbQ0BdKE8xKShbT0hdKVtDQEBIXTRbT0hdKVtDSDJdW0NAQF0oW0NIM10pKEM4PU8pW0NIXT1bQ0gyXSk9W0NIXVtDQEhdKE9DKD1PKVtDSDNdKVtDQEBIXTlbQ0BAXTYoW09IXSlbQ0BASF0oW0NAQEhdKFtPSF0pW0NASF05W0NIMl1bQ0gzXSlbQ0BIXTFbQ0BASF0yW0NAXTEoW0NAQEhdKFtDSDJdNSlPW0NIMl0yKU9DKD1PKVtDSDNd

>  <s_epik_cmdline>  (73) 
J2VwaWtfcHl0aG9uJywgJy1waHQnLCAnMi4wJywgJy1waCcsICc3LjAnLCAnLXRuJywgJzgnLCAnLW1hJywgJzIwMCcsICctaW1hZScsICc8aW5maWxlLm1hZT4nLCAnLW9tYWUnLCAnPG91dGZpbGUubWFlPic=

>  <r_lp_tautomer_probability>  (73) 
1

>  <r_epik_Ionization_Penalty>  (73) 
3.17675e-05

>  <r_epik_Ionization_Penalty_Charging>  (73) 
0

>  <r_epik_Ionization_Penalty_Neutral>  (73) 
3.17675e-05

>  <r_epik_State_Penalty>  (73) 
-0

>  <r_epik_Charging_Adjusted_Penalty>  (73) 
0

>  <i_epik_Tot_Q>  (73) 
0

>  <i_epik_Tot_abs_Q>  (73) 
2

>  <s_epik_Chemistry_Notes>  (73) 
This compound has an ester and may undergo hydrolysis at high or low pH.

>  <s_lp_Force_Field>  (73) 
OPLS3e

>  <r_lp_Energy>  (73) 
188.705

>  <b_lp_Chiralities_Consistent>  (73) 
1

>  <s_lp_Variant>  (73) 
53:0-2

>  <s_i_glide_gridfile>  (73) 
pfpi4k_grid

>  <i_i_glide_lignum>  (73) 
43

>  <i_i_glide_rotatable_bonds>  (73) 
16

>  <r_i_docking_score>  (73) 
-2.03986

>  <r_i_glide_ligand_efficiency>  (73) 
-0.0291409

>  <r_i_glide_ligand_efficiency_sa>  (73) 
-0.120098

>  <r_i_glide_ligand_efficiency_ln>  (73) 
-0.388657

>  <r_i_glide_gscore>  (73) 
-2.03986

>  <r_i_glide_lipo>  (73) 
-0.0508778

>  <r_i_glide_hbond>  (73) 
-0.0950313

>  <r_i_glide_metal>  (73) 
-0

>  <r_i_glide_rewards>  (73) 
-0.520096

>  <r_i_glide_evdw>  (73) 
-27.6566

>  <r_i_glide_ecoul>  (73) 
-1.45061

>  <r_i_glide_erotb>  (73) 
0.0654256

>  <r_i_glide_esite>  (73) 
-0.0665287

>  <r_i_glide_emodel>  (73) 
-28.7346

>  <r_i_glide_energy>  (73) 
-29.1073

>  <r_i_glide_einternal>  (73) 
11.6224

>  <r_i_glide_intrahb_reward>  (73) 
-0.5

>  <i_i_glide_confnum>  (73) 
1

>  <i_i_glide_posenum>  (73) 
1

>  <r_i_glide_eff_state_penalty>  (73) 
0

>  <ligand_id>  (73) 
53

>  <original_smiles>  (73) 
C=CC1(C)CC2(O)C3(O)OC45OC(C(O)C(C)(O)C4(C)C3O)C5C[S+]([O-])C3(O)CC4OCC5C(C6C(O)C(CC)C7C(OC(C)=O)C=C(C8(C)COC(C)(C)OC8C2(O)C1=O)C3(O)C76O)C45OC(C)=O

>  <smiles>  (73) 
[H]OC1([H])C([H])(C([H])([H])C([H])([H])[H])C2([H])C([H])(OC(=O)C([H])([H])[H])C([H])=C3C4(O[H])C(O[H])(S(=O)C([H])([H])C5([H])C6([H])OC57OC(O[H])(C([H])(O[H])C7(C([H])([H])[H])C(O[H])(C([H])([H])[H])C6([H])O[H])C5(O[H])C([H])([H])C(C([H])=C([H])[H])(C([H])([H])[H])C(=O)C5(O[H])C5([H])OC(C([H])([H])[H])(C([H])([H])[H])OC([H])([H])C35C([H])([H])[H])C([H])([H])C3([H])OC([H])([H])C5([H])C([H])(C1([H])C42O[H])C35OC(=O)C([H])([H])[H]

$$$$
55:0:0
     RDKit          3D

 77 82  0  0  1  0  0  0  0  0999 V2000
    1.9052   -1.5603    9.5033 C   0  0  0  0  0  0  0  0  0  0  0  0
    1.0213   -2.1660    8.3994 C   0  0  0  0  0  0  0  0  0  0  0  0
    0.0020   -2.7984    8.6976 O   0  0  0  0  0  0  0  0  0  0  0  0
    1.4040   -1.9787    7.1045 O   0  0  0  0  0  0  0  0  0  0  0  0
    2.5150   -1.1786    6.6895 C   0  0  2  0  0  0  0  0  0  0  0  0
    2.0988    0.3339    6.7845 C   0  0  0  0  0  0  0  0  0  0  0  0
    1.5108    1.1066    5.5637 C   0  0  1  0  0  0  0  0  0  0  0  0
    0.4702    0.3673    4.8883 O   0  0  0  0  0  0  0  0  0  0  0  0
   -0.6751   -0.1350    5.4277 C   0  0  0  0  0  0  0  0  0  0  0  0
   -1.5773   -0.7477    4.3586 C   0  0  0  0  0  0  0  0  0  0  0  0
   -1.0098   -0.1369    6.6166 O   0  0  0  0  0  0  0  0  0  0  0  0
    0.8806    2.4723    6.0709 C   0  0  2  0  0  0  0  0  0  0  0  0
   -0.2058    2.4893    7.1201 C   0  0  0  0  0  0  0  0  0  0  0  0
   -1.3031    3.0706    6.6358 C   0  0  0  0  0  0  0  0  0  0  0  0
   -2.6452    3.3033    7.2994 C   0  0  0  0  0  0  0  0  0  0  0  0
   -1.0142    3.5393    5.2781 C   0  0  0  0  0  0  0  0  0  0  0  0
   -1.7746    4.1599    4.5421 O   0  0  0  0  0  0  0  0  0  0  0  0
    0.2456    3.1689    4.9999 O   0  0  0  0  0  0  0  0  0  0  0  0
    2.7216    1.3928    4.6276 C   0  0  0  0  0  0  0  0  0  0  0  0
    3.5637    2.6280    4.9626 C   0  0  0  0  0  0  0  0  0  0  0  0
    2.9848    4.1345    4.1948 Cl  0  0  0  0  0  0  0  0  0  0  0  0
    3.1911    0.6424    3.5605 C   0  0  0  0  0  0  0  0  0  0  0  0
    2.7554   -0.7082    2.9355 C   0  0  1  0  0  0  0  0  0  0  0  0
    1.5391   -0.3933    2.0364 C   0  0  0  0  0  0  0  0  0  0  0  0
    4.0117   -1.2541    2.0707 C   0  0  2  0  0  0  0  0  0  0  0  0
    4.3963   -0.4941    0.7554 C   0  0  0  0  0  0  0  0  0  0  0  0
    4.7767   -1.5888   -0.3013 C   0  0  2  0  0  0  0  0  0  0  0  0
    3.4835   -2.1138   -0.9729 C   0  0  0  0  0  0  0  0  0  0  0  0
    2.6744   -3.0598    0.4160 S   0  0  0  0  0  0  0  0  0  0  0  0
    2.5644   -4.5326    0.0895 O   0  0  0  0  0  0  0  0  0  0  0  0
    4.1218   -2.7431    1.5391 C   0  0  1  0  0  0  0  0  0  0  0  0
    5.3202   -2.7327    0.5443 C   0  0  0  0  0  0  0  0  0  0  0  0
    5.5611   -4.0758   -0.2019 C   0  0  0  0  0  0  0  0  0  0  0  0
    6.6596   -2.3981    1.2185 C   0  0  0  0  0  0  0  0  0  0  0  0
    2.4019   -1.7326    4.0512 C   0  0  1  0  0  0  0  0  0  0  0  0
    1.0676   -2.5047    4.0521 C   0  0  0  0  0  0  0  0  0  0  0  0
    2.2386   -3.0859    3.5482 O   0  0  0  0  0  0  0  0  0  0  0  0
    3.1685   -1.7266    5.3933 C   0  0  2  0  0  0  0  0  0  0  0  0
    4.1726   -2.8646    5.5995 C   0  0  0  0  0  0  0  0  0  0  0  0
    4.6125   -1.5343    5.3507 O   0  0  0  0  0  0  0  0  0  0  0  0
    2.9352   -1.9398    9.4549 H   0  0  0  0  0  0  0  0  0  0  0  0
    1.5331   -1.8442   10.4744 H   0  0  0  0  0  0  0  0  0  0  0  0
    1.9200   -0.4755    9.4238 H   0  0  0  0  0  0  0  0  0  0  0  0
    3.2749   -1.3471    7.4544 H   0  0  0  0  0  0  0  0  0  0  0  0
    1.4057    0.3735    7.6142 H   0  0  0  0  0  0  0  0  0  0  0  0
    2.9950    0.8582    7.1319 H   0  0  0  0  0  0  0  0  0  0  0  0
   -1.1687   -0.5828    3.3523 H   0  0  0  0  0  0  0  0  0  0  0  0
   -2.5805   -0.3276    4.3924 H   0  0  0  0  0  0  0  0  0  0  0  0
   -1.6429   -1.8324    4.5246 H   0  0  0  0  0  0  0  0  0  0  0  0
    1.6447    3.1072    6.5100 H   0  0  0  0  0  0  0  0  0  0  0  0
   -0.1182    2.0893    8.1235 H   0  0  0  0  0  0  0  0  0  0  0  0
   -3.3962    2.8489    6.6452 H   0  0  0  0  0  0  0  0  0  0  0  0
   -2.8822    4.3726    7.4220 H   0  0  0  0  0  0  0  0  0  0  0  0
   -2.7070    2.8154    8.2710 H   0  0  0  0  0  0  0  0  0  0  0  0
    3.6435    2.7942    6.0447 H   0  0  0  0  0  0  0  0  0  0  0  0
    4.5875    2.5022    4.6173 H   0  0  0  0  0  0  0  0  0  0  0  0
    4.0442    1.0793    3.0600 H   0  0  0  0  0  0  0  0  0  0  0  0
    1.1252   -1.2524    1.5475 H   0  0  0  0  0  0  0  0  0  0  0  0
    1.7516    0.3591    1.2802 H   0  0  0  0  0  0  0  0  0  0  0  0
    0.7396    0.0382    2.6101 H   0  0  0  0  0  0  0  0  0  0  0  0
    4.8531   -1.1456    2.7565 H   0  0  0  0  0  0  0  0  0  0  0  0
    3.5937    0.1160    0.3489 H   0  0  0  0  0  0  0  0  0  0  0  0
    5.2370    0.1741    0.9058 H   0  0  0  0  0  0  0  0  0  0  0  0
    5.4645   -1.2254   -1.0630 H   0  0  0  0  0  0  0  0  0  0  0  0
    2.8732   -1.3013   -1.3876 H   0  0  0  0  0  0  0  0  0  0  0  0
    3.6937   -2.7788   -1.8205 H   0  0  0  0  0  0  0  0  0  0  0  0
    4.2549   -3.4904    2.3136 H   0  0  0  0  0  0  0  0  0  0  0  0
    5.7873   -4.8703    0.5130 H   0  0  0  0  0  0  0  0  0  0  0  0
    6.4085   -3.9832   -0.8752 H   0  0  0  0  0  0  0  0  0  0  0  0
    4.7432   -4.4390   -0.8184 H   0  0  0  0  0  0  0  0  0  0  0  0
    6.8105   -3.0728    2.0562 H   0  0  0  0  0  0  0  0  0  0  0  0
    6.7311   -1.3766    1.5865 H   0  0  0  0  0  0  0  0  0  0  0  0
    7.4863   -2.5400    0.5206 H   0  0  0  0  0  0  0  0  0  0  0  0
    0.7159   -2.9797    4.9740 H   0  0  0  0  0  0  0  0  0  0  0  0
    0.3154   -2.3240    3.2747 H   0  0  0  0  0  0  0  0  0  0  0  0
    4.3034   -3.2140    6.6198 H   0  0  0  0  0  0  0  0  0  0  0  0
    4.4120   -3.5782    4.8180 H   0  0  0  0  0  0  0  0  0  0  0  0
  1  2  1  0
  1 41  1  0
  1 42  1  0
  1 43  1  0
  2  3  2  0
  2  4  1  0
  4  5  1  0
  5 38  1  0
  5  6  1  0
  5 44  1  1
  6  7  1  0
  6 45  1  0
  6 46  1  0
  7  8  1  6
  7 12  1  0
  7 19  1  0
  8  9  1  0
  9 10  1  0
  9 11  2  0
 10 47  1  0
 10 48  1  0
 10 49  1  0
 12 18  1  0
 12 13  1  0
 12 50  1  1
 13 14  2  0
 13 51  1  0
 14 15  1  0
 14 16  1  0
 15 52  1  0
 15 53  1  0
 15 54  1  0
 16 17  2  0
 16 18  1  0
 19 20  1  0
 19 22  2  3
 20 21  1  0
 20 55  1  0
 20 56  1  0
 22 23  1  0
 22 57  1  0
 23 24  1  6
 23 25  1  0
 23 35  1  0
 24 58  1  0
 24 59  1  0
 24 60  1  0
 25 31  1  0
 25 26  1  0
 25 61  1  1
 26 27  1  0
 26 62  1  0
 26 63  1  0
 27 32  1  0
 27 28  1  0
 27 64  1  6
 29 28  1  6
 28 65  1  0
 28 66  1  0
 29 30  2  0
 29 31  1  0
 31 32  1  0
 31 67  1  1
 32 33  1  0
 32 34  1  0
 33 68  1  0
 33 69  1  0
 33 70  1  0
 34 71  1  0
 34 72  1  0
 34 73  1  0
 35 37  1  6
 35 36  1  0
 35 38  1  0
 36 37  1  0
 36 74  1  0
 36 75  1  0
 38 40  1  6
 38 39  1  0
 39 40  1  0
 39 76  1  0
 39 77  1  0
M  END
>  <i_m_ct_stereo_status>  (74) 
1

>  <s_m_source_file>  (74) 
/var/tmp/pbs.5075288.sched01/tmpeqwi9iw0/66la8jmv2o.sdf

>  <i_m_source_file_index>  (74) 
46

>  <i_lp_mmshare_version>  (74) 
48012

>  <i_f3d_flags>  (74) 
0

>  <s_epik_input>  (74) 
TzFbQ0gyXVtDQEBdMTJbQ0BdMyhbQ0gyXU8zKVtDQEhdKE9DKD1PKVtDSDNdKVtDSDJdW0NAQF0oT0MoPU8pW0NIM10pKFtDQEBIXTRbQ0hdPUMoW0NIM10pQyg9TylPNCkvQyhbQ0gyXUNsKT1bQ0hdXFtDQEBdMihbQ0gzXSlbQ0BIXShbQ0gyXVtDQEhdNTYpW0NAQEhdKFtTK10oW08tXSlbQ0gyXTUpQzYoW0NIM10pW0NIM10=

>  <s_epik_cmdline>  (74) 
J2VwaWtfcHl0aG9uJywgJy1waHQnLCAnMi4wJywgJy1waCcsICc3LjAnLCAnLXRuJywgJzgnLCAnLW1hJywgJzIwMCcsICctaW1hZScsICc8aW5maWxlLm1hZT4nLCAnLW9tYWUnLCAnPG91dGZpbGUubWFlPic=

>  <r_lp_tautomer_probability>  (74) 
1

>  <r_epik_Ionization_Penalty>  (74) 
5.97406e-13

>  <r_epik_Ionization_Penalty_Charging>  (74) 
0

>  <r_epik_Ionization_Penalty_Neutral>  (74) 
5.97406e-13

>  <r_epik_State_Penalty>  (74) 
-0

>  <r_epik_Charging_Adjusted_Penalty>  (74) 
0

>  <i_epik_Tot_Q>  (74) 
0

>  <i_epik_Tot_abs_Q>  (74) 
2

>  <s_epik_Chemistry_Notes>  (74) 
This compound has an ester and may undergo hydrolysis at high or low pH.

>  <s_lp_Force_Field>  (74) 
OPLS3e

>  <r_lp_Energy>  (74) 
77.6998

>  <b_lp_Chiralities_Consistent>  (74) 
1

>  <s_lp_Variant>  (74) 
55:0-1

>  <s_i_glide_gridfile>  (74) 
pfpi4k_grid

>  <i_i_glide_lignum>  (74) 
46

>  <i_i_glide_rotatable_bonds>  (74) 
7

>  <r_i_docking_score>  (74) 
-2.95007

>  <r_i_glide_ligand_efficiency>  (74) 
-0.0737517

>  <r_i_glide_ligand_efficiency_sa>  (74) 
-0.252227

>  <r_i_glide_ligand_efficiency_ln>  (74) 
-0.629163

>  <r_i_glide_gscore>  (74) 
-2.95007

>  <r_i_glide_lipo>  (74) 
-0.472962

>  <r_i_glide_hbond>  (74) 
-0.255208

>  <r_i_glide_metal>  (74) 
-0

>  <r_i_glide_rewards>  (74) 
0

>  <r_i_glide_evdw>  (74) 
-27.3074

>  <r_i_glide_ecoul>  (74) 
-5.83878

>  <r_i_glide_erotb>  (74) 
0.121108

>  <r_i_glide_esite>  (74) 
-0.10182

>  <r_i_glide_emodel>  (74) 
-34.3177

>  <r_i_glide_energy>  (74) 
-33.1462

>  <r_i_glide_einternal>  (74) 
6.95472

>  <r_i_glide_intrahb_reward>  (74) 
-0

>  <i_i_glide_confnum>  (74) 
3

>  <i_i_glide_posenum>  (74) 
6

>  <r_i_glide_eff_state_penalty>  (74) 
0

>  <ligand_id>  (74) 
55

>  <original_smiles>  (74) 
CC(=O)OC1CC(OC(C)=O)(C2C=C(C)C(=O)O2)C(CCl)=CC(C)(C2CC3C[S+]([O-])C2C3(C)C)C2(CO2)C12CO2

>  <smiles>  (74) 
[H]C1=C(C([H])([H])[H])C(=O)OC1([H])C1(OC(=O)C([H])([H])[H])C(C([H])([H])Cl)=C([H])C(C([H])([H])[H])(C2([H])C([H])([H])C3([H])C([H])([H])S(=O)C2([H])C3(C([H])([H])[H])C([H])([H])[H])C2(OC2([H])[H])C2(OC2([H])[H])C([H])(OC(=O)C([H])([H])[H])C1([H])[H]

$$$$
55:0:1
     RDKit          3D

 77 82  0  0  1  0  0  0  0  0999 V2000
    7.3073    0.7213    5.4949 C   0  0  0  0  0  0  0  0  0  0  0  0
    6.2568   -0.2397    6.0374 C   0  0  0  0  0  0  0  0  0  0  0  0
    6.2808   -0.6300    7.2009 O   0  0  0  0  0  0  0  0  0  0  0  0
    5.3407   -0.5580    5.1030 O   0  0  0  0  0  0  0  0  0  0  0  0
    4.1717   -1.3028    5.4400 C   0  0  2  0  0  0  0  0  0  0  0  0
    4.0151   -2.5324    4.4811 C   0  0  0  0  0  0  0  0  0  0  0  0
    3.0957   -2.5041    3.2019 C   0  0  1  0  0  0  0  0  0  0  0  0
    3.3265   -1.3604    2.3512 O   0  0  0  0  0  0  0  0  0  0  0  0
    4.5211   -0.9688    1.8032 C   0  0  0  0  0  0  0  0  0  0  0  0
    4.2948    0.0289    0.6525 C   0  0  0  0  0  0  0  0  0  0  0  0
    5.6310   -1.3521    2.1354 O   0  0  0  0  0  0  0  0  0  0  0  0
    3.3538   -3.7633    2.2410 C   0  0  2  0  0  0  0  0  0  0  0  0
    3.6145   -5.1243    2.9334 C   0  0  0  0  0  0  0  0  0  0  0  0
    4.8027   -5.5823    2.5646 C   0  0  0  0  0  0  0  0  0  0  0  0
    5.4852   -6.9111    2.9179 C   0  0  0  0  0  0  0  0  0  0  0  0
    5.4238   -4.6393    1.5901 C   0  0  0  0  0  0  0  0  0  0  0  0
    6.5433   -4.7578    1.0743 O   0  0  0  0  0  0  0  0  0  0  0  0
    4.5012   -3.6894    1.3781 O   0  0  0  0  0  0  0  0  0  0  0  0
    1.5953   -2.4575    3.6777 C   0  0  0  0  0  0  0  0  0  0  0  0
    0.8816   -3.8012    3.8916 C   0  0  0  0  0  0  0  0  0  0  0  0
    1.4428   -4.7240    5.3104 Cl  0  0  0  0  0  0  0  0  0  0  0  0
    0.7889   -1.3683    3.9164 C   0  0  0  0  0  0  0  0  0  0  0  0
    1.0097    0.1785    3.9197 C   0  0  1  0  0  0  0  0  0  0  0  0
    0.8705    0.6302    2.4451 C   0  0  0  0  0  0  0  0  0  0  0  0
   -0.1972    0.8483    4.7612 C   0  0  2  0  0  0  0  0  0  0  0  0
   -1.6066    1.0694    4.0861 C   0  0  0  0  0  0  0  0  0  0  0  0
   -2.1307    2.4449    4.5927 C   0  0  2  0  0  0  0  0  0  0  0  0
   -1.5386    3.5607    3.7011 C   0  0  0  0  0  0  0  0  0  0  0  0
    0.2534    3.5305    4.1725 S   0  0  0  0  0  0  0  0  0  0  0  0
    0.5979    4.8560    4.8592 O   0  0  0  0  0  0  0  0  0  0  0  0
   -0.0564    2.2354    5.4893 C   0  0  1  0  0  0  0  0  0  0  0  0
   -1.4878    2.5758    5.9818 C   0  0  0  0  0  0  0  0  0  0  0  0
   -1.6478    3.9583    6.6741 C   0  0  0  0  0  0  0  0  0  0  0  0
   -2.0650    1.5722    7.0118 C   0  0  0  0  0  0  0  0  0  0  0  0
    2.4024    0.4785    4.5379 C   0  0  1  0  0  0  0  0  0  0  0  0
    3.4225    1.3621    3.7335 C   0  0  0  0  0  0  0  0  0  0  0  0
    2.6156    1.9123    4.7550 O   0  0  0  0  0  0  0  0  0  0  0  0
    2.9851   -0.3313    5.6807 C   0  0  2  0  0  0  0  0  0  0  0  0
    2.9503    0.3422    7.0563 C   0  0  0  0  0  0  0  0  0  0  0  0
    2.0654   -0.7408    6.7347 O   0  0  0  0  0  0  0  0  0  0  0  0
    7.7451    0.3366    4.5734 H   0  0  0  0  0  0  0  0  0  0  0  0
    8.0961    0.8694    6.2319 H   0  0  0  0  0  0  0  0  0  0  0  0
    6.8422    1.6846    5.2850 H   0  0  0  0  0  0  0  0  0  0  0  0
    4.3496   -1.7540    6.4100 H   0  0  0  0  0  0  0  0  0  0  0  0
    5.0272   -2.8702    4.2299 H   0  0  0  0  0  0  0  0  0  0  0  0
    3.6374   -3.3084    5.1431 H   0  0  0  0  0  0  0  0  0  0  0  0
    3.2384    0.2371    0.4803 H   0  0  0  0  0  0  0  0  0  0  0  0
    4.7081   -0.3461   -0.2845 H   0  0  0  0  0  0  0  0  0  0  0  0
    4.7979    0.9688    0.8524 H   0  0  0  0  0  0  0  0  0  0  0  0
    2.4802   -3.8743    1.5950 H   0  0  0  0  0  0  0  0  0  0  0  0
    2.9152   -5.6542    3.5946 H   0  0  0  0  0  0  0  0  0  0  0  0
    6.4720   -6.7454    3.3648 H   0  0  0  0  0  0  0  0  0  0  0  0
    5.6174   -7.5209    2.0159 H   0  0  0  0  0  0  0  0  0  0  0  0
    4.8830   -7.4891    3.6221 H   0  0  0  0  0  0  0  0  0  0  0  0
   -0.1916   -3.6686    4.0382 H   0  0  0  0  0  0  0  0  0  0  0  0
    0.9799   -4.4752    3.0539 H   0  0  0  0  0  0  0  0  0  0  0  0
   -0.2274   -1.6018    4.1740 H   0  0  0  0  0  0  0  0  0  0  0  0
    0.9334    1.7115    2.3110 H   0  0  0  0  0  0  0  0  0  0  0  0
   -0.0470    0.2945    1.9618 H   0  0  0  0  0  0  0  0  0  0  0  0
    1.6520    0.2133    1.8223 H   0  0  0  0  0  0  0  0  0  0  0  0
   -0.3376    0.1517    5.5844 H   0  0  0  0  0  0  0  0  0  0  0  0
   -1.6356    1.0981    3.0011 H   0  0  0  0  0  0  0  0  0  0  0  0
   -2.2894    0.2794    4.3875 H   0  0  0  0  0  0  0  0  0  0  0  0
   -3.2174    2.4967    4.5904 H   0  0  0  0  0  0  0  0  0  0  0  0
   -1.6730    3.3951    2.6297 H   0  0  0  0  0  0  0  0  0  0  0  0
   -1.9675    4.5370    3.9184 H   0  0  0  0  0  0  0  0  0  0  0  0
    0.6694    2.2631    6.2939 H   0  0  0  0  0  0  0  0  0  0  0  0
   -1.0307    4.0195    7.5722 H   0  0  0  0  0  0  0  0  0  0  0  0
   -2.6845    4.1085    6.9812 H   0  0  0  0  0  0  0  0  0  0  0  0
   -1.3900    4.8155    6.0634 H   0  0  0  0  0  0  0  0  0  0  0  0
   -1.3799    1.4549    7.8504 H   0  0  0  0  0  0  0  0  0  0  0  0
   -2.2669    0.5896    6.5980 H   0  0  0  0  0  0  0  0  0  0  0  0
   -3.0116    1.9269    7.4217 H   0  0  0  0  0  0  0  0  0  0  0  0
    4.4641    1.4020    4.0179 H   0  0  0  0  0  0  0  0  0  0  0  0
    3.1693    1.7793    2.7728 H   0  0  0  0  0  0  0  0  0  0  0  0
    3.7660    0.1251    7.7329 H   0  0  0  0  0  0  0  0  0  0  0  0
    2.4656    1.3143    7.1955 H   0  0  0  0  0  0  0  0  0  0  0  0
  1  2  1  0
  1 41  1  0
  1 42  1  0
  1 43  1  0
  2  3  2  0
  2  4  1  0
  4  5  1  0
  5 38  1  0
  5  6  1  0
  5 44  1  1
  6  7  1  0
  6 45  1  0
  6 46  1  0
  7  8  1  6
  7 12  1  0
  7 19  1  0
  8  9  1  0
  9 10  1  0
  9 11  2  0
 10 47  1  0
 10 48  1  0
 10 49  1  0
 12 18  1  0
 12 13  1  0
 12 50  1  6
 13 14  2  0
 13 51  1  0
 14 15  1  0
 14 16  1  0
 15 52  1  0
 15 53  1  0
 15 54  1  0
 16 17  2  0
 16 18  1  0
 19 20  1  0
 19 22  2  3
 20 21  1  0
 20 55  1  0
 20 56  1  0
 22 23  1  0
 22 57  1  0
 23 24  1  6
 23 25  1  0
 23 35  1  0
 24 58  1  0
 24 59  1  0
 24 60  1  0
 25 31  1  0
 25 26  1  0
 25 61  1  1
 26 27  1  0
 26 62  1  0
 26 63  1  0
 27 32  1  0
 27 28  1  0
 27 64  1  1
 29 28  1  1
 28 65  1  0
 28 66  1  0
 29 30  2  0
 29 31  1  0
 31 32  1  0
 31 67  1  1
 32 33  1  0
 32 34  1  0
 33 68  1  0
 33 69  1  0
 33 70  1  0
 34 71  1  0
 34 72  1  0
 34 73  1  0
 35 37  1  1
 35 36  1  0
 35 38  1  0
 36 37  1  0
 36 74  1  0
 36 75  1  0
 38 40  1  1
 38 39  1  0
 39 40  1  0
 39 76  1  0
 39 77  1  0
M  END
>  <i_m_ct_stereo_status>  (75) 
1

>  <s_m_source_file>  (75) 
/var/tmp/pbs.5075288.sched01/tmpeqwi9iw0/66la8jmv2o.sdf

>  <i_m_source_file_index>  (75) 
46

>  <i_lp_mmshare_version>  (75) 
48012

>  <i_f3d_flags>  (75) 
0

>  <s_epik_input>  (75) 
TzFbQ0gyXVtDQEBdMTJbQ0BdMyhbQ0gyXU8zKVtDQEhdKE9DKD1PKVtDSDNdKVtDSDJdW0NAQF0oT0MoPU8pW0NIM10pKFtDQEBIXTRbQ0hdPUMoW0NIM10pQyg9TylPNCkvQyhbQ0gyXUNsKT1bQ0hdXFtDQEBdMihbQ0gzXSlbQ0BIXShbQ0gyXVtDQEhdNTYpW0NAQEhdKFtTK10oW08tXSlbQ0gyXTUpQzYoW0NIM10pW0NIM10=

>  <s_epik_cmdline>  (75) 
J2VwaWtfcHl0aG9uJywgJy1waHQnLCAnMi4wJywgJy1waCcsICc3LjAnLCAnLXRuJywgJzgnLCAnLW1hJywgJzIwMCcsICctaW1hZScsICc8aW5maWxlLm1hZT4nLCAnLW9tYWUnLCAnPG91dGZpbGUubWFlPic=

>  <r_lp_tautomer_probability>  (75) 
1

>  <r_epik_Ionization_Penalty>  (75) 
5.97406e-13

>  <r_epik_Ionization_Penalty_Charging>  (75) 
0

>  <r_epik_Ionization_Penalty_Neutral>  (75) 
5.97406e-13

>  <r_epik_State_Penalty>  (75) 
-0

>  <r_epik_Charging_Adjusted_Penalty>  (75) 
0

>  <i_epik_Tot_Q>  (75) 
0

>  <i_epik_Tot_abs_Q>  (75) 
2

>  <s_epik_Chemistry_Notes>  (75) 
This compound has an ester and may undergo hydrolysis at high or low pH.

>  <s_lp_Force_Field>  (75) 
OPLS3e

>  <r_lp_Energy>  (75) 
77.6998

>  <b_lp_Chiralities_Consistent>  (75) 
1

>  <s_lp_Variant>  (75) 
55:0-1

>  <s_i_glide_gridfile>  (75) 
pfpi4k_grid

>  <i_i_glide_lignum>  (75) 
46

>  <i_i_glide_rotatable_bonds>  (75) 
7

>  <r_i_docking_score>  (75) 
-2.3725

>  <r_i_glide_ligand_efficiency>  (75) 
-0.0593125

>  <r_i_glide_ligand_efficiency_sa>  (75) 
-0.202846

>  <r_i_glide_ligand_efficiency_ln>  (75) 
-0.505984

>  <r_i_glide_gscore>  (75) 
-2.3725

>  <r_i_glide_lipo>  (75) 
-0.3923

>  <r_i_glide_hbond>  (75) 
0

>  <r_i_glide_metal>  (75) 
-0

>  <r_i_glide_rewards>  (75) 
-0.234697

>  <r_i_glide_evdw>  (75) 
-28.6401

>  <r_i_glide_ecoul>  (75) 
-2.56323

>  <r_i_glide_erotb>  (75) 
0.121108

>  <r_i_glide_esite>  (75) 
-0.0501238

>  <r_i_glide_emodel>  (75) 
-30.1435

>  <r_i_glide_energy>  (75) 
-31.2033

>  <r_i_glide_einternal>  (75) 
7.30611

>  <r_i_glide_intrahb_reward>  (75) 
-0

>  <i_i_glide_confnum>  (75) 
6

>  <i_i_glide_posenum>  (75) 
32

>  <r_i_glide_eff_state_penalty>  (75) 
0

>  <ligand_id>  (75) 
55

>  <original_smiles>  (75) 
CC(=O)OC1CC(OC(C)=O)(C2C=C(C)C(=O)O2)C(CCl)=CC(C)(C2CC3C[S+]([O-])C2C3(C)C)C2(CO2)C12CO2

>  <smiles>  (75) 
[H]C1=C(C([H])([H])[H])C(=O)OC1([H])C1(OC(=O)C([H])([H])[H])C(C([H])([H])Cl)=C([H])C(C([H])([H])[H])(C2([H])C([H])([H])C3([H])C([H])([H])S(=O)C2([H])C3(C([H])([H])[H])C([H])([H])[H])C2(OC2([H])[H])C2(OC2([H])[H])C([H])(OC(=O)C([H])([H])[H])C1([H])[H]

$$$$
55:0:2
     RDKit          3D

 77 82  0  0  1  0  0  0  0  0999 V2000
    7.7449    1.1891    5.2872 C   0  0  0  0  0  0  0  0  0  0  0  0
    6.8921    0.1521    6.0052 C   0  0  0  0  0  0  0  0  0  0  0  0
    7.2224   -0.3078    7.0952 O   0  0  0  0  0  0  0  0  0  0  0  0
    5.7794   -0.1255    5.3158 O   0  0  0  0  0  0  0  0  0  0  0  0
    4.7560   -0.9624    5.8571 C   0  0  2  0  0  0  0  0  0  0  0  0
    4.5700   -2.2011    4.9332 C   0  0  0  0  0  0  0  0  0  0  0  0
    3.4015   -2.2976    3.8681 C   0  0  1  0  0  0  0  0  0  0  0  0
    3.3606   -1.1762    2.9526 O   0  0  0  0  0  0  0  0  0  0  0  0
    4.3713   -0.6440    2.2178 C   0  0  0  0  0  0  0  0  0  0  0  0
    3.8200    0.1946    1.0647 C   0  0  0  0  0  0  0  0  0  0  0  0
    5.5884   -0.7726    2.4140 O   0  0  0  0  0  0  0  0  0  0  0  0
    3.6120   -3.5761    2.9386 C   0  0  2  0  0  0  0  0  0  0  0  0
    4.8291   -3.6864    2.0531 C   0  0  0  0  0  0  0  0  0  0  0  0
    4.4684   -3.8134    0.7774 C   0  0  0  0  0  0  0  0  0  0  0  0
    5.3013   -3.8983   -0.4784 C   0  0  0  0  0  0  0  0  0  0  0  0
    2.9999   -3.8044    0.7158 C   0  0  0  0  0  0  0  0  0  0  0  0
    2.3059   -3.9024   -0.2902 O   0  0  0  0  0  0  0  0  0  0  0  0
    2.5421   -3.6689    1.9942 O   0  0  0  0  0  0  0  0  0  0  0  0
    2.0207   -2.4125    4.6221 C   0  0  0  0  0  0  0  0  0  0  0  0
    1.5097   -3.8481    4.9237 C   0  0  0  0  0  0  0  0  0  0  0  0
    2.4037   -4.6567    6.2375 Cl  0  0  0  0  0  0  0  0  0  0  0  0
    1.1713   -1.4249    5.0272 C   0  0  0  0  0  0  0  0  0  0  0  0
    1.2467    0.1273    4.9524 C   0  0  1  0  0  0  0  0  0  0  0  0
    0.8042    0.5044    3.5009 C   0  0  0  0  0  0  0  0  0  0  0  0
    0.1955    0.7315    6.0225 C   0  0  2  0  0  0  0  0  0  0  0  0
   -1.3284    0.4135    5.8482 C   0  0  0  0  0  0  0  0  0  0  0  0
   -2.1041    1.7012    6.2670 C   0  0  2  0  0  0  0  0  0  0  0  0
   -2.2006    2.6275    5.0459 C   0  0  0  0  0  0  0  0  0  0  0  0
   -0.4294    3.1993    4.8501 S   0  0  0  0  0  0  0  0  0  0  0  0
   -0.4392    4.7063    5.1230 O   0  0  0  0  0  0  0  0  0  0  0  0
    0.0888    2.2744    6.3986 C   0  0  1  0  0  0  0  0  0  0  0  0
   -1.1815    2.3927    7.2836 C   0  0  0  0  0  0  0  0  0  0  0  0
   -1.5858    3.8398    7.6981 C   0  0  0  0  0  0  0  0  0  0  0  0
   -1.0932    1.6256    8.6241 C   0  0  0  0  0  0  0  0  0  0  0  0
    2.6822    0.6218    5.2734 C   0  0  1  0  0  0  0  0  0  0  0  0
    3.4420    1.5728    4.3059 C   0  0  0  0  0  0  0  0  0  0  0  0
    2.7290    2.0362    5.4312 O   0  0  0  0  0  0  0  0  0  0  0  0
    3.5547   -0.1228    6.3075 C   0  0  2  0  0  0  0  0  0  0  0  0
    3.6994    0.5445    7.6839 C   0  0  0  0  0  0  0  0  0  0  0  0
    2.8706   -0.6181    7.4973 O   0  0  0  0  0  0  0  0  0  0  0  0
    7.9270    0.8823    4.2527 H   0  0  0  0  0  0  0  0  0  0  0  0
    8.6911    1.3144    5.8083 H   0  0  0  0  0  0  0  0  0  0  0  0
    7.2189    2.1439    5.2941 H   0  0  0  0  0  0  0  0  0  0  0  0
    5.1469   -1.3946    6.7815 H   0  0  0  0  0  0  0  0  0  0  0  0
    5.5400   -2.4357    4.4893 H   0  0  0  0  0  0  0  0  0  0  0  0
    4.4145   -3.0033    5.6356 H   0  0  0  0  0  0  0  0  0  0  0  0
    2.7238    0.2073    1.0641 H   0  0  0  0  0  0  0  0  0  0  0  0
    4.1293   -0.2255    0.1108 H   0  0  0  0  0  0  0  0  0  0  0  0
    4.1568    1.2310    1.1079 H   0  0  0  0  0  0  0  0  0  0  0  0
    3.6294   -4.4511    3.5829 H   0  0  0  0  0  0  0  0  0  0  0  0
    5.8416   -3.7391    2.3779 H   0  0  0  0  0  0  0  0  0  0  0  0
    5.0089   -3.0715   -1.1345 H   0  0  0  0  0  0  0  0  0  0  0  0
    5.1442   -4.8305   -1.0369 H   0  0  0  0  0  0  0  0  0  0  0  0
    6.3636   -3.7806   -0.2668 H   0  0  0  0  0  0  0  0  0  0  0  0
    0.4703   -3.8139    5.2567 H   0  0  0  0  0  0  0  0  0  0  0  0
    1.4572   -4.5114    4.0442 H   0  0  0  0  0  0  0  0  0  0  0  0
    0.2983   -1.7527    5.5433 H   0  0  0  0  0  0  0  0  0  0  0  0
    0.8786    1.5735    3.2585 H   0  0  0  0  0  0  0  0  0  0  0  0
   -0.2022    0.1864    3.2444 H   0  0  0  0  0  0  0  0  0  0  0  0
    1.4117   -0.0088    2.7670 H   0  0  0  0  0  0  0  0  0  0  0  0
    0.5317    0.2437    6.9429 H   0  0  0  0  0  0  0  0  0  0  0  0
   -1.6058    0.1061    4.8466 H   0  0  0  0  0  0  0  0  0  0  0  0
   -1.6282   -0.4231    6.4727 H   0  0  0  0  0  0  0  0  0  0  0  0
   -3.0777    1.5273    6.7146 H   0  0  0  0  0  0  0  0  0  0  0  0
   -2.5756    2.1333    4.1479 H   0  0  0  0  0  0  0  0  0  0  0  0
   -2.8885    3.4709    5.2016 H   0  0  0  0  0  0  0  0  0  0  0  0
    0.9456    2.7049    6.9331 H   0  0  0  0  0  0  0  0  0  0  0  0
   -0.7924    4.2927    8.2864 H   0  0  0  0  0  0  0  0  0  0  0  0
   -2.4968    3.8438    8.2934 H   0  0  0  0  0  0  0  0  0  0  0  0
   -1.7998    4.5208    6.8924 H   0  0  0  0  0  0  0  0  0  0  0  0
   -0.2089    1.9437    9.1708 H   0  0  0  0  0  0  0  0  0  0  0  0
   -1.0485    0.5451    8.5142 H   0  0  0  0  0  0  0  0  0  0  0  0
   -1.9561    1.8538    9.2521 H   0  0  0  0  0  0  0  0  0  0  0  0
    4.4940    1.7194    4.4296 H   0  0  0  0  0  0  0  0  0  0  0  0
    2.9995    1.9447    3.3945 H   0  0  0  0  0  0  0  0  0  0  0  0
    4.6413    0.3598    8.1918 H   0  0  0  0  0  0  0  0  0  0  0  0
    3.1659    1.4473    7.9742 H   0  0  0  0  0  0  0  0  0  0  0  0
  1  2  1  0
  1 41  1  0
  1 42  1  0
  1 43  1  0
  2  3  2  0
  2  4  1  0
  4  5  1  0
  5 38  1  0
  5  6  1  0
  5 44  1  1
  6  7  1  0
  6 45  1  0
  6 46  1  0
  7  8  1  6
  7 12  1  0
  7 19  1  0
  8  9  1  0
  9 10  1  0
  9 11  2  0
 10 47  1  0
 10 48  1  0
 10 49  1  0
 12 18  1  0
 12 13  1  0
 12 50  1  1
 13 14  2  0
 13 51  1  0
 14 15  1  0
 14 16  1  0
 15 52  1  0
 15 53  1  0
 15 54  1  0
 16 17  2  0
 16 18  1  0
 19 20  1  0
 19 22  2  3
 20 21  1  0
 20 55  1  0
 20 56  1  0
 22 23  1  0
 22 57  1  0
 23 24  1  6
 23 25  1  0
 23 35  1  0
 24 58  1  0
 24 59  1  0
 24 60  1  0
 25 31  1  0
 25 26  1  0
 25 61  1  1
 26 27  1  0
 26 62  1  0
 26 63  1  0
 27 32  1  0
 27 28  1  0
 27 64  1  1
 29 28  1  1
 28 65  1  0
 28 66  1  0
 29 30  2  0
 29 31  1  0
 31 32  1  0
 31 67  1  1
 32 33  1  0
 32 34  1  0
 33 68  1  0
 33 69  1  0
 33 70  1  0
 34 71  1  0
 34 72  1  0
 34 73  1  0
 35 37  1  1
 35 36  1  0
 35 38  1  0
 36 37  1  0
 36 74  1  0
 36 75  1  0
 38 40  1  1
 38 39  1  0
 39 40  1  0
 39 76  1  0
 39 77  1  0
M  END
>  <i_m_ct_stereo_status>  (76) 
1

>  <s_m_source_file>  (76) 
/var/tmp/pbs.5075288.sched01/tmpeqwi9iw0/66la8jmv2o.sdf

>  <i_m_source_file_index>  (76) 
46

>  <i_lp_mmshare_version>  (76) 
48012

>  <i_f3d_flags>  (76) 
0

>  <s_epik_input>  (76) 
TzFbQ0gyXVtDQEBdMTJbQ0BdMyhbQ0gyXU8zKVtDQEhdKE9DKD1PKVtDSDNdKVtDSDJdW0NAQF0oT0MoPU8pW0NIM10pKFtDQEBIXTRbQ0hdPUMoW0NIM10pQyg9TylPNCkvQyhbQ0gyXUNsKT1bQ0hdXFtDQEBdMihbQ0gzXSlbQ0BIXShbQ0gyXVtDQEhdNTYpW0NAQEhdKFtTK10oW08tXSlbQ0gyXTUpQzYoW0NIM10pW0NIM10=

>  <s_epik_cmdline>  (76) 
J2VwaWtfcHl0aG9uJywgJy1waHQnLCAnMi4wJywgJy1waCcsICc3LjAnLCAnLXRuJywgJzgnLCAnLW1hJywgJzIwMCcsICctaW1hZScsICc8aW5maWxlLm1hZT4nLCAnLW9tYWUnLCAnPG91dGZpbGUubWFlPic=

>  <r_lp_tautomer_probability>  (76) 
1

>  <r_epik_Ionization_Penalty>  (76) 
5.97406e-13

>  <r_epik_Ionization_Penalty_Charging>  (76) 
0

>  <r_epik_Ionization_Penalty_Neutral>  (76) 
5.97406e-13

>  <r_epik_State_Penalty>  (76) 
-0

>  <r_epik_Charging_Adjusted_Penalty>  (76) 
0

>  <i_epik_Tot_Q>  (76) 
0

>  <i_epik_Tot_abs_Q>  (76) 
2

>  <s_epik_Chemistry_Notes>  (76) 
This compound has an ester and may undergo hydrolysis at high or low pH.

>  <s_lp_Force_Field>  (76) 
OPLS3e

>  <r_lp_Energy>  (76) 
77.6998

>  <b_lp_Chiralities_Consistent>  (76) 
1

>  <s_lp_Variant>  (76) 
55:0-1

>  <s_i_glide_gridfile>  (76) 
pfpi4k_grid

>  <i_i_glide_lignum>  (76) 
46

>  <i_i_glide_rotatable_bonds>  (76) 
7

>  <r_i_docking_score>  (76) 
-1.90352

>  <r_i_glide_ligand_efficiency>  (76) 
-0.0475879

>  <r_i_glide_ligand_efficiency_sa>  (76) 
-0.162748

>  <r_i_glide_ligand_efficiency_ln>  (76) 
-0.405964

>  <r_i_glide_gscore>  (76) 
-1.90352

>  <r_i_glide_lipo>  (76) 
-0.189843

>  <r_i_glide_hbond>  (76) 
0

>  <r_i_glide_metal>  (76) 
-0

>  <r_i_glide_rewards>  (76) 
-0.271066

>  <r_i_glide_evdw>  (76) 
-28.08

>  <r_i_glide_ecoul>  (76) 
-0.853998

>  <r_i_glide_erotb>  (76) 
0.121108

>  <r_i_glide_esite>  (76) 
-0.0316168

>  <r_i_glide_emodel>  (76) 
-28.9135

>  <r_i_glide_energy>  (76) 
-28.934

>  <r_i_glide_einternal>  (76) 
3.77641

>  <r_i_glide_intrahb_reward>  (76) 
-0

>  <i_i_glide_confnum>  (76) 
6

>  <i_i_glide_posenum>  (76) 
34

>  <r_i_glide_eff_state_penalty>  (76) 
0

>  <ligand_id>  (76) 
55

>  <original_smiles>  (76) 
CC(=O)OC1CC(OC(C)=O)(C2C=C(C)C(=O)O2)C(CCl)=CC(C)(C2CC3C[S+]([O-])C2C3(C)C)C2(CO2)C12CO2

>  <smiles>  (76) 
[H]C1=C(C([H])([H])[H])C(=O)OC1([H])C1(OC(=O)C([H])([H])[H])C(C([H])([H])Cl)=C([H])C(C([H])([H])[H])(C2([H])C([H])([H])C3([H])C([H])([H])S(=O)C2([H])C3(C([H])([H])[H])C([H])([H])[H])C2(OC2([H])[H])C2(OC2([H])[H])C([H])(OC(=O)C([H])([H])[H])C1([H])[H]

$$$$
55:1:0
     RDKit          3D

 77 82  0  0  1  0  0  0  0  0999 V2000
    3.2588    2.4585    7.0309 C   0  0  0  0  0  0  0  0  0  0  0  0
    2.1113    1.8963    6.2046 C   0  0  0  0  0  0  0  0  0  0  0  0
    0.9477    2.2603    6.3616 O   0  0  0  0  0  0  0  0  0  0  0  0
    2.5379    0.9758    5.3375 O   0  0  0  0  0  0  0  0  0  0  0  0
    1.6479    0.3394    4.4258 C   0  0  2  0  0  0  0  0  0  0  0  0
    0.7952   -0.8512    5.0262 C   0  0  0  0  0  0  0  0  0  0  0  0
    1.4384   -1.9402    5.9882 C   0  0  1  0  0  0  0  0  0  0  0  0
    1.3682   -1.2564    7.2722 O   0  0  0  0  0  0  0  0  0  0  0  0
    1.5987   -1.8089    8.4965 C   0  0  0  0  0  0  0  0  0  0  0  0
    1.4850   -0.8104    9.6366 C   0  0  0  0  0  0  0  0  0  0  0  0
    1.8563   -2.9853    8.7389 O   0  0  0  0  0  0  0  0  0  0  0  0
    0.5332   -3.2307    5.8793 C   0  0  2  0  0  0  0  0  0  0  0  0
   -0.8198   -3.1328    6.5329 C   0  0  0  0  0  0  0  0  0  0  0  0
   -0.9833   -4.1577    7.3668 C   0  0  0  0  0  0  0  0  0  0  0  0
   -2.1546   -4.5177    8.2451 C   0  0  0  0  0  0  0  0  0  0  0  0
    0.2041   -4.9989    7.3268 C   0  0  0  0  0  0  0  0  0  0  0  0
    0.3787   -6.0173    7.9846 O   0  0  0  0  0  0  0  0  0  0  0  0
    1.0680   -4.4225    6.4581 O   0  0  0  0  0  0  0  0  0  0  0  0
    2.8647   -2.1725    5.4536 C   0  0  0  0  0  0  0  0  0  0  0  0
    3.9967   -1.5118    6.2948 C   0  0  0  0  0  0  0  0  0  0  0  0
    4.6831   -2.5300    7.5875 Cl  0  0  0  0  0  0  0  0  0  0  0  0
    2.9426   -2.5718    4.1490 C   0  0  0  0  0  0  0  0  0  0  0  0
    4.0148   -2.1855    3.1135 C   0  0  1  0  0  0  0  0  0  0  0  0
    5.4118   -2.6902    3.5664 C   0  0  0  0  0  0  0  0  0  0  0  0
    3.6740   -2.8103    1.6886 C   0  0  2  0  0  0  0  0  0  0  0  0
    3.8179   -4.3584    1.5221 C   0  0  0  0  0  0  0  0  0  0  0  0
    4.5586   -4.5633    0.1750 C   0  0  2  0  0  0  0  0  0  0  0  0
    6.0598   -4.3133    0.3914 C   0  0  0  0  0  0  0  0  0  0  0  0
    6.2188   -2.4683    0.5357 S   0  0  0  0  0  0  0  0  0  0  0  0
    6.9110   -1.9617   -0.7164 O   0  0  0  0  0  0  0  0  0  0  0  0
    4.3696   -2.2946    0.3659 C   0  0  1  0  0  0  0  0  0  0  0  0
    4.0485   -3.3880   -0.6838 C   0  0  0  0  0  0  0  0  0  0  0  0
    4.7417   -3.2391   -2.0707 C   0  0  0  0  0  0  0  0  0  0  0  0
    2.5313   -3.4705   -1.0341 C   0  0  0  0  0  0  0  0  0  0  0  0
    3.8389   -0.6209    3.0507 C   0  0  1  0  0  0  0  0  0  0  0  0
    4.9812    0.2906    3.4602 C   0  0  0  0  0  0  0  0  0  0  0  0
    4.7041    0.0080    2.0980 O   0  0  0  0  0  0  0  0  0  0  0  0
    2.4123    0.0776    3.1008 C   0  0  2  0  0  0  0  0  0  0  0  0
    2.0794    1.0843    2.0051 C   0  0  0  0  0  0  0  0  0  0  0  0
    1.5251   -0.2426    2.0243 O   0  0  0  0  0  0  0  0  0  0  0  0
    3.9996    2.9331    6.3872 H   0  0  0  0  0  0  0  0  0  0  0  0
    3.7549    1.6696    7.5932 H   0  0  0  0  0  0  0  0  0  0  0  0
    2.8938    3.2011    7.7385 H   0  0  0  0  0  0  0  0  0  0  0  0
    0.8936    1.0807    4.1499 H   0  0  0  0  0  0  0  0  0  0  0  0
   -0.0504   -0.3869    5.5487 H   0  0  0  0  0  0  0  0  0  0  0  0
    0.3274   -1.3487    4.1687 H   0  0  0  0  0  0  0  0  0  0  0  0
    2.1838    0.0109    9.4697 H   0  0  0  0  0  0  0  0  0  0  0  0
    1.7496   -1.3096   10.5744 H   0  0  0  0  0  0  0  0  0  0  0  0
    0.4581   -0.4299    9.7258 H   0  0  0  0  0  0  0  0  0  0  0  0
    0.3414   -3.4524    4.8295 H   0  0  0  0  0  0  0  0  0  0  0  0
   -1.5362   -2.3524    6.3117 H   0  0  0  0  0  0  0  0  0  0  0  0
   -1.8583   -4.6230    9.2954 H   0  0  0  0  0  0  0  0  0  0  0  0
   -2.6032   -5.4478    7.8947 H   0  0  0  0  0  0  0  0  0  0  0  0
   -2.8783   -3.7120    8.1780 H   0  0  0  0  0  0  0  0  0  0  0  0
    4.8406   -1.1883    5.7121 H   0  0  0  0  0  0  0  0  0  0  0  0
    3.6980   -0.5652    6.7419 H   0  0  0  0  0  0  0  0  0  0  0  0
    2.0320   -2.9399    3.6560 H   0  0  0  0  0  0  0  0  0  0  0  0
    6.2216   -2.4209    2.9118 H   0  0  0  0  0  0  0  0  0  0  0  0
    5.4169   -3.7578    3.7633 H   0  0  0  0  0  0  0  0  0  0  0  0
    5.7248   -2.3013    4.5137 H   0  0  0  0  0  0  0  0  0  0  0  0
    2.6123   -2.6024    1.5211 H   0  0  0  0  0  0  0  0  0  0  0  0
    4.3209   -4.8578    2.3427 H   0  0  0  0  0  0  0  0  0  0  0  0
    2.8330   -4.8347    1.5079 H   0  0  0  0  0  0  0  0  0  0  0  0
    4.3432   -5.5505   -0.2523 H   0  0  0  0  0  0  0  0  0  0  0  0
    6.4281   -4.8220    1.2608 H   0  0  0  0  0  0  0  0  0  0  0  0
    6.6467   -4.6925   -0.4284 H   0  0  0  0  0  0  0  0  0  0  0  0
    4.0420   -1.3132    0.0218 H   0  0  0  0  0  0  0  0  0  0  0  0
    4.5276   -2.2512   -2.4796 H   0  0  0  0  0  0  0  0  0  0  0  0
    4.4016   -3.9996   -2.7855 H   0  0  0  0  0  0  0  0  0  0  0  0
    5.8187   -3.3568   -2.0630 H   0  0  0  0  0  0  0  0  0  0  0  0
    2.2074   -2.5286   -1.4722 H   0  0  0  0  0  0  0  0  0  0  0  0
    1.8749   -3.6735   -0.1870 H   0  0  0  0  0  0  0  0  0  0  0  0
    2.3122   -4.2571   -1.7657 H   0  0  0  0  0  0  0  0  0  0  0  0
    4.7296    1.3204    3.7406 H   0  0  0  0  0  0  0  0  0  0  0  0
    5.9470   -0.0978    3.7590 H   0  0  0  0  0  0  0  0  0  0  0  0
    1.3900    1.8983    2.2343 H   0  0  0  0  0  0  0  0  0  0  0  0
    2.8161    1.2871    1.2328 H   0  0  0  0  0  0  0  0  0  0  0  0
  1  2  1  0
  1 41  1  0
  1 42  1  0
  1 43  1  0
  2  3  2  0
  2  4  1  0
  4  5  1  0
  5 38  1  0
  5  6  1  0
  5 44  1  6
  6  7  1  0
  6 45  1  0
  6 46  1  0
  7  8  1  1
  7 12  1  0
  7 19  1  0
  8  9  1  0
  9 10  1  0
  9 11  2  0
 10 47  1  0
 10 48  1  0
 10 49  1  0
 12 18  1  0
 12 13  1  0
 12 50  1  6
 13 14  2  0
 13 51  1  0
 14 15  1  0
 14 16  1  0
 15 52  1  0
 15 53  1  0
 15 54  1  0
 16 17  2  0
 16 18  1  0
 19 20  1  0
 19 22  2  3
 20 21  1  0
 20 55  1  0
 20 56  1  0
 22 23  1  0
 22 57  1  0
 23 24  1  1
 23 25  1  0
 23 35  1  0
 24 58  1  0
 24 59  1  0
 24 60  1  0
 25 31  1  0
 25 26  1  0
 25 61  1  6
 26 27  1  0
 26 62  1  0
 26 63  1  0
 27 32  1  0
 27 28  1  0
 27 64  1  6
 29 28  1  6
 28 65  1  0
 28 66  1  0
 29 30  2  0
 29 31  1  0
 31 32  1  0
 31 67  1  6
 32 33  1  0
 32 34  1  0
 33 68  1  0
 33 69  1  0
 33 70  1  0
 34 71  1  0
 34 72  1  0
 34 73  1  0
 35 37  1  6
 35 36  1  0
 35 38  1  0
 36 37  1  0
 36 74  1  0
 36 75  1  0
 38 40  1  6
 38 39  1  0
 39 40  1  0
 39 76  1  0
 39 77  1  0
M  END
>  <i_m_ct_stereo_status>  (77) 
1

>  <s_m_source_file>  (77) 
/var/tmp/pbs.5075288.sched01/tmpeqwi9iw0/66la8jmv2o.sdf

>  <i_m_source_file_index>  (77) 
47

>  <i_lp_mmshare_version>  (77) 
48012

>  <i_f3d_flags>  (77) 
0

>  <s_epik_input>  (77) 
TzFbQ0gyXVtDQEBdMTJbQ0BdMyhbQ0gyXU8zKVtDQEhdKE9DKD1PKVtDSDNdKVtDSDJdW0NAQF0oT0MoPU8pW0NIM10pKFtDQEBIXTRbQ0hdPUMoW0NIM10pQyg9TylPNCkvQyhbQ0gyXUNsKT1bQ0hdXFtDQEBdMihbQ0gzXSlbQ0BIXShbQ0gyXVtDQEhdNTYpW0NAQEhdKFtTK10oW08tXSlbQ0gyXTUpQzYoW0NIM10pW0NIM10=

>  <s_epik_cmdline>  (77) 
J2VwaWtfcHl0aG9uJywgJy1waHQnLCAnMi4wJywgJy1waCcsICc3LjAnLCAnLXRuJywgJzgnLCAnLW1hJywgJzIwMCcsICctaW1hZScsICc8aW5maWxlLm1hZT4nLCAnLW9tYWUnLCAnPG91dGZpbGUubWFlPic=

>  <r_lp_tautomer_probability>  (77) 
1

>  <r_epik_Ionization_Penalty>  (77) 
5.97406e-13

>  <r_epik_Ionization_Penalty_Charging>  (77) 
0

>  <r_epik_Ionization_Penalty_Neutral>  (77) 
5.97406e-13

>  <r_epik_State_Penalty>  (77) 
-0

>  <r_epik_Charging_Adjusted_Penalty>  (77) 
0

>  <i_epik_Tot_Q>  (77) 
0

>  <i_epik_Tot_abs_Q>  (77) 
2

>  <s_epik_Chemistry_Notes>  (77) 
This compound has an ester and may undergo hydrolysis at high or low pH.

>  <s_lp_Force_Field>  (77) 
OPLS3e

>  <r_lp_Energy>  (77) 
72.8623

>  <b_lp_Chiralities_Consistent>  (77) 
1

>  <s_lp_Variant>  (77) 
55:0-2

>  <s_i_glide_gridfile>  (77) 
pfpi4k_grid

>  <i_i_glide_lignum>  (77) 
47

>  <i_i_glide_rotatable_bonds>  (77) 
7

>  <r_i_docking_score>  (77) 
-2.2692

>  <r_i_glide_ligand_efficiency>  (77) 
-0.0567301

>  <r_i_glide_ligand_efficiency_sa>  (77) 
-0.194014

>  <r_i_glide_ligand_efficiency_ln>  (77) 
-0.483954

>  <r_i_glide_gscore>  (77) 
-2.2692

>  <r_i_glide_lipo>  (77) 
-0.330625

>  <r_i_glide_hbond>  (77) 
-0.247295

>  <r_i_glide_metal>  (77) 
-0

>  <r_i_glide_rewards>  (77) 
-0.102175

>  <r_i_glide_evdw>  (77) 
-24.3152

>  <r_i_glide_ecoul>  (77) 
-3.98314

>  <r_i_glide_erotb>  (77) 
0.121108

>  <r_i_glide_esite>  (77) 
-0.00857598

>  <r_i_glide_emodel>  (77) 
-27.6915

>  <r_i_glide_energy>  (77) 
-28.2984

>  <r_i_glide_einternal>  (77) 
1.34808

>  <r_i_glide_intrahb_reward>  (77) 
-0

>  <i_i_glide_confnum>  (77) 
1

>  <i_i_glide_posenum>  (77) 
8

>  <r_i_glide_eff_state_penalty>  (77) 
0

>  <ligand_id>  (77) 
55

>  <original_smiles>  (77) 
CC(=O)OC1CC(OC(C)=O)(C2C=C(C)C(=O)O2)C(CCl)=CC(C)(C2CC3C[S+]([O-])C2C3(C)C)C2(CO2)C12CO2

>  <smiles>  (77) 
[H]C1=C(C([H])([H])[H])C(=O)OC1([H])C1(OC(=O)C([H])([H])[H])C(C([H])([H])Cl)=C([H])C(C([H])([H])[H])(C2([H])C([H])([H])C3([H])C([H])([H])S(=O)C2([H])C3(C([H])([H])[H])C([H])([H])[H])C2(OC2([H])[H])C2(OC2([H])[H])C([H])(OC(=O)C([H])([H])[H])C1([H])[H]

$$$$
55:1:1
     RDKit          3D

 77 82  0  0  1  0  0  0  0  0999 V2000
    6.7125   -2.3605    6.6445 C   0  0  0  0  0  0  0  0  0  0  0  0
    5.7164   -2.7911    7.6906 C   0  0  0  0  0  0  0  0  0  0  0  0
    6.0176   -2.8031    8.9021 O   0  0  0  0  0  0  0  0  0  0  0  0
    4.4922   -3.1633    7.2322 O   0  0  0  0  0  0  0  0  0  0  0  0
    4.1628   -3.2268    5.8415 C   0  0  2  0  0  0  0  0  0  0  0  0
    2.9994   -2.2409    5.4488 C   0  0  0  0  0  0  0  0  0  0  0  0
    1.6832   -2.1055    6.3140 C   0  0  1  0  0  0  0  0  0  0  0  0
    2.0847   -1.1525    7.3229 O   0  0  0  0  0  0  0  0  0  0  0  0
    1.2895   -0.5750    8.2532 C   0  0  0  0  0  0  0  0  0  0  0  0
    2.0158    0.4200    9.1433 C   0  0  0  0  0  0  0  0  0  0  0  0
    0.0790   -0.7981    8.4078 O   0  0  0  0  0  0  0  0  0  0  0  0
    0.5917   -1.5496    5.3189 C   0  0  2  0  0  0  0  0  0  0  0  0
    0.8257   -0.1517    4.7814 C   0  0  0  0  0  0  0  0  0  0  0  0
   -0.2541    0.5965    4.9885 C   0  0  0  0  0  0  0  0  0  0  0  0
   -0.5392    2.0406    4.6155 C   0  0  0  0  0  0  0  0  0  0  0  0
   -1.2551   -0.2432    5.6861 C   0  0  0  0  0  0  0  0  0  0  0  0
   -2.3482    0.0839    6.0815 O   0  0  0  0  0  0  0  0  0  0  0  0
   -0.7120   -1.4579    5.8473 O   0  0  0  0  0  0  0  0  0  0  0  0
    1.3773   -3.5319    6.8352 C   0  0  0  0  0  0  0  0  0  0  0  0
    1.7231   -3.7984    8.3118 C   0  0  0  0  0  0  0  0  0  0  0  0
    0.3276   -3.4910    9.3964 Cl  0  0  0  0  0  0  0  0  0  0  0  0
    1.2373   -4.4886    5.8934 C   0  0  0  0  0  0  0  0  0  0  0  0
    1.7111   -5.9518    5.9495 C   0  0  1  0  0  0  0  0  0  0  0  0
    0.9520   -6.7131    7.0978 C   0  0  0  0  0  0  0  0  0  0  0  0
    1.4077   -6.6773    4.5608 C   0  0  2  0  0  0  0  0  0  0  0  0
   -0.0516   -7.1274    4.2442 C   0  0  0  0  0  0  0  0  0  0  0  0
    0.0777   -8.5696    3.6905 C   0  0  2  0  0  0  0  0  0  0  0  0
    0.2571   -9.5522    4.8724 C   0  0  0  0  0  0  0  0  0  0  0  0
    1.9935   -9.2517    5.4419 S   0  0  0  0  0  0  0  0  0  0  0  0
    2.8730  -10.4720    5.1253 O   0  0  0  0  0  0  0  0  0  0  0  0
    2.2185   -7.9563    4.1316 C   0  0  1  0  0  0  0  0  0  0  0  0
    1.4177   -8.5444    2.9390 C   0  0  0  0  0  0  0  0  0  0  0  0
    1.9020   -9.9297    2.4125 C   0  0  0  0  0  0  0  0  0  0  0  0
    1.4185   -7.6185    1.6919 C   0  0  0  0  0  0  0  0  0  0  0  0
    3.2617   -5.8036    6.1427 C   0  0  1  0  0  0  0  0  0  0  0  0
    3.9287   -6.3366    7.4054 C   0  0  0  0  0  0  0  0  0  0  0  0
    3.9564   -7.0739    6.1983 O   0  0  0  0  0  0  0  0  0  0  0  0
    4.0921   -4.7089    5.3654 C   0  0  2  0  0  0  0  0  0  0  0  0
    5.3500   -5.1588    4.6266 C   0  0  0  0  0  0  0  0  0  0  0  0
    4.1393   -4.8591    3.9379 O   0  0  0  0  0  0  0  0  0  0  0  0
    6.3181   -1.5149    6.0753 H   0  0  0  0  0  0  0  0  0  0  0  0
    6.9369   -3.1885    5.9631 H   0  0  0  0  0  0  0  0  0  0  0  0
    7.6522   -2.0421    7.0958 H   0  0  0  0  0  0  0  0  0  0  0  0
    5.0152   -2.8066    5.2805 H   0  0  0  0  0  0  0  0  0  0  0  0
    3.4690   -1.2572    5.3829 H   0  0  0  0  0  0  0  0  0  0  0  0
    2.7430   -2.4882    4.4166 H   0  0  0  0  0  0  0  0  0  0  0  0
    2.8821   -0.0557    9.6153 H   0  0  0  0  0  0  0  0  0  0  0  0
    1.3556    0.7721    9.9365 H   0  0  0  0  0  0  0  0  0  0  0  0
    2.3550    1.2888    8.5751 H   0  0  0  0  0  0  0  0  0  0  0  0
    0.5198   -2.2045    4.4488 H   0  0  0  0  0  0  0  0  0  0  0  0
    1.7294    0.1525    4.2664 H   0  0  0  0  0  0  0  0  0  0  0  0
   -0.8151    2.6084    5.5024 H   0  0  0  0  0  0  0  0  0  0  0  0
   -1.3655    2.0893    3.9029 H   0  0  0  0  0  0  0  0  0  0  0  0
    0.3300    2.5129    4.1611 H   0  0  0  0  0  0  0  0  0  0  0  0
    2.0927   -4.7889    8.4809 H   0  0  0  0  0  0  0  0  0  0  0  0
    2.5312   -3.1722    8.6841 H   0  0  0  0  0  0  0  0  0  0  0  0
    1.1119   -4.1587    4.8701 H   0  0  0  0  0  0  0  0  0  0  0  0
    1.1461   -7.7785    7.1103 H   0  0  0  0  0  0  0  0  0  0  0  0
   -0.1240   -6.5746    7.0065 H   0  0  0  0  0  0  0  0  0  0  0  0
    1.1694   -6.3957    8.1045 H   0  0  0  0  0  0  0  0  0  0  0  0
    1.6793   -5.9573    3.7902 H   0  0  0  0  0  0  0  0  0  0  0  0
   -0.7373   -7.0946    5.0834 H   0  0  0  0  0  0  0  0  0  0  0  0
   -0.4968   -6.4699    3.4996 H   0  0  0  0  0  0  0  0  0  0  0  0
   -0.7799   -8.8481    3.0737 H   0  0  0  0  0  0  0  0  0  0  0  0
   -0.4444   -9.3671    5.6820 H   0  0  0  0  0  0  0  0  0  0  0  0
    0.1137  -10.5916    4.5803 H   0  0  0  0  0  0  0  0  0  0  0  0
    3.2621   -7.7823    3.8813 H   0  0  0  0  0  0  0  0  0  0  0  0
    2.9560   -9.8829    2.1276 H   0  0  0  0  0  0  0  0  0  0  0  0
    1.3235  -10.2439    1.5476 H   0  0  0  0  0  0  0  0  0  0  0  0
    1.7970  -10.7541    3.1155 H   0  0  0  0  0  0  0  0  0  0  0  0
    2.4340   -7.4821    1.3159 H   0  0  0  0  0  0  0  0  0  0  0  0
    1.0020   -6.6280    1.8433 H   0  0  0  0  0  0  0  0  0  0  0  0
    0.8320   -8.0574    0.8773 H   0  0  0  0  0  0  0  0  0  0  0  0
    4.8891   -5.9259    7.6995 H   0  0  0  0  0  0  0  0  0  0  0  0
    3.3301   -6.8269    8.1733 H   0  0  0  0  0  0  0  0  0  0  0  0
    6.1884   -4.4581    4.4907 H   0  0  0  0  0  0  0  0  0  0  0  0
    5.6087   -6.2136    4.6234 H   0  0  0  0  0  0  0  0  0  0  0  0
  1  2  1  0
  1 41  1  0
  1 42  1  0
  1 43  1  0
  2  3  2  0
  2  4  1  0
  4  5  1  0
  5 38  1  0
  5  6  1  0
  5 44  1  6
  6  7  1  0
  6 45  1  0
  6 46  1  0
  7  8  1  1
  7 12  1  0
  7 19  1  0
  8  9  1  0
  9 10  1  0
  9 11  2  0
 10 47  1  0
 10 48  1  0
 10 49  1  0
 12 18  1  0
 12 13  1  0
 12 50  1  6
 13 14  2  0
 13 51  1  0
 14 15  1  0
 14 16  1  0
 15 52  1  0
 15 53  1  0
 15 54  1  0
 16 17  2  0
 16 18  1  0
 19 20  1  0
 19 22  2  3
 20 21  1  0
 20 55  1  0
 20 56  1  0
 22 23  1  0
 22 57  1  0
 23 24  1  1
 23 25  1  0
 23 35  1  0
 24 58  1  0
 24 59  1  0
 24 60  1  0
 25 31  1  0
 25 26  1  0
 25 61  1  6
 26 27  1  0
 26 62  1  0
 26 63  1  0
 27 32  1  0
 27 28  1  0
 27 64  1  6
 29 28  1  6
 28 65  1  0
 28 66  1  0
 29 30  2  0
 29 31  1  0
 31 32  1  0
 31 67  1  6
 32 33  1  0
 32 34  1  0
 33 68  1  0
 33 69  1  0
 33 70  1  0
 34 71  1  0
 34 72  1  0
 34 73  1  0
 35 37  1  6
 35 36  1  0
 35 38  1  0
 36 37  1  0
 36 74  1  0
 36 75  1  0
 38 40  1  6
 38 39  1  0
 39 40  1  0
 39 76  1  0
 39 77  1  0
M  END
>  <i_m_ct_stereo_status>  (78) 
1

>  <s_m_source_file>  (78) 
/var/tmp/pbs.5075288.sched01/tmpeqwi9iw0/66la8jmv2o.sdf

>  <i_m_source_file_index>  (78) 
47

>  <i_lp_mmshare_version>  (78) 
48012

>  <i_f3d_flags>  (78) 
0

>  <s_epik_input>  (78) 
TzFbQ0gyXVtDQEBdMTJbQ0BdMyhbQ0gyXU8zKVtDQEhdKE9DKD1PKVtDSDNdKVtDSDJdW0NAQF0oT0MoPU8pW0NIM10pKFtDQEBIXTRbQ0hdPUMoW0NIM10pQyg9TylPNCkvQyhbQ0gyXUNsKT1bQ0hdXFtDQEBdMihbQ0gzXSlbQ0BIXShbQ0gyXVtDQEhdNTYpW0NAQEhdKFtTK10oW08tXSlbQ0gyXTUpQzYoW0NIM10pW0NIM10=

>  <s_epik_cmdline>  (78) 
J2VwaWtfcHl0aG9uJywgJy1waHQnLCAnMi4wJywgJy1waCcsICc3LjAnLCAnLXRuJywgJzgnLCAnLW1hJywgJzIwMCcsICctaW1hZScsICc8aW5maWxlLm1hZT4nLCAnLW9tYWUnLCAnPG91dGZpbGUubWFlPic=

>  <r_lp_tautomer_probability>  (78) 
1

>  <r_epik_Ionization_Penalty>  (78) 
5.97406e-13

>  <r_epik_Ionization_Penalty_Charging>  (78) 
0

>  <r_epik_Ionization_Penalty_Neutral>  (78) 
5.97406e-13

>  <r_epik_State_Penalty>  (78) 
-0

>  <r_epik_Charging_Adjusted_Penalty>  (78) 
0

>  <i_epik_Tot_Q>  (78) 
0

>  <i_epik_Tot_abs_Q>  (78) 
2

>  <s_epik_Chemistry_Notes>  (78) 
This compound has an ester and may undergo hydrolysis at high or low pH.

>  <s_lp_Force_Field>  (78) 
OPLS3e

>  <r_lp_Energy>  (78) 
72.8623

>  <b_lp_Chiralities_Consistent>  (78) 
1

>  <s_lp_Variant>  (78) 
55:0-2

>  <s_i_glide_gridfile>  (78) 
pfpi4k_grid

>  <i_i_glide_lignum>  (78) 
47

>  <i_i_glide_rotatable_bonds>  (78) 
7

>  <r_i_docking_score>  (78) 
-2.08633

>  <r_i_glide_ligand_efficiency>  (78) 
-0.0521582

>  <r_i_glide_ligand_efficiency_sa>  (78) 
-0.178379

>  <r_i_glide_ligand_efficiency_ln>  (78) 
-0.444953

>  <r_i_glide_gscore>  (78) 
-2.08633

>  <r_i_glide_lipo>  (78) 
-0.115522

>  <r_i_glide_hbond>  (78) 
-0.191402

>  <r_i_glide_metal>  (78) 
-0

>  <r_i_glide_rewards>  (78) 
0

>  <r_i_glide_evdw>  (78) 
-20.4368

>  <r_i_glide_ecoul>  (78) 
-5.24434

>  <r_i_glide_erotb>  (78) 
0.121108

>  <r_i_glide_esite>  (78) 
-0.0920203

>  <r_i_glide_emodel>  (78) 
-23.1358

>  <r_i_glide_energy>  (78) 
-25.6812

>  <r_i_glide_einternal>  (78) 
7.27902

>  <r_i_glide_intrahb_reward>  (78) 
-0

>  <i_i_glide_confnum>  (78) 
1

>  <i_i_glide_posenum>  (78) 
2

>  <r_i_glide_eff_state_penalty>  (78) 
0

>  <ligand_id>  (78) 
55

>  <original_smiles>  (78) 
CC(=O)OC1CC(OC(C)=O)(C2C=C(C)C(=O)O2)C(CCl)=CC(C)(C2CC3C[S+]([O-])C2C3(C)C)C2(CO2)C12CO2

>  <smiles>  (78) 
[H]C1=C(C([H])([H])[H])C(=O)OC1([H])C1(OC(=O)C([H])([H])[H])C(C([H])([H])Cl)=C([H])C(C([H])([H])[H])(C2([H])C([H])([H])C3([H])C([H])([H])S(=O)C2([H])C3(C([H])([H])[H])C([H])([H])[H])C2(OC2([H])[H])C2(OC2([H])[H])C([H])(OC(=O)C([H])([H])[H])C1([H])[H]

$$$$
55:1:2
     RDKit          3D

 77 82  0  0  1  0  0  0  0  0999 V2000
    1.9631   -0.4521    8.0508 C   0  0  0  0  0  0  0  0  0  0  0  0
    1.0265   -0.8938    6.9384 C   0  0  0  0  0  0  0  0  0  0  0  0
   -0.1937   -0.9635    7.0966 O   0  0  0  0  0  0  0  0  0  0  0  0
    1.6986   -1.2042    5.8243 O   0  0  0  0  0  0  0  0  0  0  0  0
    1.0352   -1.6277    4.6398 C   0  0  2  0  0  0  0  0  0  0  0  0
    0.4500   -3.0964    4.6742 C   0  0  0  0  0  0  0  0  0  0  0  0
    1.2608   -4.3215    5.2701 C   0  0  1  0  0  0  0  0  0  0  0  0
    0.9988   -4.1871    6.6907 O   0  0  0  0  0  0  0  0  0  0  0  0
    1.3156   -5.0968    7.6606 C   0  0  0  0  0  0  0  0  0  0  0  0
    0.8239   -4.6802    9.0397 C   0  0  0  0  0  0  0  0  0  0  0  0
    1.9108   -6.1595    7.5058 O   0  0  0  0  0  0  0  0  0  0  0  0
    0.6574   -5.6296    4.5873 C   0  0  2  0  0  0  0  0  0  0  0  0
   -0.0546   -6.6271    5.4659 C   0  0  0  0  0  0  0  0  0  0  0  0
    0.4685   -7.8434    5.3089 C   0  0  0  0  0  0  0  0  0  0  0  0
    0.1772   -9.1405    6.0364 C   0  0  0  0  0  0  0  0  0  0  0  0
    1.5486   -7.7439    4.3285 C   0  0  0  0  0  0  0  0  0  0  0  0
    2.2685   -8.6530    3.9239 O   0  0  0  0  0  0  0  0  0  0  0  0
    1.6453   -6.4518    3.9645 O   0  0  0  0  0  0  0  0  0  0  0  0
    2.7329   -4.0508    4.8868 C   0  0  0  0  0  0  0  0  0  0  0  0
    3.6619   -3.5313    6.0264 C   0  0  0  0  0  0  0  0  0  0  0  0
    4.4559   -4.8067    6.9991 Cl  0  0  0  0  0  0  0  0  0  0  0  0
    2.9572   -3.8969    3.5445 C   0  0  0  0  0  0  0  0  0  0  0  0
    3.9754   -2.9677    2.8705 C   0  0  1  0  0  0  0  0  0  0  0  0
    5.4418   -3.3065    3.3333 C   0  0  0  0  0  0  0  0  0  0  0  0
    3.8793   -3.0916    1.2723 C   0  0  2  0  0  0  0  0  0  0  0  0
    4.2181   -4.4706    0.6167 C   0  0  0  0  0  0  0  0  0  0  0  0
    5.1265   -4.1410   -0.6141 C   0  0  2  0  0  0  0  0  0  0  0  0
    6.5763   -3.8952   -0.1240 C   0  0  0  0  0  0  0  0  0  0  0  0
    6.4802   -2.2854    0.7474 S   0  0  0  0  0  0  0  0  0  0  0  0
    7.3187   -1.2664    0.0712 O   0  0  0  0  0  0  0  0  0  0  0  0
    4.6718   -2.1045    0.3321 C   0  0  1  0  0  0  0  0  0  0  0  0
    4.5906   -2.7632   -1.0739 C   0  0  0  0  0  0  0  0  0  0  0  0
    5.4347   -2.0780   -2.1872 C   0  0  0  0  0  0  0  0  0  0  0  0
    3.1391   -2.8028   -1.6482 C   0  0  0  0  0  0  0  0  0  0  0  0
    3.4458   -1.5496    3.2973 C   0  0  1  0  0  0  0  0  0  0  0  0
    4.3285   -0.6479    4.1398 C   0  0  0  0  0  0  0  0  0  0  0  0
    4.2039   -0.4676    2.7342 O   0  0  0  0  0  0  0  0  0  0  0  0
    1.9031   -1.2114    3.4129 C   0  0  2  0  0  0  0  0  0  0  0  0
    1.4075    0.0574    2.7223 C   0  0  0  0  0  0  0  0  0  0  0  0
    1.1769   -1.2475    2.1751 O   0  0  0  0  0  0  0  0  0  0  0  0
    2.5301    0.4277    7.7492 H   0  0  0  0  0  0  0  0  0  0  0  0
    2.6729   -1.2389    8.2990 H   0  0  0  0  0  0  0  0  0  0  0  0
    1.4065   -0.2072    8.9520 H   0  0  0  0  0  0  0  0  0  0  0  0
    0.1401   -1.0040    4.5536 H   0  0  0  0  0  0  0  0  0  0  0  0
   -0.5136   -3.0534    5.1890 H   0  0  0  0  0  0  0  0  0  0  0  0
    0.1911   -3.3050    3.6352 H   0  0  0  0  0  0  0  0  0  0  0  0
    1.2220   -3.6964    9.2921 H   0  0  0  0  0  0  0  0  0  0  0  0
    1.1666   -5.4063    9.7826 H   0  0  0  0  0  0  0  0  0  0  0  0
   -0.2698   -4.6572    9.0557 H   0  0  0  0  0  0  0  0  0  0  0  0
   -0.0687   -5.3542    3.8157 H   0  0  0  0  0  0  0  0  0  0  0  0
   -0.8578   -6.3523    6.1354 H   0  0  0  0  0  0  0  0  0  0  0  0
    1.0920   -9.5566    6.4667 H   0  0  0  0  0  0  0  0  0  0  0  0
   -0.1916   -9.8613    5.3144 H   0  0  0  0  0  0  0  0  0  0  0  0
   -0.5559   -9.0134    6.8372 H   0  0  0  0  0  0  0  0  0  0  0  0
    4.4586   -2.9071    5.6719 H   0  0  0  0  0  0  0  0  0  0  0  0
    3.1512   -2.8515    6.7118 H   0  0  0  0  0  0  0  0  0  0  0  0
    2.1849   -4.2355    2.8360 H   0  0  0  0  0  0  0  0  0  0  0  0
    6.1211   -2.5814    2.9713 H   0  0  0  0  0  0  0  0  0  0  0  0
    5.7047   -4.3394    3.0597 H   0  0  0  0  0  0  0  0  0  0  0  0
    5.6967   -3.2049    4.3709 H   0  0  0  0  0  0  0  0  0  0  0  0
    2.8253   -2.9146    1.0365 H   0  0  0  0  0  0  0  0  0  0  0  0
    4.6762   -5.1842    1.2985 H   0  0  0  0  0  0  0  0  0  0  0  0
    3.2986   -4.9678    0.2884 H   0  0  0  0  0  0  0  0  0  0  0  0
    5.0454   -4.9244   -1.3845 H   0  0  0  0  0  0  0  0  0  0  0  0
    6.8775   -4.6651    0.5644 H   0  0  0  0  0  0  0  0  0  0  0  0
    7.3035   -3.8830   -0.9373 H   0  0  0  0  0  0  0  0  0  0  0  0
    4.3162   -1.0636    0.3283 H   0  0  0  0  0  0  0  0  0  0  0  0
    5.1658   -1.0221   -2.2663 H   0  0  0  0  0  0  0  0  0  0  0  0
    5.2720   -2.5509   -3.1623 H   0  0  0  0  0  0  0  0  0  0  0  0
    6.5095   -2.1174   -2.0322 H   0  0  0  0  0  0  0  0  0  0  0  0
    2.7513   -1.7860   -1.7611 H   0  0  0  0  0  0  0  0  0  0  0  0
    2.4177   -3.3467   -1.0355 H   0  0  0  0  0  0  0  0  0  0  0  0
    3.1160   -3.2782   -2.6350 H   0  0  0  0  0  0  0  0  0  0  0  0
    3.8567    0.1523    4.7193 H   0  0  0  0  0  0  0  0  0  0  0  0
    5.3283   -0.9593    4.4322 H   0  0  0  0  0  0  0  0  0  0  0  0
    0.5410    0.5663    3.1369 H   0  0  0  0  0  0  0  0  0  0  0  0
    2.1073    0.6855    2.1742 H   0  0  0  0  0  0  0  0  0  0  0  0
  1  2  1  0
  1 41  1  0
  1 42  1  0
  1 43  1  0
  2  3  2  0
  2  4  1  0
  4  5  1  0
  5 38  1  0
  5  6  1  0
  5 44  1  6
  6  7  1  0
  6 45  1  0
  6 46  1  0
  7  8  1  1
  7 12  1  0
  7 19  1  0
  8  9  1  0
  9 10  1  0
  9 11  2  0
 10 47  1  0
 10 48  1  0
 10 49  1  0
 12 18  1  0
 12 13  1  0
 12 50  1  6
 13 14  2  0
 13 51  1  0
 14 15  1  0
 14 16  1  0
 15 52  1  0
 15 53  1  0
 15 54  1  0
 16 17  2  0
 16 18  1  0
 19 20  1  0
 19 22  2  3
 20 21  1  0
 20 55  1  0
 20 56  1  0
 22 23  1  0
 22 57  1  0
 23 24  1  1
 23 25  1  0
 23 35  1  0
 24 58  1  0
 24 59  1  0
 24 60  1  0
 25 31  1  0
 25 26  1  0
 25 61  1  6
 26 27  1  0
 26 62  1  0
 26 63  1  0
 27 32  1  0
 27 28  1  0
 27 64  1  6
 29 28  1  6
 28 65  1  0
 28 66  1  0
 29 30  2  0
 29 31  1  0
 31 32  1  0
 31 67  1  6
 32 33  1  0
 32 34  1  0
 33 68  1  0
 33 69  1  0
 33 70  1  0
 34 71  1  0
 34 72  1  0
 34 73  1  0
 35 37  1  6
 35 36  1  0
 35 38  1  0
 36 37  1  0
 36 74  1  0
 36 75  1  0
 38 40  1  6
 38 39  1  0
 39 40  1  0
 39 76  1  0
 39 77  1  0
M  END
>  <i_m_ct_stereo_status>  (79) 
1

>  <s_m_source_file>  (79) 
/var/tmp/pbs.5075288.sched01/tmpeqwi9iw0/66la8jmv2o.sdf

>  <i_m_source_file_index>  (79) 
47

>  <i_lp_mmshare_version>  (79) 
48012

>  <i_f3d_flags>  (79) 
0

>  <s_epik_input>  (79) 
TzFbQ0gyXVtDQEBdMTJbQ0BdMyhbQ0gyXU8zKVtDQEhdKE9DKD1PKVtDSDNdKVtDSDJdW0NAQF0oT0MoPU8pW0NIM10pKFtDQEBIXTRbQ0hdPUMoW0NIM10pQyg9TylPNCkvQyhbQ0gyXUNsKT1bQ0hdXFtDQEBdMihbQ0gzXSlbQ0BIXShbQ0gyXVtDQEhdNTYpW0NAQEhdKFtTK10oW08tXSlbQ0gyXTUpQzYoW0NIM10pW0NIM10=

>  <s_epik_cmdline>  (79) 
J2VwaWtfcHl0aG9uJywgJy1waHQnLCAnMi4wJywgJy1waCcsICc3LjAnLCAnLXRuJywgJzgnLCAnLW1hJywgJzIwMCcsICctaW1hZScsICc8aW5maWxlLm1hZT4nLCAnLW9tYWUnLCAnPG91dGZpbGUubWFlPic=

>  <r_lp_tautomer_probability>  (79) 
1

>  <r_epik_Ionization_Penalty>  (79) 
5.97406e-13

>  <r_epik_Ionization_Penalty_Charging>  (79) 
0

>  <r_epik_Ionization_Penalty_Neutral>  (79) 
5.97406e-13

>  <r_epik_State_Penalty>  (79) 
-0

>  <r_epik_Charging_Adjusted_Penalty>  (79) 
0

>  <i_epik_Tot_Q>  (79) 
0

>  <i_epik_Tot_abs_Q>  (79) 
2

>  <s_epik_Chemistry_Notes>  (79) 
This compound has an ester and may undergo hydrolysis at high or low pH.

>  <s_lp_Force_Field>  (79) 
OPLS3e

>  <r_lp_Energy>  (79) 
72.8623

>  <b_lp_Chiralities_Consistent>  (79) 
1

>  <s_lp_Variant>  (79) 
55:0-2

>  <s_i_glide_gridfile>  (79) 
pfpi4k_grid

>  <i_i_glide_lignum>  (79) 
47

>  <i_i_glide_rotatable_bonds>  (79) 
7

>  <r_i_docking_score>  (79) 
-1.63299

>  <r_i_glide_ligand_efficiency>  (79) 
-0.0408246

>  <r_i_glide_ligand_efficiency_sa>  (79) 
-0.139618

>  <r_i_glide_ligand_efficiency_ln>  (79) 
-0.348268

>  <r_i_glide_gscore>  (79) 
-1.63299

>  <r_i_glide_lipo>  (79) 
-0.262261

>  <r_i_glide_hbond>  (79) 
-0.0846801

>  <r_i_glide_metal>  (79) 
-0

>  <r_i_glide_rewards>  (79) 
-0.110052

>  <r_i_glide_evdw>  (79) 
-26.7071

>  <r_i_glide_ecoul>  (79) 
-2.73826

>  <r_i_glide_erotb>  (79) 
0.121108

>  <r_i_glide_esite>  (79) 
-0.0144507

>  <r_i_glide_emodel>  (79) 
-24.2767

>  <r_i_glide_energy>  (79) 
-29.4454

>  <r_i_glide_einternal>  (79) 
6.57866

>  <r_i_glide_intrahb_reward>  (79) 
-0

>  <i_i_glide_confnum>  (79) 
1

>  <i_i_glide_posenum>  (79) 
1

>  <r_i_glide_eff_state_penalty>  (79) 
0

>  <ligand_id>  (79) 
55

>  <original_smiles>  (79) 
CC(=O)OC1CC(OC(C)=O)(C2C=C(C)C(=O)O2)C(CCl)=CC(C)(C2CC3C[S+]([O-])C2C3(C)C)C2(CO2)C12CO2

>  <smiles>  (79) 
[H]C1=C(C([H])([H])[H])C(=O)OC1([H])C1(OC(=O)C([H])([H])[H])C(C([H])([H])Cl)=C([H])C(C([H])([H])[H])(C2([H])C([H])([H])C3([H])C([H])([H])S(=O)C2([H])C3(C([H])([H])[H])C([H])([H])[H])C2(OC2([H])[H])C2(OC2([H])[H])C([H])(OC(=O)C([H])([H])[H])C1([H])[H]

$$$$
57:0:0
     RDKit          3D

 56 60  0  0  1  0  0  0  0  0999 V2000
    7.2775   -3.2188   -0.0506 C   0  0  0  0  0  0  0  0  0  0  0  0
    5.8122   -3.3674    0.3806 C   0  0  0  0  0  0  0  0  0  0  0  0
    5.6158   -4.7998    0.8967 C   0  0  0  0  0  0  0  0  0  0  0  0
    5.3976   -2.2841    1.3922 C   0  0  0  0  0  0  0  0  0  0  0  0
    3.8478   -2.3502    1.6900 C   0  0  2  0  0  0  0  0  0  0  0  0
    3.1967   -2.8122    0.4877 O   0  0  0  0  0  0  0  0  0  0  0  0
    3.8074   -2.5604   -0.7478 C   0  0  1  0  0  0  0  0  0  0  0  0
    2.8996   -3.1229   -1.8795 C   0  0  0  0  0  0  0  0  0  0  0  0
    3.4790   -2.8004   -3.2802 C   0  0  0  0  0  0  0  0  0  0  0  0
    3.6331   -1.2804   -3.4669 C   0  0  2  0  0  0  0  0  0  0  0  0
    4.1969   -1.0036   -4.6394 F   0  0  0  0  0  0  0  0  0  0  0  0
    4.5177   -0.7430   -2.3479 C   0  0  0  0  0  0  0  0  0  0  0  0
    3.9247   -1.0478   -1.0050 C   0  0  0  0  0  0  0  0  0  0  0  0
    5.0443   -3.1974   -0.8274 O   0  0  0  0  0  0  0  0  0  0  0  0
    3.1898   -0.9507    1.9834 C   0  0  1  0  0  0  0  0  0  0  0  0
    1.6960   -1.0920    2.3613 C   0  0  0  0  0  0  0  0  0  0  0  0
    1.5366   -1.8973    3.6541 C   0  0  2  0  0  0  0  0  0  0  0  0
    2.2813   -1.1700    4.8003 C   0  0  0  0  0  0  0  0  0  0  0  0
    3.7411   -0.7485    4.4950 C   0  0  2  0  0  0  0  0  0  0  0  0
    3.9222   -0.1738    3.0780 C   0  0  0  0  0  0  0  0  0  0  0  0
    4.8273   -1.7496    4.9479 C   0  0  0  0  0  0  0  0  0  0  0  0
    4.7098   -3.4658    4.2202 S   0  0  0  0  0  0  0  0  0  0  0  0
    4.2808   -4.4523    5.3118 O   0  0  0  0  0  0  0  0  0  0  0  0
    3.4767   -3.4029    2.8189 C   0  0  1  0  0  0  0  0  0  0  0  0
    2.0511   -3.3263    3.4314 C   0  0  0  0  0  0  0  0  0  0  0  0
    7.9501   -3.5874    0.7299 H   0  0  0  0  0  0  0  0  0  0  0  0
    7.5433   -2.1860   -0.2763 H   0  0  0  0  0  0  0  0  0  0  0  0
    7.4644   -3.8136   -0.9443 H   0  0  0  0  0  0  0  0  0  0  0  0
    6.0118   -4.8466    1.9110 H   0  0  0  0  0  0  0  0  0  0  0  0
    6.1736   -5.5539    0.3372 H   0  0  0  0  0  0  0  0  0  0  0  0
    4.5644   -5.0678    0.9690 H   0  0  0  0  0  0  0  0  0  0  0  0
    6.0259   -2.3902    2.2783 H   0  0  0  0  0  0  0  0  0  0  0  0
    5.6931   -1.3056    1.0128 H   0  0  0  0  0  0  0  0  0  0  0  0
    2.8114   -4.2409   -1.7404 H   0  0  0  0  0  0  0  0  0  0  0  0
    1.8887   -2.7676   -1.7878 H   0  0  0  0  0  0  0  0  0  0  0  0
    4.4526   -3.2886   -3.4059 H   0  0  0  0  0  0  0  0  0  0  0  0
    2.8260   -3.1945   -4.0782 H   0  0  0  0  0  0  0  0  0  0  0  0
    2.6589   -0.7879   -3.4260 H   0  0  0  0  0  0  0  0  0  0  0  0
    5.5370   -1.1302   -2.3942 H   0  0  0  0  0  0  0  0  0  0  0  0
    4.5785    0.3332   -2.4317 H   0  0  0  0  0  0  0  0  0  0  0  0
    2.9138   -0.6392   -0.9558 H   0  0  0  0  0  0  0  0  0  0  0  0
    4.5454   -0.5334   -0.2718 H   0  0  0  0  0  0  0  0  0  0  0  0
    3.1858   -0.3000    1.1155 H   0  0  0  0  0  0  0  0  0  0  0  0
    1.2392   -0.0983    2.4731 H   0  0  0  0  0  0  0  0  0  0  0  0
    1.1580   -1.5757    1.5514 H   0  0  0  0  0  0  0  0  0  0  0  0
    0.4686   -1.9571    3.9133 H   0  0  0  0  0  0  0  0  0  0  0  0
    1.7202   -0.2530    5.0107 H   0  0  0  0  0  0  0  0  0  0  0  0
    2.2616   -1.7880    5.7095 H   0  0  0  0  0  0  0  0  0  0  0  0
    3.9343    0.1224    5.1341 H   0  0  0  0  0  0  0  0  0  0  0  0
    4.9731   -0.0720    2.8323 H   0  0  0  0  0  0  0  0  0  0  0  0
    3.5319    0.8500    3.0578 H   0  0  0  0  0  0  0  0  0  0  0  0
    5.8064   -1.3206    4.6910 H   0  0  0  0  0  0  0  0  0  0  0  0
    4.8107   -1.8522    6.0363 H   0  0  0  0  0  0  0  0  0  0  0  0
    3.4869   -4.4294    2.4343 H   0  0  0  0  0  0  0  0  0  0  0  0
    1.9801   -3.8978    4.3719 H   0  0  0  0  0  0  0  0  0  0  0  0
    1.3686   -3.8116    2.7337 H   0  0  0  0  0  0  0  0  0  0  0  0
  1  2  1  0
  1 26  1  0
  1 27  1  0
  1 28  1  0
  2 14  1  0
  2  3  1  0
  2  4  1  0
  3 29  1  0
  3 30  1  0
  3 31  1  0
  4  5  1  0
  4 32  1  0
  4 33  1  0
  5 24  1  0
  5  6  1  6
  5 15  1  0
  7  6  1  1
  7 13  1  0
  7  8  1  0
  7 14  1  0
  8  9  1  0
  8 34  1  0
  8 35  1  0
  9 10  1  0
  9 36  1  0
  9 37  1  0
 10 11  1  0
 10 12  1  0
 10 38  1  6
 12 13  1  0
 12 39  1  0
 12 40  1  0
 13 41  1  0
 13 42  1  0
 15 20  1  0
 15 16  1  0
 15 43  1  6
 16 17  1  0
 16 44  1  0
 16 45  1  0
 17 25  1  0
 17 18  1  0
 17 46  1  1
 18 19  1  0
 18 47  1  0
 18 48  1  0
 19 20  1  0
 19 21  1  0
 19 49  1  1
 20 50  1  0
 20 51  1  0
 22 21  1  1
 21 52  1  0
 21 53  1  0
 22 23  2  0
 22 24  1  0
 24 25  1  0
 24 54  1  6
 25 55  1  0
 25 56  1  0
M  END
>  <i_m_ct_stereo_status>  (80) 
1

>  <s_m_source_file>  (80) 
/var/tmp/pbs.5075288.sched01/tmpeqwi9iw0/66la8jmv2o.sdf

>  <i_m_source_file_index>  (80) 
51

>  <i_lp_mmshare_version>  (80) 
48012

>  <i_f3d_flags>  (80) 
0

>  <s_epik_input>  (80) 
W0NIMl0xW0NIMl1bQ0BASF0oRilbQ0gyXVtDSDJdW0NAQF0xKE8yKU9DKFtDSDNdKShbQ0gzXSlbQ0gyXVtDQEBdMjNbQ0BIXTRbQ0gyXVtDQEBIXTVbQ0gyXVtDQEhdKFtDSDJdNClbQ0gyXVtTK10oW08tXSlbQ0BIXTNbQ0gyXTU=

>  <s_epik_cmdline>  (80) 
J2VwaWtfcHl0aG9uJywgJy1waHQnLCAnMi4wJywgJy1waCcsICc3LjAnLCAnLXRuJywgJzgnLCAnLW1hJywgJzIwMCcsICctaW1hZScsICc8aW5maWxlLm1hZT4nLCAnLW9tYWUnLCAnPG91dGZpbGUubWFlPic=

>  <r_lp_tautomer_probability>  (80) 
1

>  <r_epik_Ionization_Penalty>  (80) 
2.37186e-12

>  <r_epik_Ionization_Penalty_Charging>  (80) 
0

>  <r_epik_Ionization_Penalty_Neutral>  (80) 
2.37186e-12

>  <r_epik_State_Penalty>  (80) 
-0

>  <r_epik_Charging_Adjusted_Penalty>  (80) 
0

>  <i_epik_Tot_Q>  (80) 
0

>  <i_epik_Tot_abs_Q>  (80) 
2

>  <s_lp_Force_Field>  (80) 
OPLS3e

>  <r_lp_Energy>  (80) 
44.7703

>  <b_lp_Chiralities_Consistent>  (80) 
1

>  <s_lp_Variant>  (80) 
57:0-1

>  <s_i_glide_gridfile>  (80) 
pfpi4k_grid

>  <i_i_glide_lignum>  (80) 
51

>  <i_i_glide_rotatable_bonds>  (80) 
0

>  <r_i_docking_score>  (80) 
-3.33911

>  <r_i_glide_ligand_efficiency>  (80) 
-0.133564

>  <r_i_glide_ligand_efficiency_sa>  (80) 
-0.390545

>  <r_i_glide_ligand_efficiency_ln>  (80) 
-0.791469

>  <r_i_glide_gscore>  (80) 
-3.33911

>  <r_i_glide_lipo>  (80) 
-0.737466

>  <r_i_glide_hbond>  (80) 
0

>  <r_i_glide_metal>  (80) 
-0

>  <r_i_glide_rewards>  (80) 
-0.912277

>  <r_i_glide_evdw>  (80) 
-26.1959

>  <r_i_glide_ecoul>  (80) 
-2.22144

>  <r_i_glide_erotb>  (80) 
0

>  <r_i_glide_esite>  (80) 
-0.0463568

>  <r_i_glide_emodel>  (80) 
-31.5331

>  <r_i_glide_energy>  (80) 
-28.4173

>  <r_i_glide_einternal>  (80) 
0

>  <r_i_glide_intrahb_reward>  (80) 
-0

>  <i_i_glide_confnum>  (80) 
4

>  <i_i_glide_posenum>  (80) 
3

>  <r_i_glide_eff_state_penalty>  (80) 
0

>  <ligand_id>  (80) 
57

>  <original_smiles>  (80) 
CC1(C)CC2(OC3(CCC(F)CC3)O1)C1CC3CC(C1)C[S+]([O-])C2C3

>  <smiles>  (80) 
[H]C([H])([H])C1(C([H])([H])[H])OC2(OC3(C1([H])[H])C1([H])S(=O)C([H])([H])C4([H])C([H])([H])C([H])(C1([H])[H])C([H])([H])C3([H])C4([H])[H])C([H])([H])C([H])([H])C([H])(F)C([H])([H])C2([H])[H]

$$$$
57:0:1
     RDKit          3D

 56 60  0  0  1  0  0  0  0  0999 V2000
    7.0129   -7.1792    2.0635 C   0  0  0  0  0  0  0  0  0  0  0  0
    6.6877   -5.7119    1.7858 C   0  0  0  0  0  0  0  0  0  0  0  0
    8.0846   -5.1772    1.5460 C   0  0  0  0  0  0  0  0  0  0  0  0
    5.7760   -5.3498    0.5743 C   0  0  0  0  0  0  0  0  0  0  0  0
    5.0040   -4.0302    0.8391 C   0  0  2  0  0  0  0  0  0  0  0  0
    4.2185   -4.2071    2.0489 O   0  0  0  0  0  0  0  0  0  0  0  0
    4.7360   -5.0736    3.0359 C   0  0  1  0  0  0  0  0  0  0  0  0
    4.3267   -4.5508    4.4379 C   0  0  0  0  0  0  0  0  0  0  0  0
    4.8180   -5.5383    5.5263 C   0  0  0  0  0  0  0  0  0  0  0  0
    4.2564   -6.9594    5.3167 C   0  0  2  0  0  0  0  0  0  0  0  0
    4.7869   -7.8037    6.2036 F   0  0  0  0  0  0  0  0  0  0  0  0
    4.6013   -7.4642    3.9465 C   0  0  0  0  0  0  0  0  0  0  0  0
    4.1144   -6.4923    2.8604 C   0  0  0  0  0  0  0  0  0  0  0  0
    6.1407   -5.1326    2.9853 O   0  0  0  0  0  0  0  0  0  0  0  0
    3.9853   -3.7714   -0.2937 C   0  0  1  0  0  0  0  0  0  0  0  0
    3.2874   -2.4211   -0.1056 C   0  0  0  0  0  0  0  0  0  0  0  0
    4.3228   -1.2949   -0.1658 C   0  0  2  0  0  0  0  0  0  0  0  0
    5.0084   -1.2647   -1.5468 C   0  0  0  0  0  0  0  0  0  0  0  0
    5.5381   -2.6306   -2.0479 C   0  0  2  0  0  0  0  0  0  0  0  0
    4.6119   -3.8207   -1.7019 C   0  0  0  0  0  0  0  0  0  0  0  0
    7.0327   -2.8698   -1.7888 C   0  0  0  0  0  0  0  0  0  0  0  0
    7.4158   -2.6940   -0.0134 S   0  0  0  0  0  0  0  0  0  0  0  0
    8.3893   -1.5044    0.3344 O   0  0  0  0  0  0  0  0  0  0  0  0
    5.9348   -2.7794    1.0826 C   0  0  1  0  0  0  0  0  0  0  0  0
    5.2898   -1.4131    1.0103 C   0  0  0  0  0  0  0  0  0  0  0  0
    7.7479   -7.6023    1.3861 H   0  0  0  0  0  0  0  0  0  0  0  0
    6.1849   -7.8651    1.9884 H   0  0  0  0  0  0  0  0  0  0  0  0
    7.4512   -7.2070    3.0668 H   0  0  0  0  0  0  0  0  0  0  0  0
    8.4220   -5.4236    0.5270 H   0  0  0  0  0  0  0  0  0  0  0  0
    8.8181   -5.4078    2.3023 H   0  0  0  0  0  0  0  0  0  0  0  0
    8.0804   -4.1322    1.7515 H   0  0  0  0  0  0  0  0  0  0  0  0
    6.3822   -5.2982   -0.3184 H   0  0  0  0  0  0  0  0  0  0  0  0
    5.0613   -6.1158    0.2584 H   0  0  0  0  0  0  0  0  0  0  0  0
    4.7456   -3.5578    4.6100 H   0  0  0  0  0  0  0  0  0  0  0  0
    3.2383   -4.4668    4.4839 H   0  0  0  0  0  0  0  0  0  0  0  0
    5.9104   -5.5484    5.5486 H   0  0  0  0  0  0  0  0  0  0  0  0
    4.4912   -5.1993    6.5047 H   0  0  0  0  0  0  0  0  0  0  0  0
    3.1767   -6.9968    5.4052 H   0  0  0  0  0  0  0  0  0  0  0  0
    5.6742   -7.5963    4.0340 H   0  0  0  0  0  0  0  0  0  0  0  0
    4.2384   -8.4612    3.7098 H   0  0  0  0  0  0  0  0  0  0  0  0
    3.0325   -6.4353    2.7936 H   0  0  0  0  0  0  0  0  0  0  0  0
    4.3480   -6.9356    1.9070 H   0  0  0  0  0  0  0  0  0  0  0  0
    3.2275   -4.5553   -0.2512 H   0  0  0  0  0  0  0  0  0  0  0  0
    2.5595   -2.2826   -0.8994 H   0  0  0  0  0  0  0  0  0  0  0  0
    2.7344   -2.3869    0.8343 H   0  0  0  0  0  0  0  0  0  0  0  0
    3.8157   -0.3446   -0.0329 H   0  0  0  0  0  0  0  0  0  0  0  0
    4.2740   -0.9277   -2.2759 H   0  0  0  0  0  0  0  0  0  0  0  0
    5.8039   -0.5268   -1.5602 H   0  0  0  0  0  0  0  0  0  0  0  0
    5.5429   -2.5870   -3.1327 H   0  0  0  0  0  0  0  0  0  0  0  0
    5.1088   -4.7727   -1.8927 H   0  0  0  0  0  0  0  0  0  0  0  0
    3.7989   -3.8287   -2.4236 H   0  0  0  0  0  0  0  0  0  0  0  0
    7.3497   -3.8211   -2.1266 H   0  0  0  0  0  0  0  0  0  0  0  0
    7.6739   -2.1194   -2.2565 H   0  0  0  0  0  0  0  0  0  0  0  0
    6.3493   -2.8653    2.0824 H   0  0  0  0  0  0  0  0  0  0  0  0
    6.0768   -0.6597    0.9527 H   0  0  0  0  0  0  0  0  0  0  0  0
    4.7743   -1.2429    1.9554 H   0  0  0  0  0  0  0  0  0  0  0  0
  1  2  1  0
  1 26  1  0
  1 27  1  0
  1 28  1  0
  2 14  1  0
  2  3  1  0
  2  4  1  0
  3 29  1  0
  3 30  1  0
  3 31  1  0
  4  5  1  0
  4 32  1  0
  4 33  1  0
  5 24  1  0
  5  6  1  1
  5 15  1  0
  7  6  1  6
  7 13  1  0
  7  8  1  0
  7 14  1  0
  8  9  1  0
  8 34  1  0
  8 35  1  0
  9 10  1  0
  9 36  1  0
  9 37  1  0
 10 11  1  0
 10 12  1  0
 10 38  1  6
 12 13  1  0
 12 39  1  0
 12 40  1  0
 13 41  1  0
 13 42  1  0
 15 20  1  0
 15 16  1  0
 15 43  1  6
 16 17  1  0
 16 44  1  0
 16 45  1  0
 17 25  1  0
 17 18  1  0
 17 46  1  1
 18 19  1  0
 18 47  1  0
 18 48  1  0
 19 20  1  0
 19 21  1  0
 19 49  1  6
 20 50  1  0
 20 51  1  0
 22 21  1  6
 21 52  1  0
 21 53  1  0
 22 23  2  0
 22 24  1  0
 24 25  1  0
 24 54  1  1
 25 55  1  0
 25 56  1  0
M  END
>  <i_m_ct_stereo_status>  (81) 
1

>  <s_m_source_file>  (81) 
/var/tmp/pbs.5075288.sched01/tmpeqwi9iw0/66la8jmv2o.sdf

>  <i_m_source_file_index>  (81) 
51

>  <i_lp_mmshare_version>  (81) 
48012

>  <i_f3d_flags>  (81) 
0

>  <s_epik_input>  (81) 
W0NIMl0xW0NIMl1bQ0BASF0oRilbQ0gyXVtDSDJdW0NAQF0xKE8yKU9DKFtDSDNdKShbQ0gzXSlbQ0gyXVtDQEBdMjNbQ0BIXTRbQ0gyXVtDQEBIXTVbQ0gyXVtDQEhdKFtDSDJdNClbQ0gyXVtTK10oW08tXSlbQ0BIXTNbQ0gyXTU=

>  <s_epik_cmdline>  (81) 
J2VwaWtfcHl0aG9uJywgJy1waHQnLCAnMi4wJywgJy1waCcsICc3LjAnLCAnLXRuJywgJzgnLCAnLW1hJywgJzIwMCcsICctaW1hZScsICc8aW5maWxlLm1hZT4nLCAnLW9tYWUnLCAnPG91dGZpbGUubWFlPic=

>  <r_lp_tautomer_probability>  (81) 
1

>  <r_epik_Ionization_Penalty>  (81) 
2.37186e-12

>  <r_epik_Ionization_Penalty_Charging>  (81) 
0

>  <r_epik_Ionization_Penalty_Neutral>  (81) 
2.37186e-12

>  <r_epik_State_Penalty>  (81) 
-0

>  <r_epik_Charging_Adjusted_Penalty>  (81) 
0

>  <i_epik_Tot_Q>  (81) 
0

>  <i_epik_Tot_abs_Q>  (81) 
2

>  <s_lp_Force_Field>  (81) 
OPLS3e

>  <r_lp_Energy>  (81) 
44.7703

>  <b_lp_Chiralities_Consistent>  (81) 
1

>  <s_lp_Variant>  (81) 
57:0-1

>  <s_i_glide_gridfile>  (81) 
pfpi4k_grid

>  <i_i_glide_lignum>  (81) 
51

>  <i_i_glide_rotatable_bonds>  (81) 
0

>  <r_i_docking_score>  (81) 
-2.32401

>  <r_i_glide_ligand_efficiency>  (81) 
-0.0929604

>  <r_i_glide_ligand_efficiency_sa>  (81) 
-0.271818

>  <r_i_glide_ligand_efficiency_ln>  (81) 
-0.55086

>  <r_i_glide_gscore>  (81) 
-2.32401

>  <r_i_glide_lipo>  (81) 
-0.578236

>  <r_i_glide_hbond>  (81) 
-0.0274543

>  <r_i_glide_metal>  (81) 
-0

>  <r_i_glide_rewards>  (81) 
-0.996985

>  <r_i_glide_evdw>  (81) 
-26.9769

>  <r_i_glide_ecoul>  (81) 
-0.767775

>  <r_i_glide_erotb>  (81) 
0

>  <r_i_glide_esite>  (81) 
0

>  <r_i_glide_emodel>  (81) 
-26.6264

>  <r_i_glide_energy>  (81) 
-27.7447

>  <r_i_glide_einternal>  (81) 
0

>  <r_i_glide_intrahb_reward>  (81) 
-0

>  <i_i_glide_confnum>  (81) 
3

>  <i_i_glide_posenum>  (81) 
36

>  <r_i_glide_eff_state_penalty>  (81) 
0

>  <ligand_id>  (81) 
57

>  <original_smiles>  (81) 
CC1(C)CC2(OC3(CCC(F)CC3)O1)C1CC3CC(C1)C[S+]([O-])C2C3

>  <smiles>  (81) 
[H]C([H])([H])C1(C([H])([H])[H])OC2(OC3(C1([H])[H])C1([H])S(=O)C([H])([H])C4([H])C([H])([H])C([H])(C1([H])[H])C([H])([H])C3([H])C4([H])[H])C([H])([H])C([H])([H])C([H])(F)C([H])([H])C2([H])[H]

$$$$
57:0:2
     RDKit          3D

 56 60  0  0  1  0  0  0  0  0999 V2000
    6.7429   -2.3028   -0.0374 C   0  0  0  0  0  0  0  0  0  0  0  0
    5.8675   -3.3271    0.6796 C   0  0  0  0  0  0  0  0  0  0  0  0
    6.8574   -4.4485    0.8545 C   0  0  0  0  0  0  0  0  0  0  0  0
    5.2623   -2.9824    2.0695 C   0  0  0  0  0  0  0  0  0  0  0  0
    3.9234   -3.7426    2.2737 C   0  0  2  0  0  0  0  0  0  0  0  0
    3.0158   -3.3779    1.2023 O   0  0  0  0  0  0  0  0  0  0  0  0
    3.6016   -3.0559   -0.0373 C   0  0  1  0  0  0  0  0  0  0  0  0
    2.6514   -3.4775   -1.1801 C   0  0  0  0  0  0  0  0  0  0  0  0
    3.2361   -3.0569   -2.5499 C   0  0  0  0  0  0  0  0  0  0  0  0
    3.4978   -1.5434   -2.6269 C   0  0  2  0  0  0  0  0  0  0  0  0
    4.0949   -1.2277   -3.7786 F   0  0  0  0  0  0  0  0  0  0  0  0
    4.3839   -1.1028   -1.4999 C   0  0  0  0  0  0  0  0  0  0  0  0
    3.8146   -1.5193   -0.1402 C   0  0  0  0  0  0  0  0  0  0  0  0
    4.8204   -3.7376   -0.2125 O   0  0  0  0  0  0  0  0  0  0  0  0
    3.2503   -3.2714    3.5831 C   0  0  1  0  0  0  0  0  0  0  0  0
    1.9782   -4.0822    3.8712 C   0  0  0  0  0  0  0  0  0  0  0  0
    2.3503   -5.5597    4.0523 C   0  0  2  0  0  0  0  0  0  0  0  0
    3.2884   -5.7363    5.2652 C   0  0  0  0  0  0  0  0  0  0  0  0
    4.5036   -4.7783    5.2953 C   0  0  2  0  0  0  0  0  0  0  0  0
    4.1876   -3.3444    4.8068 C   0  0  0  0  0  0  0  0  0  0  0  0
    5.7953   -5.3718    4.7682 C   0  0  0  0  0  0  0  0  0  0  0  0
    5.5800   -6.0269    3.0536 S   0  0  0  0  0  0  0  0  0  0  0  0
    5.7577   -7.4729    2.8535 O   0  0  0  0  0  0  0  0  0  0  0  0
    4.0733   -5.2994    2.2160 C   0  0  1  0  0  0  0  0  0  0  0  0
    2.9221   -6.1244    2.7501 C   0  0  0  0  0  0  0  0  0  0  0  0
    7.7340   -2.2086    0.3798 H   0  0  0  0  0  0  0  0  0  0  0  0
    6.3830   -1.2887   -0.0099 H   0  0  0  0  0  0  0  0  0  0  0  0
    6.8603   -2.6475   -1.0698 H   0  0  0  0  0  0  0  0  0  0  0  0
    7.5429   -4.2612    1.6922 H   0  0  0  0  0  0  0  0  0  0  0  0
    7.3581   -4.7864   -0.0293 H   0  0  0  0  0  0  0  0  0  0  0  0
    6.3167   -5.3532    0.9432 H   0  0  0  0  0  0  0  0  0  0  0  0
    5.9846   -3.1978    2.8399 H   0  0  0  0  0  0  0  0  0  0  0  0
    5.0968   -1.9235    2.2677 H   0  0  0  0  0  0  0  0  0  0  0  0
    2.4901   -4.5507   -1.1304 H   0  0  0  0  0  0  0  0  0  0  0  0
    1.6768   -3.0224   -1.0354 H   0  0  0  0  0  0  0  0  0  0  0  0
    4.1503   -3.6209   -2.7446 H   0  0  0  0  0  0  0  0  0  0  0  0
    2.5367   -3.3189   -3.3397 H   0  0  0  0  0  0  0  0  0  0  0  0
    2.5848   -0.9721   -2.5419 H   0  0  0  0  0  0  0  0  0  0  0  0
    5.3285   -1.5466   -1.7714 H   0  0  0  0  0  0  0  0  0  0  0  0
    4.6013   -0.0419   -1.4772 H   0  0  0  0  0  0  0  0  0  0  0  0
    2.9086   -0.9818    0.1115 H   0  0  0  0  0  0  0  0  0  0  0  0
    4.4741   -1.1393    0.6175 H   0  0  0  0  0  0  0  0  0  0  0  0
    2.9678   -2.2234    3.4588 H   0  0  0  0  0  0  0  0  0  0  0  0
    1.4991   -3.7032    4.7722 H   0  0  0  0  0  0  0  0  0  0  0  0
    1.2508   -3.9659    3.0668 H   0  0  0  0  0  0  0  0  0  0  0  0
    1.4440   -6.1248    4.2548 H   0  0  0  0  0  0  0  0  0  0  0  0
    2.7086   -5.5374    6.1632 H   0  0  0  0  0  0  0  0  0  0  0  0
    3.6161   -6.7736    5.3507 H   0  0  0  0  0  0  0  0  0  0  0  0
    4.7810   -4.6710    6.3380 H   0  0  0  0  0  0  0  0  0  0  0  0
    5.1045   -2.7746    4.6579 H   0  0  0  0  0  0  0  0  0  0  0  0
    3.6994   -2.8231    5.6233 H   0  0  0  0  0  0  0  0  0  0  0  0
    6.6171   -4.6590    4.7670 H   0  0  0  0  0  0  0  0  0  0  0  0
    6.1091   -6.2828    5.2671 H   0  0  0  0  0  0  0  0  0  0  0  0
    4.2049   -5.5949    1.1727 H   0  0  0  0  0  0  0  0  0  0  0  0
    3.2464   -7.1563    2.8805 H   0  0  0  0  0  0  0  0  0  0  0  0
    2.1554   -6.1485    1.9807 H   0  0  0  0  0  0  0  0  0  0  0  0
  1  2  1  0
  1 26  1  0
  1 27  1  0
  1 28  1  0
  2 14  1  0
  2  3  1  0
  2  4  1  0
  3 29  1  0
  3 30  1  0
  3 31  1  0
  4  5  1  0
  4 32  1  0
  4 33  1  0
  5 24  1  0
  5  6  1  6
  5 15  1  0
  7  6  1  1
  7 13  1  0
  7  8  1  0
  7 14  1  0
  8  9  1  0
  8 34  1  0
  8 35  1  0
  9 10  1  0
  9 36  1  0
  9 37  1  0
 10 11  1  0
 10 12  1  0
 10 38  1  1
 12 13  1  0
 12 39  1  0
 12 40  1  0
 13 41  1  0
 13 42  1  0
 15 20  1  0
 15 16  1  0
 15 43  1  6
 16 17  1  0
 16 44  1  0
 16 45  1  0
 17 25  1  0
 17 18  1  0
 17 46  1  1
 18 19  1  0
 18 47  1  0
 18 48  1  0
 19 20  1  0
 19 21  1  0
 19 49  1  1
 20 50  1  0
 20 51  1  0
 22 21  1  1
 21 52  1  0
 21 53  1  0
 22 23  2  0
 22 24  1  0
 24 25  1  0
 24 54  1  6
 25 55  1  0
 25 56  1  0
M  END
>  <i_m_ct_stereo_status>  (82) 
1

>  <s_m_source_file>  (82) 
/var/tmp/pbs.5075288.sched01/tmpeqwi9iw0/66la8jmv2o.sdf

>  <i_m_source_file_index>  (82) 
51

>  <i_lp_mmshare_version>  (82) 
48012

>  <i_f3d_flags>  (82) 
0

>  <s_epik_input>  (82) 
W0NIMl0xW0NIMl1bQ0BASF0oRilbQ0gyXVtDSDJdW0NAQF0xKE8yKU9DKFtDSDNdKShbQ0gzXSlbQ0gyXVtDQEBdMjNbQ0BIXTRbQ0gyXVtDQEBIXTVbQ0gyXVtDQEhdKFtDSDJdNClbQ0gyXVtTK10oW08tXSlbQ0BIXTNbQ0gyXTU=

>  <s_epik_cmdline>  (82) 
J2VwaWtfcHl0aG9uJywgJy1waHQnLCAnMi4wJywgJy1waCcsICc3LjAnLCAnLXRuJywgJzgnLCAnLW1hJywgJzIwMCcsICctaW1hZScsICc8aW5maWxlLm1hZT4nLCAnLW9tYWUnLCAnPG91dGZpbGUubWFlPic=

>  <r_lp_tautomer_probability>  (82) 
1

>  <r_epik_Ionization_Penalty>  (82) 
2.37186e-12

>  <r_epik_Ionization_Penalty_Charging>  (82) 
0

>  <r_epik_Ionization_Penalty_Neutral>  (82) 
2.37186e-12

>  <r_epik_State_Penalty>  (82) 
-0

>  <r_epik_Charging_Adjusted_Penalty>  (82) 
0

>  <i_epik_Tot_Q>  (82) 
0

>  <i_epik_Tot_abs_Q>  (82) 
2

>  <s_lp_Force_Field>  (82) 
OPLS3e

>  <r_lp_Energy>  (82) 
44.7703

>  <b_lp_Chiralities_Consistent>  (82) 
1

>  <s_lp_Variant>  (82) 
57:0-1

>  <s_i_glide_gridfile>  (82) 
pfpi4k_grid

>  <i_i_glide_lignum>  (82) 
51

>  <i_i_glide_rotatable_bonds>  (82) 
0

>  <r_i_docking_score>  (82) 
-1.93766

>  <r_i_glide_ligand_efficiency>  (82) 
-0.0775063

>  <r_i_glide_ligand_efficiency_sa>  (82) 
-0.22663

>  <r_i_glide_ligand_efficiency_ln>  (82) 
-0.459283

>  <r_i_glide_gscore>  (82) 
-1.93766

>  <r_i_glide_lipo>  (82) 
-0.272242

>  <r_i_glide_hbond>  (82) 
0

>  <r_i_glide_metal>  (82) 
-0

>  <r_i_glide_rewards>  (82) 
-1.12015

>  <r_i_glide_evdw>  (82) 
-23.8289

>  <r_i_glide_ecoul>  (82) 
-1.18675

>  <r_i_glide_erotb>  (82) 
0

>  <r_i_glide_esite>  (82) 
-0.00702846

>  <r_i_glide_emodel>  (82) 
-22.9749

>  <r_i_glide_energy>  (82) 
-25.0157

>  <r_i_glide_einternal>  (82) 
0

>  <r_i_glide_intrahb_reward>  (82) 
-0

>  <i_i_glide_confnum>  (82) 
3

>  <i_i_glide_posenum>  (82) 
13

>  <r_i_glide_eff_state_penalty>  (82) 
0

>  <ligand_id>  (82) 
57

>  <original_smiles>  (82) 
CC1(C)CC2(OC3(CCC(F)CC3)O1)C1CC3CC(C1)C[S+]([O-])C2C3

>  <smiles>  (82) 
[H]C([H])([H])C1(C([H])([H])[H])OC2(OC3(C1([H])[H])C1([H])S(=O)C([H])([H])C4([H])C([H])([H])C([H])(C1([H])[H])C([H])([H])C3([H])C4([H])[H])C([H])([H])C([H])([H])C([H])(F)C([H])([H])C2([H])[H]

$$$$
59:0:0
     RDKit          3D

104109  0  0  1  0  0  0  0  0999 V2000
    8.1264   -9.7288    9.7900 C   0  0  0  0  0  0  0  0  0  0  0  0
    7.3375   -9.9812    8.5010 C   0  0  0  0  0  0  0  0  0  0  0  0
    6.8600  -11.0878    8.2416 O   0  0  0  0  0  0  0  0  0  0  0  0
    7.2281   -8.8805    7.7258 O   0  0  0  0  0  0  0  0  0  0  0  0
    6.5127   -8.8760    6.4786 C   0  0  2  0  0  0  0  0  0  0  0  0
    7.6582   -9.2966    5.4896 C   0  0  0  0  0  0  0  0  0  0  0  0
    7.5492   -9.0091    3.9863 C   0  0  0  0  0  0  0  0  0  0  0  0
    6.1425   -9.1119    3.3840 C   0  0  1  0  0  0  0  0  0  0  0  0
    6.2887   -9.1445    1.8449 C   0  0  0  0  0  0  0  0  0  0  0  0
    5.4550  -10.4299    3.7704 C   0  0  0  0  0  0  0  0  0  0  0  0
    6.2290  -11.6025    3.5895 O   0  0  0  0  0  0  0  0  0  0  0  0
    5.7251  -12.8307    3.8763 C   0  0  0  0  0  0  0  0  0  0  0  0
    6.3956  -13.8586    3.7693 O   0  0  0  0  0  0  0  0  0  0  0  0
    4.2557  -12.9156    4.3855 C   0  0  0  0  0  0  0  0  0  0  0  0
    4.2219  -12.8847    5.8502 N   0  0  0  0  0  0  0  0  0  0  0  0
    5.3617   -7.7892    3.6975 C   0  0  0  0  0  0  0  0  0  0  0  0
    4.6497   -7.3683    5.0396 C   0  0  1  0  0  0  0  0  0  0  0  0
    4.2740   -5.8153    4.8613 C   0  0  1  0  0  0  0  0  0  0  0  0
    4.2590   -5.0350    3.4729 C   0  0  0  0  0  0  0  0  0  0  0  0
    2.9868   -4.7114    2.6356 C   0  0  0  0  0  0  0  0  0  0  0  0
    2.1471   -5.9145    2.2445 C   0  0  2  0  0  0  0  0  0  0  0  0
    2.7638   -6.7458    1.1253 C   0  0  0  0  0  0  0  0  0  0  0  0
    0.7663   -5.8595    1.8839 O   0  0  0  0  0  0  0  0  0  0  0  0
    1.0285   -6.1243    3.2499 C   0  0  1  0  0  0  0  0  0  0  0  0
    0.9322   -7.4393    3.9344 C   0  0  1  0  0  0  0  0  0  0  0  0
   -0.0264   -8.5829    3.6084 C   0  0  0  0  0  0  0  0  0  0  0  0
   -1.4345   -8.4747    4.1866 C   0  0  0  0  0  0  0  0  0  0  0  0
   -0.1342   -9.0134    2.1429 C   0  0  0  0  0  0  0  0  0  0  0  0
    0.9914   -9.4128    4.4639 C   0  0  0  0  0  0  0  0  0  0  0  0
    0.9111  -10.4409    5.1286 O   0  0  0  0  0  0  0  0  0  0  0  0
    2.1438   -8.3665    4.2449 C   0  0  1  0  0  0  0  0  0  0  0  0
    2.7941   -8.9427    3.1485 O   0  0  0  0  0  0  0  0  0  0  0  0
    3.2241   -8.0535    5.4216 C   0  0  1  0  0  0  0  0  0  0  0  0
    3.5605   -9.3320    5.8574 O   0  0  0  0  0  0  0  0  0  0  0  0
    2.6908   -7.1948    6.6770 C   0  0  2  0  0  0  0  0  0  0  0  0
    1.2098   -7.3214    7.1586 C   0  0  0  0  0  0  0  0  0  0  0  0
    2.7454   -5.5010    5.8711 S   0  0  0  0  0  0  0  0  0  0  0  0
    3.0365   -4.3875    6.8746 O   0  0  0  0  0  0  0  0  0  0  0  0
    3.6324   -7.2458    7.9641 C   0  0  1  0  0  0  0  0  0  0  0  0
    3.2810   -6.0892    8.7472 O   0  0  0  0  0  0  0  0  0  0  0  0
    3.4533   -8.5041    8.9744 C   0  0  0  0  0  0  0  0  0  0  0  0
    2.6613   -9.7877    8.5444 C   0  0  0  0  0  0  0  0  0  0  0  0
    2.8638   -8.1421   10.3779 C   0  0  0  0  0  0  0  0  0  0  0  0
    5.1052   -6.8585    7.5578 C   0  0  1  0  0  0  0  0  0  0  0  0
    5.9481   -6.8462    8.7230 O   0  0  0  0  0  0  0  0  0  0  0  0
    6.7548   -5.8057    9.1082 C   0  0  0  0  0  0  0  0  0  0  0  0
    6.7117   -4.5415    8.2140 C   0  0  0  0  0  0  0  0  0  0  0  0
    7.4693   -5.8521   10.0967 O   0  0  0  0  0  0  0  0  0  0  0  0
    5.7449   -7.4882    6.2526 C   0  0  1  0  0  0  0  0  0  0  0  0
    6.8169   -6.6401    5.8542 O   0  0  0  0  0  0  0  0  0  0  0  0
    7.5966   -9.0277   10.4367 H   0  0  0  0  0  0  0  0  0  0  0  0
    9.1111   -9.3096    9.5784 H   0  0  0  0  0  0  0  0  0  0  0  0
    8.2730  -10.6530   10.3495 H   0  0  0  0  0  0  0  0  0  0  0  0
    5.7853   -9.6782    6.5478 H   0  0  0  0  0  0  0  0  0  0  0  0
    8.6122   -8.8591    5.7940 H   0  0  0  0  0  0  0  0  0  0  0  0
    7.8140  -10.3723    5.6115 H   0  0  0  0  0  0  0  0  0  0  0  0
    7.9870   -8.0398    3.7434 H   0  0  0  0  0  0  0  0  0  0  0  0
    8.1968   -9.7239    3.4734 H   0  0  0  0  0  0  0  0  0  0  0  0
    5.3217   -9.2783    1.3527 H   0  0  0  0  0  0  0  0  0  0  0  0
    6.9236   -9.9664    1.5110 H   0  0  0  0  0  0  0  0  0  0  0  0
    6.7184   -8.2183    1.4674 H   0  0  0  0  0  0  0  0  0  0  0  0
    5.2315  -10.4595    4.8231 H   0  0  0  0  0  0  0  0  0  0  0  0
    4.5534  -10.5464    3.1752 H   0  0  0  0  0  0  0  0  0  0  0  0
    3.6346  -12.1004    3.9883 H   0  0  0  0  0  0  0  0  0  0  0  0
    3.8296  -13.8539    4.0140 H   0  0  0  0  0  0  0  0  0  0  0  0
    3.2414  -12.9142    6.1698 H   0  0  0  0  0  0  0  0  0  0  0  0
    4.6555  -12.0475    6.2208 H   0  0  0  0  0  0  0  0  0  0  0  0
    6.0912   -7.0154    3.4895 H   0  0  0  0  0  0  0  0  0  0  0  0
    4.6575   -7.6301    2.9055 H   0  0  0  0  0  0  0  0  0  0  0  0
    5.0013   -5.2133    5.3943 H   0  0  0  0  0  0  0  0  0  0  0  0
    4.6648   -4.0475    3.7051 H   0  0  0  0  0  0  0  0  0  0  0  0
    5.0081   -5.4177    2.7852 H   0  0  0  0  0  0  0  0  0  0  0  0
    2.3648   -4.0099    3.2000 H   0  0  0  0  0  0  0  0  0  0  0  0
    3.2665   -4.1800    1.7283 H   0  0  0  0  0  0  0  0  0  0  0  0
    3.8322   -6.8740    1.2111 H   0  0  0  0  0  0  0  0  0  0  0  0
    2.5797   -6.2399    0.1784 H   0  0  0  0  0  0  0  0  0  0  0  0
    2.2783   -7.7197    1.0665 H   0  0  0  0  0  0  0  0  0  0  0  0
    0.7270   -5.2827    3.8838 H   0  0  0  0  0  0  0  0  0  0  0  0
    0.5497   -7.1026    4.8902 H   0  0  0  0  0  0  0  0  0  0  0  0
   -1.9598   -7.6013    3.7888 H   0  0  0  0  0  0  0  0  0  0  0  0
   -1.4223   -8.3806    5.2801 H   0  0  0  0  0  0  0  0  0  0  0  0
   -2.0413   -9.3379    3.9262 H   0  0  0  0  0  0  0  0  0  0  0  0
   -0.4663   -8.1672    1.5410 H   0  0  0  0  0  0  0  0  0  0  0  0
   -0.8659   -9.8122    2.0070 H   0  0  0  0  0  0  0  0  0  0  0  0
    0.8099   -9.3450    1.7303 H   0  0  0  0  0  0  0  0  0  0  0  0
    2.8880   -9.8501    3.3789 H   0  0  0  0  0  0  0  0  0  0  0  0
    2.7829   -9.7445    6.2376 H   0  0  0  0  0  0  0  0  0  0  0  0
    0.7356   -8.2445    6.8330 H   0  0  0  0  0  0  0  0  0  0  0  0
    0.5652   -6.4872    6.8700 H   0  0  0  0  0  0  0  0  0  0  0  0
    1.1225   -7.3219    8.2452 H   0  0  0  0  0  0  0  0  0  0  0  0
    3.3706   -5.3034    8.2081 H   0  0  0  0  0  0  0  0  0  0  0  0
    4.4623   -8.8424    9.1860 H   0  0  0  0  0  0  0  0  0  0  0  0
    1.6159   -9.5800    8.2961 H   0  0  0  0  0  0  0  0  0  0  0  0
    2.5839  -10.4643    9.3997 H   0  0  0  0  0  0  0  0  0  0  0  0
    3.1542  -10.3493    7.7464 H   0  0  0  0  0  0  0  0  0  0  0  0
    1.8364   -7.7770   10.3235 H   0  0  0  0  0  0  0  0  0  0  0  0
    3.4404   -7.3967   10.9356 H   0  0  0  0  0  0  0  0  0  0  0  0
    2.8260   -9.0317   11.0100 H   0  0  0  0  0  0  0  0  0  0  0  0
    4.9900   -5.8160    7.3044 H   0  0  0  0  0  0  0  0  0  0  0  0
    6.8318   -4.7917    7.1616 H   0  0  0  0  0  0  0  0  0  0  0  0
    7.5114   -3.8518    8.4611 H   0  0  0  0  0  0  0  0  0  0  0  0
    5.7477   -4.0395    8.3473 H   0  0  0  0  0  0  0  0  0  0  0  0
    7.1988   -7.0264    5.0947 H   0  0  0  0  0  0  0  0  0  0  0  0
    4.6837  -13.6940    6.2554 H   0  0  0  0  0  0  0  0  0  0  0  0
  1  2  1  0
  1 51  1  0
  1 52  1  0
  1 53  1  0
  2  3  2  0
  2  4  1  0
  4  5  1  0
  5 49  1  0
  5  6  1  0
  5 54  1  1
  6  7  1  0
  6 55  1  0
  6 56  1  0
  7  8  1  0
  7 57  1  0
  7 58  1  0
  8  9  1  6
  8 10  1  0
  8 16  1  0
  9 59  1  0
  9 60  1  0
  9 61  1  0
 10 11  1  0
 10 62  1  0
 10 63  1  0
 11 12  1  0
 12 13  2  0
 12 14  1  0
 14 15  1  0
 14 64  1  0
 14 65  1  0
 15 66  1  0
 15 67  1  0
 15104  1  0
 17 16  1  6
 16 68  1  0
 16 69  1  0
 17 33  1  0
 17 49  1  0
 17 18  1  0
 18 37  1  0
 18 19  1  0
 18 70  1  1
 19 20  1  0
 19 71  1  0
 19 72  1  0
 20 21  1  0
 20 73  1  0
 20 74  1  0
 21 24  1  0
 21 22  1  6
 21 23  1  0
 22 75  1  0
 22 76  1  0
 22 77  1  0
 23 24  1  0
 24 25  1  0
 24 78  1  1
 25 31  1  0
 25 26  1  0
 25 79  1  1
 26 27  1  0
 26 28  1  0
 26 29  1  0
 27 80  1  0
 27 81  1  0
 27 82  1  0
 28 83  1  0
 28 84  1  0
 28 85  1  0
 29 30  2  0
 29 31  1  0
 31 32  1  6
 31 33  1  0
 32 86  1  0
 33 34  1  1
 33 35  1  0
 34 87  1  0
 35 36  1  1
 37 35  1  1
 35 39  1  0
 36 88  1  0
 36 89  1  0
 36 90  1  0
 37 38  2  0
 39 40  1  1
 39 41  1  0
 39 44  1  0
 40 91  1  0
 41 42  1  0
 41 43  1  0
 41 92  1  0
 42 93  1  0
 42 94  1  0
 42 95  1  0
 43 96  1  0
 43 97  1  0
 43 98  1  0
 44 45  1  0
 44 49  1  0
 44 99  1  6
 45 46  1  0
 46 47  1  0
 46 48  2  0
 47100  1  0
 47101  1  0
 47102  1  0
 49 50  1  6
 50103  1  0
M  CHG  1  15   1
M  END
>  <i_m_ct_stereo_status>  (83) 
1

>  <s_m_source_file>  (83) 
/var/tmp/pbs.5075288.sched01/tmpeqwi9iw0/66la8jmv2o.sdf

>  <i_m_source_file_index>  (83) 
54

>  <i_lp_mmshare_version>  (83) 
48012

>  <i_f3d_flags>  (83) 
0

>  <s_epik_input>  (83) 
W05IMl1bQ0gyXUMoPU8pT1tDSDJdW0NAQF0oW0NIM10pKFtDSDJdMSlbQ0gyXVtDSDJdW0NAQEhdKE9DKD1PKVtDSDNdKVtDQF0yKFtPSF0pW0NASF0oT0MoPU8pW0NIM10pW0NAXShbT0hdKShbQ0hdKFtDSDNdKVtDSDNdKVtDQEBdKFtDSDNdKShbUytdM1tPLV0pW0NAQF00KFtPSF0pW0NAQF0oW09IXSkoQyg9TylDNShbQ0gzXSlbQ0gzXSlbQ0BIXTVbQ0BIXShPNilbQ0BdNihbQ0gzXSlbQ0gyXVtDSDJdW0NAQEhdM1tDQEBdMTI0

>  <s_epik_cmdline>  (83) 
J2VwaWtfcHl0aG9uJywgJy1waHQnLCAnMi4wJywgJy1waCcsICc3LjAnLCAnLXRuJywgJzgnLCAnLW1hJywgJzIwMCcsICctaW1hZScsICc8aW5maWxlLm1hZT4nLCAnLW9tYWUnLCAnPG91dGZpbGUubWFlPic=

>  <r_epik_Ionization_Penalty>  (83) 
0.27377

>  <r_epik_Ionization_Penalty_Charging>  (83) 
0.273769

>  <r_epik_Ionization_Penalty_Neutral>  (83) 
6.96095e-07

>  <r_epik_State_Penalty>  (83) 
0.266031

>  <r_epik_Charging_Adjusted_Penalty>  (83) 
0.539801

>  <i_epik_Tot_Q>  (83) 
1

>  <i_epik_Tot_abs_Q>  (83) 
3

>  <s_epik_Chemistry_Notes>  (83) 
This compound has an ester and may undergo hydrolysis at high or low pH.

>  <s_lp_Force_Field>  (83) 
OPLS3e

>  <r_lp_Energy>  (83) 
149.911

>  <b_lp_Chiralities_Consistent>  (83) 
1

>  <s_lp_Variant>  (83) 
59:0-1

>  <s_i_glide_gridfile>  (83) 
pfpi4k_grid

>  <i_i_glide_lignum>  (83) 
54

>  <i_i_glide_rotatable_bonds>  (83) 
13

>  <r_i_docking_score>  (83) 
-3.91543

>  <r_i_glide_ligand_efficiency>  (83) 
-0.0783085

>  <r_i_glide_ligand_efficiency_sa>  (83) 
-0.288491

>  <r_i_glide_ligand_efficiency_ln>  (83) 
-0.797111

>  <r_i_glide_gscore>  (83) 
-3.91543

>  <r_i_glide_lipo>  (83) 
-0.0743178

>  <r_i_glide_hbond>  (83) 
-0.28465

>  <r_i_glide_metal>  (83) 
-0

>  <r_i_glide_rewards>  (83) 
-1.03

>  <r_i_glide_evdw>  (83) 
-22.0847

>  <r_i_glide_ecoul>  (83) 
-8.62522

>  <r_i_glide_erotb>  (83) 
0.0119977

>  <r_i_glide_esite>  (83) 
-0.140437

>  <r_i_glide_emodel>  (83) 
-32.6838

>  <r_i_glide_energy>  (83) 
-30.7099

>  <r_i_glide_einternal>  (83) 
21.4588

>  <r_i_glide_intrahb_reward>  (83) 
-0.5

>  <i_i_glide_confnum>  (83) 
1

>  <i_i_glide_posenum>  (83) 
10

>  <r_i_glide_eff_state_penalty>  (83) 
0

>  <ligand_id>  (83) 
59

>  <original_smiles>  (83) 
CC(=O)OC1CCC(C)(COC(=O)CN)CC23C4CCC5(C)OC5C5C(C)(C)C(=O)C5(O)C2(O)C(C)([S+]4[O-])C(O)(C(C)C)C(OC(C)=O)C13O

>  <smiles>  (83) 
[H]OC12C(=O)C(C([H])([H])[H])(C([H])([H])[H])C1([H])C1([H])OC1(C([H])([H])[H])C([H])([H])C([H])([H])C1([H])S(=O)C3(C([H])([H])[H])C(O[H])(C([H])(C([H])([H])[H])C([H])([H])[H])C([H])(OC(=O)C([H])([H])[H])C4(O[H])C([H])(OC(=O)C([H])([H])[H])C([H])([H])C([H])([H])C(C([H])([H])[H])(C([H])([H])OC(=O)C([H])([H])[N+]([H])([H])[H])C([H])([H])C14C23O[H]

$$$$
59:0:1
     RDKit          3D

104109  0  0  1  0  0  0  0  0999 V2000
    5.6070   -6.4321   11.6057 C   0  0  0  0  0  0  0  0  0  0  0  0
    5.0949   -7.1031   10.3276 C   0  0  0  0  0  0  0  0  0  0  0  0
    4.3444   -8.0771   10.3722 O   0  0  0  0  0  0  0  0  0  0  0  0
    5.5292   -6.4870    9.2046 O   0  0  0  0  0  0  0  0  0  0  0  0
    5.1674   -6.9246    7.8841 C   0  0  2  0  0  0  0  0  0  0  0  0
    6.4814   -7.6924    7.4944 C   0  0  0  0  0  0  0  0  0  0  0  0
    6.8333   -7.9890    6.0298 C   0  0  0  0  0  0  0  0  0  0  0  0
    5.6410   -8.3121    5.1334 C   0  0  1  0  0  0  0  0  0  0  0  0
    6.1746   -8.9336    3.8141 C   0  0  0  0  0  0  0  0  0  0  0  0
    4.7401   -9.3741    5.7645 C   0  0  0  0  0  0  0  0  0  0  0  0
    5.3834  -10.6034    6.0912 O   0  0  0  0  0  0  0  0  0  0  0  0
    4.8072  -11.8217    5.8844 C   0  0  0  0  0  0  0  0  0  0  0  0
    5.2952  -12.8738    6.2949 O   0  0  0  0  0  0  0  0  0  0  0  0
    3.5330  -11.8733    5.0360 C   0  0  0  0  0  0  0  0  0  0  0  0
    2.4320  -11.1517    5.6894 N   0  0  0  0  0  0  0  0  0  0  0  0
    4.9341   -6.9807    4.7066 C   0  0  0  0  0  0  0  0  0  0  0  0
    3.9257   -6.0940    5.5315 C   0  0  1  0  0  0  0  0  0  0  0  0
    3.7652   -4.7282    4.6980 C   0  0  1  0  0  0  0  0  0  0  0  0
    4.2113   -4.5358    3.1829 C   0  0  0  0  0  0  0  0  0  0  0  0
    3.2564   -4.5542    1.9560 C   0  0  0  0  0  0  0  0  0  0  0  0
    2.4333   -5.8141    1.7887 C   0  0  2  0  0  0  0  0  0  0  0  0
    3.2448   -7.0121    1.2852 C   0  0  0  0  0  0  0  0  0  0  0  0
    1.2135   -5.8636    1.0481 O   0  0  0  0  0  0  0  0  0  0  0  0
    1.0694   -5.6422    2.4470 C   0  0  1  0  0  0  0  0  0  0  0  0
    0.6441   -6.6095    3.4948 C   0  0  1  0  0  0  0  0  0  0  0  0
   -0.3017   -7.8080    3.3539 C   0  0  0  0  0  0  0  0  0  0  0  0
   -1.8011   -7.5059    3.4418 C   0  0  0  0  0  0  0  0  0  0  0  0
   -0.0503   -8.7531    2.1779 C   0  0  0  0  0  0  0  0  0  0  0  0
    0.3653   -8.2380    4.7038 C   0  0  0  0  0  0  0  0  0  0  0  0
    0.0056   -8.9325    5.6446 O   0  0  0  0  0  0  0  0  0  0  0  0
    1.6330   -7.3377    4.4526 C   0  0  1  0  0  0  0  0  0  0  0  0
    2.4832   -8.2582    3.8458 O   0  0  0  0  0  0  0  0  0  0  0  0
    2.3915   -6.6158    5.7041 C   0  0  1  0  0  0  0  0  0  0  0  0
    2.4673   -7.6538    6.6116 O   0  0  0  0  0  0  0  0  0  0  0  0
    1.6333   -5.3477    6.3518 C   0  0  2  0  0  0  0  0  0  0  0  0
    0.0665   -5.2930    6.3954 C   0  0  0  0  0  0  0  0  0  0  0  0
    2.0633   -4.0863    5.0350 S   0  0  0  0  0  0  0  0  0  0  0  0
    2.1737   -2.6607    5.6097 O   0  0  0  0  0  0  0  0  0  0  0  0
    2.1788   -4.8876    7.7807 C   0  0  1  0  0  0  0  0  0  0  0  0
    1.7370   -3.5350    7.9547 O   0  0  0  0  0  0  0  0  0  0  0  0
    1.6014   -5.6918    9.0711 C   0  0  0  0  0  0  0  0  0  0  0  0
    0.8191   -7.0484    8.9086 C   0  0  0  0  0  0  0  0  0  0  0  0
    0.6989   -4.8381   10.0280 C   0  0  0  0  0  0  0  0  0  0  0  0
    3.7425   -4.6449    7.7226 C   0  0  1  0  0  0  0  0  0  0  0  0
    4.2064   -4.2527    9.0280 O   0  0  0  0  0  0  0  0  0  0  0  0
    4.9649   -3.1436    9.2114 C   0  0  0  0  0  0  0  0  0  0  0  0
    5.3536   -2.9027   10.6682 C   0  0  0  0  0  0  0  0  0  0  0  0
    5.3317   -2.3686    8.3318 O   0  0  0  0  0  0  0  0  0  0  0  0
    4.6279   -5.7255    6.9691 C   0  0  1  0  0  0  0  0  0  0  0  0
    5.8335   -5.0481    6.6442 O   0  0  0  0  0  0  0  0  0  0  0  0
    5.1871   -5.4321   11.7080 H   0  0  0  0  0  0  0  0  0  0  0  0
    6.6947   -6.3490   11.5993 H   0  0  0  0  0  0  0  0  0  0  0  0
    5.3158   -6.9980   12.4901 H   0  0  0  0  0  0  0  0  0  0  0  0
    4.3677   -7.6447    8.0084 H   0  0  0  0  0  0  0  0  0  0  0  0
    7.3597   -7.1796    7.8865 H   0  0  0  0  0  0  0  0  0  0  0  0
    6.4727   -8.6439    8.0319 H   0  0  0  0  0  0  0  0  0  0  0  0
    7.4149   -7.1777    5.5855 H   0  0  0  0  0  0  0  0  0  0  0  0
    7.5029   -8.8547    6.0183 H   0  0  0  0  0  0  0  0  0  0  0  0
    5.3651   -9.2480    3.1486 H   0  0  0  0  0  0  0  0  0  0  0  0
    6.7891   -9.8196    3.9851 H   0  0  0  0  0  0  0  0  0  0  0  0
    6.7806   -8.2209    3.2548 H   0  0  0  0  0  0  0  0  0  0  0  0
    4.2994   -9.0691    6.7093 H   0  0  0  0  0  0  0  0  0  0  0  0
    3.9881   -9.5466    5.0204 H   0  0  0  0  0  0  0  0  0  0  0  0
    3.7774  -11.4222    4.0672 H   0  0  0  0  0  0  0  0  0  0  0  0
    3.2541  -12.8953    4.8234 H   0  0  0  0  0  0  0  0  0  0  0  0
    1.6246  -11.1484    5.1001 H   0  0  0  0  0  0  0  0  0  0  0  0
    2.7247  -10.1851    5.9247 H   0  0  0  0  0  0  0  0  0  0  0  0
    5.7649   -6.3353    4.4460 H   0  0  0  0  0  0  0  0  0  0  0  0
    4.4856   -7.1505    3.7472 H   0  0  0  0  0  0  0  0  0  0  0  0
    4.3714   -3.9594    5.1620 H   0  0  0  0  0  0  0  0  0  0  0  0
    4.6377   -3.5303    3.1504 H   0  0  0  0  0  0  0  0  0  0  0  0
    5.0739   -5.1427    2.9283 H   0  0  0  0  0  0  0  0  0  0  0  0
    2.5790   -3.6993    2.0245 H   0  0  0  0  0  0  0  0  0  0  0  0
    3.8207   -4.4000    1.0415 H   0  0  0  0  0  0  0  0  0  0  0  0
    4.2228   -7.0957    1.7343 H   0  0  0  0  0  0  0  0  0  0  0  0
    3.4210   -6.8952    0.2205 H   0  0  0  0  0  0  0  0  0  0  0  0
    2.6916   -7.9455    1.4223 H   0  0  0  0  0  0  0  0  0  0  0  0
    0.7128   -4.6313    2.6469 H   0  0  0  0  0  0  0  0  0  0  0  0
    0.0582   -5.9420    4.1137 H   0  0  0  0  0  0  0  0  0  0  0  0
   -2.1051   -6.8775    2.5950 H   0  0  0  0  0  0  0  0  0  0  0  0
   -2.0727   -6.9748    4.3556 H   0  0  0  0  0  0  0  0  0  0  0  0
   -2.4034   -8.4124    3.3888 H   0  0  0  0  0  0  0  0  0  0  0  0
   -0.1160   -8.1767    1.2537 H   0  0  0  0  0  0  0  0  0  0  0  0
   -0.7895   -9.5518    2.1144 H   0  0  0  0  0  0  0  0  0  0  0  0
    0.9335   -9.2106    2.1829 H   0  0  0  0  0  0  0  0  0  0  0  0
    2.4325   -9.0114    4.3952 H   0  0  0  0  0  0  0  0  0  0  0  0
    1.5905   -7.9433    6.8542 H   0  0  0  0  0  0  0  0  0  0  0  0
   -0.3964   -6.2732    6.3019 H   0  0  0  0  0  0  0  0  0  0  0  0
   -0.3884   -4.6338    5.6543 H   0  0  0  0  0  0  0  0  0  0  0  0
   -0.3158   -4.8880    7.3340 H   0  0  0  0  0  0  0  0  0  0  0  0
    2.0949   -2.9956    7.2493 H   0  0  0  0  0  0  0  0  0  0  0  0
    2.4721   -5.9335    9.6707 H   0  0  0  0  0  0  0  0  0  0  0  0
   -0.1064   -6.9363    8.3333 H   0  0  0  0  0  0  0  0  0  0  0  0
    0.4564   -7.3608    9.8995 H   0  0  0  0  0  0  0  0  0  0  0  0
    1.4395   -7.8489    8.5266 H   0  0  0  0  0  0  0  0  0  0  0  0
   -0.2307   -4.5217    9.5576 H   0  0  0  0  0  0  0  0  0  0  0  0
    1.1842   -3.9430   10.4236 H   0  0  0  0  0  0  0  0  0  0  0  0
    0.4036   -5.4300   10.8927 H   0  0  0  0  0  0  0  0  0  0  0  0
    3.8574   -3.7436    7.1224 H   0  0  0  0  0  0  0  0  0  0  0  0
    4.4864   -3.0170   11.3179 H   0  0  0  0  0  0  0  0  0  0  0  0
    5.7475   -1.8938   10.8026 H   0  0  0  0  0  0  0  0  0  0  0  0
    6.1291   -3.6023   10.9799 H   0  0  0  0  0  0  0  0  0  0  0  0
    6.4093   -5.6537    6.2121 H   0  0  0  0  0  0  0  0  0  0  0  0
    2.1336  -11.6379    6.5601 H   0  0  0  0  0  0  0  0  0  0  0  0
  1  2  1  0
  1 51  1  0
  1 52  1  0
  1 53  1  0
  2  3  2  0
  2  4  1  0
  4  5  1  0
  5 49  1  0
  5  6  1  0
  5 54  1  1
  6  7  1  0
  6 55  1  0
  6 56  1  0
  7  8  1  0
  7 57  1  0
  7 58  1  0
  8  9  1  6
  8 10  1  0
  8 16  1  0
  9 59  1  0
  9 60  1  0
  9 61  1  0
 10 11  1  0
 10 62  1  0
 10 63  1  0
 11 12  1  0
 12 13  2  0
 12 14  1  0
 14 15  1  0
 14 64  1  0
 14 65  1  0
 15 66  1  0
 15 67  1  0
 15104  1  0
 17 16  1  6
 16 68  1  0
 16 69  1  0
 17 33  1  0
 17 49  1  0
 17 18  1  0
 18 37  1  0
 18 19  1  0
 18 70  1  1
 19 20  1  0
 19 71  1  0
 19 72  1  0
 20 21  1  0
 20 73  1  0
 20 74  1  0
 21 24  1  0
 21 22  1  1
 21 23  1  0
 22 75  1  0
 22 76  1  0
 22 77  1  0
 23 24  1  0
 24 25  1  0
 24 78  1  6
 25 31  1  0
 25 26  1  0
 25 79  1  1
 26 27  1  0
 26 28  1  0
 26 29  1  0
 27 80  1  0
 27 81  1  0
 27 82  1  0
 28 83  1  0
 28 84  1  0
 28 85  1  0
 29 30  2  0
 29 31  1  0
 31 32  1  6
 31 33  1  0
 32 86  1  0
 33 34  1  1
 33 35  1  0
 34 87  1  0
 35 36  1  1
 37 35  1  1
 35 39  1  0
 36 88  1  0
 36 89  1  0
 36 90  1  0
 37 38  2  0
 39 40  1  1
 39 41  1  0
 39 44  1  0
 40 91  1  0
 41 42  1  0
 41 43  1  0
 41 92  1  0
 42 93  1  0
 42 94  1  0
 42 95  1  0
 43 96  1  0
 43 97  1  0
 43 98  1  0
 44 45  1  0
 44 49  1  0
 44 99  1  6
 45 46  1  0
 46 47  1  0
 46 48  2  0
 47100  1  0
 47101  1  0
 47102  1  0
 49 50  1  6
 50103  1  0
M  CHG  1  15   1
M  END
>  <i_m_ct_stereo_status>  (84) 
1

>  <s_m_source_file>  (84) 
/var/tmp/pbs.5075288.sched01/tmpeqwi9iw0/66la8jmv2o.sdf

>  <i_m_source_file_index>  (84) 
54

>  <i_lp_mmshare_version>  (84) 
48012

>  <i_f3d_flags>  (84) 
0

>  <s_epik_input>  (84) 
W05IMl1bQ0gyXUMoPU8pT1tDSDJdW0NAQF0oW0NIM10pKFtDSDJdMSlbQ0gyXVtDSDJdW0NAQEhdKE9DKD1PKVtDSDNdKVtDQF0yKFtPSF0pW0NASF0oT0MoPU8pW0NIM10pW0NAXShbT0hdKShbQ0hdKFtDSDNdKVtDSDNdKVtDQEBdKFtDSDNdKShbUytdM1tPLV0pW0NAQF00KFtPSF0pW0NAQF0oW09IXSkoQyg9TylDNShbQ0gzXSlbQ0gzXSlbQ0BIXTVbQ0BIXShPNilbQ0BdNihbQ0gzXSlbQ0gyXVtDSDJdW0NAQEhdM1tDQEBdMTI0

>  <s_epik_cmdline>  (84) 
J2VwaWtfcHl0aG9uJywgJy1waHQnLCAnMi4wJywgJy1waCcsICc3LjAnLCAnLXRuJywgJzgnLCAnLW1hJywgJzIwMCcsICctaW1hZScsICc8aW5maWxlLm1hZT4nLCAnLW9tYWUnLCAnPG91dGZpbGUubWFlPic=

>  <r_epik_Ionization_Penalty>  (84) 
0.27377

>  <r_epik_Ionization_Penalty_Charging>  (84) 
0.273769

>  <r_epik_Ionization_Penalty_Neutral>  (84) 
6.96095e-07

>  <r_epik_State_Penalty>  (84) 
0.266031

>  <r_epik_Charging_Adjusted_Penalty>  (84) 
0.539801

>  <i_epik_Tot_Q>  (84) 
1

>  <i_epik_Tot_abs_Q>  (84) 
3

>  <s_epik_Chemistry_Notes>  (84) 
This compound has an ester and may undergo hydrolysis at high or low pH.

>  <s_lp_Force_Field>  (84) 
OPLS3e

>  <r_lp_Energy>  (84) 
149.911

>  <b_lp_Chiralities_Consistent>  (84) 
1

>  <s_lp_Variant>  (84) 
59:0-1

>  <s_i_glide_gridfile>  (84) 
pfpi4k_grid

>  <i_i_glide_lignum>  (84) 
54

>  <i_i_glide_rotatable_bonds>  (84) 
13

>  <r_i_docking_score>  (84) 
-3.63705

>  <r_i_glide_ligand_efficiency>  (84) 
-0.0727411

>  <r_i_glide_ligand_efficiency_sa>  (84) 
-0.26798

>  <r_i_glide_ligand_efficiency_ln>  (84) 
-0.740439

>  <r_i_glide_gscore>  (84) 
-3.63705

>  <r_i_glide_lipo>  (84) 
-0.0666513

>  <r_i_glide_hbond>  (84) 
-0.357257

>  <r_i_glide_metal>  (84) 
-0

>  <r_i_glide_rewards>  (84) 
-0.500268

>  <r_i_glide_evdw>  (84) 
-20.9424

>  <r_i_glide_ecoul>  (84) 
-10.2429

>  <r_i_glide_erotb>  (84) 
0.0171395

>  <r_i_glide_esite>  (84) 
-0.146464

>  <r_i_glide_emodel>  (84) 
-34.3987

>  <r_i_glide_energy>  (84) 
-31.1852

>  <r_i_glide_einternal>  (84) 
16.3998

>  <r_i_glide_intrahb_reward>  (84) 
-0.5

>  <i_i_glide_confnum>  (84) 
1

>  <i_i_glide_posenum>  (84) 
2

>  <r_i_glide_eff_state_penalty>  (84) 
0

>  <ligand_id>  (84) 
59

>  <original_smiles>  (84) 
CC(=O)OC1CCC(C)(COC(=O)CN)CC23C4CCC5(C)OC5C5C(C)(C)C(=O)C5(O)C2(O)C(C)([S+]4[O-])C(O)(C(C)C)C(OC(C)=O)C13O

>  <smiles>  (84) 
[H]OC12C(=O)C(C([H])([H])[H])(C([H])([H])[H])C1([H])C1([H])OC1(C([H])([H])[H])C([H])([H])C([H])([H])C1([H])S(=O)C3(C([H])([H])[H])C(O[H])(C([H])(C([H])([H])[H])C([H])([H])[H])C([H])(OC(=O)C([H])([H])[H])C4(O[H])C([H])(OC(=O)C([H])([H])[H])C([H])([H])C([H])([H])C(C([H])([H])[H])(C([H])([H])OC(=O)C([H])([H])[N+]([H])([H])[H])C([H])([H])C14C23O[H]

$$$$
59:0:2
     RDKit          3D

104109  0  0  1  0  0  0  0  0999 V2000
    4.7078   -7.8683    4.9149 C   0  0  0  0  0  0  0  0  0  0  0  0
    4.9740   -6.3843    4.6983 C   0  0  0  0  0  0  0  0  0  0  0  0
    6.1019   -5.9175    4.8625 O   0  0  0  0  0  0  0  0  0  0  0  0
    3.8504   -5.6762    4.3572 O   0  0  0  0  0  0  0  0  0  0  0  0
    3.8306   -4.2652    4.0992 C   0  0  2  0  0  0  0  0  0  0  0  0
    4.7394   -4.1328    2.7967 C   0  0  0  0  0  0  0  0  0  0  0  0
    5.2676   -2.7379    2.4211 C   0  0  0  0  0  0  0  0  0  0  0  0
    4.3070   -1.5581    2.5677 C   0  0  1  0  0  0  0  0  0  0  0  0
    4.9721   -0.3786    1.8075 C   0  0  0  0  0  0  0  0  0  0  0  0
    2.9617   -1.8705    1.8643 C   0  0  0  0  0  0  0  0  0  0  0  0
    3.1328   -2.0785    0.4632 O   0  0  0  0  0  0  0  0  0  0  0  0
    3.0216   -3.2870   -0.0827 C   0  0  0  0  0  0  0  0  0  0  0  0
    2.6322   -4.2845    0.4899 O   0  0  0  0  0  0  0  0  0  0  0  0
    3.3202   -3.2533   -1.5939 C   0  0  0  0  0  0  0  0  0  0  0  0
    2.0577   -3.0612   -2.3284 N   0  0  0  0  0  0  0  0  0  0  0  0
    4.3070   -1.0980    4.0698 C   0  0  0  0  0  0  0  0  0  0  0  0
    3.5198   -1.7324    5.2874 C   0  0  1  0  0  0  0  0  0  0  0  0
    4.1027   -0.9906    6.6001 C   0  0  1  0  0  0  0  0  0  0  0  0
    5.0246    0.3099    6.6093 C   0  0  0  0  0  0  0  0  0  0  0  0
    4.5146    1.7407    6.9413 C   0  0  0  0  0  0  0  0  0  0  0  0
    3.3832    2.2257    6.0804 C   0  0  2  0  0  0  0  0  0  0  0  0
    3.7896    2.6157    4.6700 C   0  0  0  0  0  0  0  0  0  0  0  0
    2.5073    3.2858    6.4877 O   0  0  0  0  0  0  0  0  0  0  0  0
    2.0412    1.9662    6.7678 C   0  0  1  0  0  0  0  0  0  0  0  0
    1.0320    1.1488    6.0206 C   0  0  1  0  0  0  0  0  0  0  0  0
   -0.2015    1.6719    5.2728 C   0  0  0  0  0  0  0  0  0  0  0  0
   -1.4574    1.9444    6.1098 C   0  0  0  0  0  0  0  0  0  0  0  0
    0.0087    2.8215    4.2746 C   0  0  0  0  0  0  0  0  0  0  0  0
   -0.1931    0.2402    4.6286 C   0  0  0  0  0  0  0  0  0  0  0  0
   -1.0734   -0.4773    4.1766 O   0  0  0  0  0  0  0  0  0  0  0  0
    1.3276    0.0180    4.9738 C   0  0  1  0  0  0  0  0  0  0  0  0
    1.9449    0.4031    3.7721 O   0  0  0  0  0  0  0  0  0  0  0  0
    1.8914   -1.4680    5.3916 C   0  0  1  0  0  0  0  0  0  0  0  0
    1.3117   -2.2804    4.4258 O   0  0  0  0  0  0  0  0  0  0  0  0
    1.5237   -1.9822    6.8576 C   0  0  2  0  0  0  0  0  0  0  0  0
    0.1330   -1.6356    7.4672 C   0  0  0  0  0  0  0  0  0  0  0  0
    2.7422   -0.9585    7.8714 S   0  0  0  0  0  0  0  0  0  0  0  0
    3.2213   -1.6940    9.0951 O   0  0  0  0  0  0  0  0  0  0  0  0
    1.7963   -3.5401    7.0779 C   0  0  1  0  0  0  0  0  0  0  0  0
    1.7898   -3.6884    8.5045 O   0  0  0  0  0  0  0  0  0  0  0  0
    0.6110   -4.5360    6.5994 C   0  0  0  0  0  0  0  0  0  0  0  0
    0.3503   -5.7515    7.5399 C   0  0  0  0  0  0  0  0  0  0  0  0
    0.5742   -5.0892    5.1495 C   0  0  0  0  0  0  0  0  0  0  0  0
    3.2911   -3.8809    6.7343 C   0  0  1  0  0  0  0  0  0  0  0  0
    3.5011   -5.2701    7.0036 O   0  0  0  0  0  0  0  0  0  0  0  0
    4.5028   -5.7582    7.7984 C   0  0  0  0  0  0  0  0  0  0  0  0
    5.4638   -4.7342    8.4081 C   0  0  0  0  0  0  0  0  0  0  0  0
    4.6571   -6.9662    8.0107 O   0  0  0  0  0  0  0  0  0  0  0  0
    3.9316   -3.3071    5.4013 C   0  0  1  0  0  0  0  0  0  0  0  0
    5.3382   -3.2751    5.5622 O   0  0  0  0  0  0  0  0  0  0  0  0
    4.4581   -8.3866    3.9837 H   0  0  0  0  0  0  0  0  0  0  0  0
    3.9047   -7.9860    5.6428 H   0  0  0  0  0  0  0  0  0  0  0  0
    5.6094   -8.3100    5.3372 H   0  0  0  0  0  0  0  0  0  0  0  0
    2.8280   -4.1127    3.7465 H   0  0  0  0  0  0  0  0  0  0  0  0
    5.7303   -4.6097    2.9858 H   0  0  0  0  0  0  0  0  0  0  0  0
    4.2569   -4.6095    2.0048 H   0  0  0  0  0  0  0  0  0  0  0  0
    6.1950   -2.4822    2.9483 H   0  0  0  0  0  0  0  0  0  0  0  0
    5.5825   -2.8320    1.3892 H   0  0  0  0  0  0  0  0  0  0  0  0
    4.3427    0.5198    1.8018 H   0  0  0  0  0  0  0  0  0  0  0  0
    5.1868   -0.6229    0.7644 H   0  0  0  0  0  0  0  0  0  0  0  0
    5.9338   -0.1060    2.2560 H   0  0  0  0  0  0  0  0  0  0  0  0
    2.4574   -2.7199    2.3152 H   0  0  0  0  0  0  0  0  0  0  0  0
    2.2780   -1.0416    1.9538 H   0  0  0  0  0  0  0  0  0  0  0  0
    4.0431   -2.4577   -1.8545 H   0  0  0  0  0  0  0  0  0  0  0  0
    3.7679   -4.1841   -1.8994 H   0  0  0  0  0  0  0  0  0  0  0  0
    2.2004   -3.0287   -3.3261 H   0  0  0  0  0  0  0  0  0  0  0  0
    1.6423   -2.1699   -2.0033 H   0  0  0  0  0  0  0  0  0  0  0  0
    5.3645   -1.1345    4.3474 H   0  0  0  0  0  0  0  0  0  0  0  0
    4.1793   -0.0282    4.0982 H   0  0  0  0  0  0  0  0  0  0  0  0
    4.7989   -1.6446    7.1231 H   0  0  0  0  0  0  0  0  0  0  0  0
    5.7694    0.1253    7.3882 H   0  0  0  0  0  0  0  0  0  0  0  0
    5.6535    0.3750    5.7254 H   0  0  0  0  0  0  0  0  0  0  0  0
    4.2059    1.7659    7.9849 H   0  0  0  0  0  0  0  0  0  0  0  0
    5.3379    2.4523    6.8594 H   0  0  0  0  0  0  0  0  0  0  0  0
    4.5363    1.9517    4.2387 H   0  0  0  0  0  0  0  0  0  0  0  0
    4.2432    3.6098    4.7022 H   0  0  0  0  0  0  0  0  0  0  0  0
    2.9325    2.6989    4.0099 H   0  0  0  0  0  0  0  0  0  0  0  0
    2.0263    1.7933    7.8382 H   0  0  0  0  0  0  0  0  0  0  0  0
    0.5774    0.6508    6.8634 H   0  0  0  0  0  0  0  0  0  0  0  0
   -1.2708    2.7588    6.8073 H   0  0  0  0  0  0  0  0  0  0  0  0
   -1.7632    1.0767    6.6955 H   0  0  0  0  0  0  0  0  0  0  0  0
   -2.3024    2.2335    5.4826 H   0  0  0  0  0  0  0  0  0  0  0  0
    0.4171    3.6816    4.7991 H   0  0  0  0  0  0  0  0  0  0  0  0
   -0.9282    3.1378    3.8059 H   0  0  0  0  0  0  0  0  0  0  0  0
    0.7047    2.5710    3.4780 H   0  0  0  0  0  0  0  0  0  0  0  0
    2.8592    0.5317    3.9608 H   0  0  0  0  0  0  0  0  0  0  0  0
    1.5895   -1.9093    3.6086 H   0  0  0  0  0  0  0  0  0  0  0  0
   -0.6055   -1.4243    6.6999 H   0  0  0  0  0  0  0  0  0  0  0  0
    0.1785   -0.8152    8.1822 H   0  0  0  0  0  0  0  0  0  0  0  0
   -0.2758   -2.4444    8.0709 H   0  0  0  0  0  0  0  0  0  0  0  0
    2.4819   -3.1314    8.8606 H   0  0  0  0  0  0  0  0  0  0  0  0
   -0.3302   -3.9905    6.6717 H   0  0  0  0  0  0  0  0  0  0  0  0
    1.1711   -6.4731    7.5325 H   0  0  0  0  0  0  0  0  0  0  0  0
   -0.5435   -6.2759    7.2036 H   0  0  0  0  0  0  0  0  0  0  0  0
    0.1406   -5.4776    8.5788 H   0  0  0  0  0  0  0  0  0  0  0  0
    1.4090   -5.7730    4.9673 H   0  0  0  0  0  0  0  0  0  0  0  0
    0.4997   -4.3674    4.3602 H   0  0  0  0  0  0  0  0  0  0  0  0
   -0.3334   -5.7052    5.0637 H   0  0  0  0  0  0  0  0  0  0  0  0
    3.8380   -3.3754    7.5296 H   0  0  0  0  0  0  0  0  0  0  0  0
    5.8111   -4.0341    7.6479 H   0  0  0  0  0  0  0  0  0  0  0  0
    6.3421   -5.2250    8.8154 H   0  0  0  0  0  0  0  0  0  0  0  0
    4.9655   -4.1930    9.2181 H   0  0  0  0  0  0  0  0  0  0  0  0
    5.6593   -3.1404    4.6951 H   0  0  0  0  0  0  0  0  0  0  0  0
    1.4228   -3.7907   -2.0936 H   0  0  0  0  0  0  0  0  0  0  0  0
  1  2  1  0
  1 51  1  0
  1 52  1  0
  1 53  1  0
  2  3  2  0
  2  4  1  0
  4  5  1  0
  5 49  1  0
  5  6  1  0
  5 54  1  6
  6  7  1  0
  6 55  1  0
  6 56  1  0
  7  8  1  0
  7 57  1  0
  7 58  1  0
  8  9  1  6
  8 10  1  0
  8 16  1  0
  9 59  1  0
  9 60  1  0
  9 61  1  0
 10 11  1  0
 10 62  1  0
 10 63  1  0
 11 12  1  0
 12 13  2  0
 12 14  1  0
 14 15  1  0
 14 64  1  0
 14 65  1  0
 15 66  1  0
 15 67  1  0
 15104  1  0
 17 16  1  6
 16 68  1  0
 16 69  1  0
 17 33  1  0
 17 49  1  0
 17 18  1  0
 18 37  1  0
 18 19  1  0
 18 70  1  1
 19 20  1  0
 19 71  1  0
 19 72  1  0
 20 21  1  0
 20 73  1  0
 20 74  1  0
 21 24  1  0
 21 22  1  6
 21 23  1  0
 22 75  1  0
 22 76  1  0
 22 77  1  0
 23 24  1  0
 24 25  1  0
 24 78  1  1
 25 31  1  0
 25 26  1  0
 25 79  1  1
 26 27  1  0
 26 28  1  0
 26 29  1  0
 27 80  1  0
 27 81  1  0
 27 82  1  0
 28 83  1  0
 28 84  1  0
 28 85  1  0
 29 30  2  0
 29 31  1  0
 31 32  1  6
 31 33  1  0
 32 86  1  0
 33 34  1  6
 33 35  1  0
 34 87  1  0
 35 36  1  1
 37 35  1  6
 35 39  1  0
 36 88  1  0
 36 89  1  0
 36 90  1  0
 37 38  2  0
 39 40  1  1
 39 41  1  0
 39 44  1  0
 40 91  1  0
 41 42  1  0
 41 43  1  0
 41 92  1  0
 42 93  1  0
 42 94  1  0
 42 95  1  0
 43 96  1  0
 43 97  1  0
 43 98  1  0
 44 45  1  0
 44 49  1  0
 44 99  1  1
 45 46  1  0
 46 47  1  0
 46 48  2  0
 47100  1  0
 47101  1  0
 47102  1  0
 49 50  1  1
 50103  1  0
M  CHG  1  15   1
M  END
>  <i_m_ct_stereo_status>  (85) 
1

>  <s_m_source_file>  (85) 
/var/tmp/pbs.5075288.sched01/tmpeqwi9iw0/66la8jmv2o.sdf

>  <i_m_source_file_index>  (85) 
54

>  <i_lp_mmshare_version>  (85) 
48012

>  <i_f3d_flags>  (85) 
0

>  <s_epik_input>  (85) 
W05IMl1bQ0gyXUMoPU8pT1tDSDJdW0NAQF0oW0NIM10pKFtDSDJdMSlbQ0gyXVtDSDJdW0NAQEhdKE9DKD1PKVtDSDNdKVtDQF0yKFtPSF0pW0NASF0oT0MoPU8pW0NIM10pW0NAXShbT0hdKShbQ0hdKFtDSDNdKVtDSDNdKVtDQEBdKFtDSDNdKShbUytdM1tPLV0pW0NAQF00KFtPSF0pW0NAQF0oW09IXSkoQyg9TylDNShbQ0gzXSlbQ0gzXSlbQ0BIXTVbQ0BIXShPNilbQ0BdNihbQ0gzXSlbQ0gyXVtDSDJdW0NAQEhdM1tDQEBdMTI0

>  <s_epik_cmdline>  (85) 
J2VwaWtfcHl0aG9uJywgJy1waHQnLCAnMi4wJywgJy1waCcsICc3LjAnLCAnLXRuJywgJzgnLCAnLW1hJywgJzIwMCcsICctaW1hZScsICc8aW5maWxlLm1hZT4nLCAnLW9tYWUnLCAnPG91dGZpbGUubWFlPic=

>  <r_epik_Ionization_Penalty>  (85) 
0.27377

>  <r_epik_Ionization_Penalty_Charging>  (85) 
0.273769

>  <r_epik_Ionization_Penalty_Neutral>  (85) 
6.96095e-07

>  <r_epik_State_Penalty>  (85) 
0.266031

>  <r_epik_Charging_Adjusted_Penalty>  (85) 
0.539801

>  <i_epik_Tot_Q>  (85) 
1

>  <i_epik_Tot_abs_Q>  (85) 
3

>  <s_epik_Chemistry_Notes>  (85) 
This compound has an ester and may undergo hydrolysis at high or low pH.

>  <s_lp_Force_Field>  (85) 
OPLS3e

>  <r_lp_Energy>  (85) 
149.911

>  <b_lp_Chiralities_Consistent>  (85) 
1

>  <s_lp_Variant>  (85) 
59:0-1

>  <s_i_glide_gridfile>  (85) 
pfpi4k_grid

>  <i_i_glide_lignum>  (85) 
54

>  <i_i_glide_rotatable_bonds>  (85) 
13

>  <r_i_docking_score>  (85) 
-2.96991

>  <r_i_glide_ligand_efficiency>  (85) 
-0.0593983

>  <r_i_glide_ligand_efficiency_sa>  (85) 
-0.218825

>  <r_i_glide_ligand_efficiency_ln>  (85) 
-0.604621

>  <r_i_glide_gscore>  (85) 
-2.96991

>  <r_i_glide_lipo>  (85) 
-0.32051

>  <r_i_glide_hbond>  (85) 
-0.2

>  <r_i_glide_metal>  (85) 
-0

>  <r_i_glide_rewards>  (85) 
-0.5

>  <r_i_glide_evdw>  (85) 
-24.1489

>  <r_i_glide_ecoul>  (85) 
-5.00962

>  <r_i_glide_erotb>  (85) 
0.0171395

>  <r_i_glide_esite>  (85) 
-0.0196611

>  <r_i_glide_emodel>  (85) 
-31.5126

>  <r_i_glide_energy>  (85) 
-29.1585

>  <r_i_glide_einternal>  (85) 
13.9361

>  <r_i_glide_intrahb_reward>  (85) 
-0.5

>  <i_i_glide_confnum>  (85) 
2

>  <i_i_glide_posenum>  (85) 
36

>  <r_i_glide_eff_state_penalty>  (85) 
0

>  <ligand_id>  (85) 
59

>  <original_smiles>  (85) 
CC(=O)OC1CCC(C)(COC(=O)CN)CC23C4CCC5(C)OC5C5C(C)(C)C(=O)C5(O)C2(O)C(C)([S+]4[O-])C(O)(C(C)C)C(OC(C)=O)C13O

>  <smiles>  (85) 
[H]OC12C(=O)C(C([H])([H])[H])(C([H])([H])[H])C1([H])C1([H])OC1(C([H])([H])[H])C([H])([H])C([H])([H])C1([H])S(=O)C3(C([H])([H])[H])C(O[H])(C([H])(C([H])([H])[H])C([H])([H])[H])C([H])(OC(=O)C([H])([H])[H])C4(O[H])C([H])(OC(=O)C([H])([H])[H])C([H])([H])C([H])([H])C(C([H])([H])[H])(C([H])([H])OC(=O)C([H])([H])[N+]([H])([H])[H])C([H])([H])C14C23O[H]

$$$$
59:1:0
     RDKit          3D

103108  0  0  1  0  0  0  0  0999 V2000
    0.6119   -8.6848    2.4709 C   0  0  0  0  0  0  0  0  0  0  0  0
    0.9988   -7.2152    2.3413 C   0  0  0  0  0  0  0  0  0  0  0  0
    0.2967   -6.4165    1.7202 O   0  0  0  0  0  0  0  0  0  0  0  0
    2.1145   -6.9152    3.0732 O   0  0  0  0  0  0  0  0  0  0  0  0
    2.6615   -5.5905    3.1819 C   0  0  2  0  0  0  0  0  0  0  0  0
    3.6790   -5.6721    2.0087 C   0  0  0  0  0  0  0  0  0  0  0  0
    4.7411   -4.5845    1.7986 C   0  0  0  0  0  0  0  0  0  0  0  0
    4.4196   -3.1578    2.2887 C   0  0  1  0  0  0  0  0  0  0  0  0
    5.5498   -2.2261    1.7492 C   0  0  0  0  0  0  0  0  0  0  0  0
    3.0716   -2.6395    1.6902 C   0  0  0  0  0  0  0  0  0  0  0  0
    3.1302   -2.5237    0.2599 O   0  0  0  0  0  0  0  0  0  0  0  0
    2.5796   -3.4428   -0.5713 C   0  0  0  0  0  0  0  0  0  0  0  0
    1.9293   -4.3947   -0.3022 O   0  0  0  0  0  0  0  0  0  0  0  0
    2.6917   -3.0180   -2.0396 C   0  0  0  0  0  0  0  0  0  0  0  0
    3.9269   -3.4326   -2.6543 N   0  0  0  0  0  0  0  0  0  0  0  0
    4.6020   -3.1457    3.8493 C   0  0  0  0  0  0  0  0  0  0  0  0
    3.6030   -3.6606    4.9595 C   0  0  1  0  0  0  0  0  0  0  0  0
    4.4545   -3.6363    6.3330 C   0  0  1  0  0  0  0  0  0  0  0  0
    5.8568   -2.9115    6.5468 C   0  0  0  0  0  0  0  0  0  0  0  0
    6.0503   -1.5354    7.2512 C   0  0  0  0  0  0  0  0  0  0  0  0
    5.2844   -0.3917    6.6456 C   0  0  2  0  0  0  0  0  0  0  0  0
    5.8306    0.1404    5.3318 C   0  0  0  0  0  0  0  0  0  0  0  0
    4.9500    0.8074    7.3790 O   0  0  0  0  0  0  0  0  0  0  0  0
    3.9456   -0.2164    7.3918 C   0  0  1  0  0  0  0  0  0  0  0  0
    2.6941   -0.2598    6.5931 C   0  0  1  0  0  0  0  0  0  0  0  0
    1.8243    0.9170    6.1323 C   0  0  0  0  0  0  0  0  0  0  0  0
    0.8468    1.4952    7.1611 C   0  0  0  0  0  0  0  0  0  0  0  0
    2.5625    2.0733    5.4395 C   0  0  0  0  0  0  0  0  0  0  0  0
    1.1869   -0.1726    5.1826 C   0  0  0  0  0  0  0  0  0  0  0  0
    0.0903   -0.2914    4.6578 O   0  0  0  0  0  0  0  0  0  0  0  0
    2.4462   -1.1098    5.2990 C   0  0  1  0  0  0  0  0  0  0  0  0
    3.1845   -0.7073    4.1679 O   0  0  0  0  0  0  0  0  0  0  0  0
    2.2911   -2.7427    5.2974 C   0  0  1  0  0  0  0  0  0  0  0  0
    1.3437   -2.9643    4.2686 O   0  0  0  0  0  0  0  0  0  0  0  0
    1.7173   -3.3985    6.6460 C   0  0  2  0  0  0  0  0  0  0  0  0
    0.6702   -2.6051    7.4591 C   0  0  0  0  0  0  0  0  0  0  0  0
    3.2610   -3.2960    7.7035 S   0  0  0  0  0  0  0  0  0  0  0  0
    3.3309   -4.4314    8.7195 O   0  0  0  0  0  0  0  0  0  0  0  0
    1.2223   -4.9259    6.4983 C   0  0  1  0  0  0  0  0  0  0  0  0
    1.1679   -5.4855    7.8081 O   0  0  0  0  0  0  0  0  0  0  0  0
   -0.3075   -5.0622    5.9578 C   0  0  0  0  0  0  0  0  0  0  0  0
   -1.4879   -4.9936    6.9730 C   0  0  0  0  0  0  0  0  0  0  0  0
   -0.6600   -6.3127    5.1462 C   0  0  0  0  0  0  0  0  0  0  0  0
    2.3863   -5.8053    5.8624 C   0  0  1  0  0  0  0  0  0  0  0  0
    1.9628   -7.1683    5.6716 O   0  0  0  0  0  0  0  0  0  0  0  0
    2.5452   -8.2066    6.3049 C   0  0  0  0  0  0  0  0  0  0  0  0
    1.8540   -9.5359    6.0154 C   0  0  0  0  0  0  0  0  0  0  0  0
    3.5163   -8.1442    7.0574 O   0  0  0  0  0  0  0  0  0  0  0  0
    3.2130   -5.2203    4.6451 C   0  0  1  0  0  0  0  0  0  0  0  0
    4.4499   -5.9291    4.6582 O   0  0  0  0  0  0  0  0  0  0  0  0
    0.3964   -8.9201    3.5111 H   0  0  0  0  0  0  0  0  0  0  0  0
    1.4132   -9.3398    2.1319 H   0  0  0  0  0  0  0  0  0  0  0  0
   -0.2897   -8.9054    1.9008 H   0  0  0  0  0  0  0  0  0  0  0  0
    1.8533   -4.9042    2.9531 H   0  0  0  0  0  0  0  0  0  0  0  0
    4.1940   -6.6382    1.9783 H   0  0  0  0  0  0  0  0  0  0  0  0
    3.0599   -5.7405    1.1316 H   0  0  0  0  0  0  0  0  0  0  0  0
    5.6879   -4.9071    2.2287 H   0  0  0  0  0  0  0  0  0  0  0  0
    4.9535   -4.5322    0.7348 H   0  0  0  0  0  0  0  0  0  0  0  0
    5.4049   -1.1735    2.0247 H   0  0  0  0  0  0  0  0  0  0  0  0
    5.6292   -2.2522    0.6605 H   0  0  0  0  0  0  0  0  0  0  0  0
    6.5346   -2.5175    2.1208 H   0  0  0  0  0  0  0  0  0  0  0  0
    2.2317   -3.2431    1.9865 H   0  0  0  0  0  0  0  0  0  0  0  0
    2.8450   -1.6431    2.0763 H   0  0  0  0  0  0  0  0  0  0  0  0
    1.8631   -3.5423   -2.5303 H   0  0  0  0  0  0  0  0  0  0  0  0
    2.5055   -1.9478   -2.1311 H   0  0  0  0  0  0  0  0  0  0  0  0
    3.9331   -4.4509   -2.6726 H   0  0  0  0  0  0  0  0  0  0  0  0
    3.8784   -3.1525   -3.6243 H   0  0  0  0  0  0  0  0  0  0  0  0
    5.5164   -3.7212    3.9925 H   0  0  0  0  0  0  0  0  0  0  0  0
    4.9572   -2.1743    4.1405 H   0  0  0  0  0  0  0  0  0  0  0  0
    4.7491   -4.6517    6.5756 H   0  0  0  0  0  0  0  0  0  0  0  0
    6.4308   -3.5956    7.1712 H   0  0  0  0  0  0  0  0  0  0  0  0
    6.4547   -2.8996    5.6466 H   0  0  0  0  0  0  0  0  0  0  0  0
    5.7862   -1.6412    8.3028 H   0  0  0  0  0  0  0  0  0  0  0  0
    7.1090   -1.2683    7.2559 H   0  0  0  0  0  0  0  0  0  0  0  0
    6.1940   -0.6418    4.6697 H   0  0  0  0  0  0  0  0  0  0  0  0
    6.6892    0.7825    5.5375 H   0  0  0  0  0  0  0  0  0  0  0  0
    5.1118    0.7603    4.8050 H   0  0  0  0  0  0  0  0  0  0  0  0
    3.8489   -0.6194    8.3945 H   0  0  0  0  0  0  0  0  0  0  0  0
    2.0498   -0.6722    7.3499 H   0  0  0  0  0  0  0  0  0  0  0  0
    1.3969    1.9353    7.9938 H   0  0  0  0  0  0  0  0  0  0  0  0
    0.1823    0.7401    7.5860 H   0  0  0  0  0  0  0  0  0  0  0  0
    0.2240    2.2855    6.7397 H   0  0  0  0  0  0  0  0  0  0  0  0
    3.3091    2.4865    6.1170 H   0  0  0  0  0  0  0  0  0  0  0  0
    1.8936    2.8934    5.1734 H   0  0  0  0  0  0  0  0  0  0  0  0
    3.0889    1.7759    4.5394 H   0  0  0  0  0  0  0  0  0  0  0  0
    4.0094   -1.1367    4.2211 H   0  0  0  0  0  0  0  0  0  0  0  0
    0.5838   -2.4353    4.4379 H   0  0  0  0  0  0  0  0  0  0  0  0
    0.0663   -1.9377    6.8498 H   0  0  0  0  0  0  0  0  0  0  0  0
    1.0837   -2.0645    8.3075 H   0  0  0  0  0  0  0  0  0  0  0  0
    0.0278   -3.2604    8.0159 H   0  0  0  0  0  0  0  0  0  0  0  0
    2.0339   -5.4020    8.1957 H   0  0  0  0  0  0  0  0  0  0  0  0
   -0.4520   -4.2499    5.2496 H   0  0  0  0  0  0  0  0  0  0  0  0
   -1.3946   -5.7992    7.7069 H   0  0  0  0  0  0  0  0  0  0  0  0
   -2.4366   -5.1589    6.4642 H   0  0  0  0  0  0  0  0  0  0  0  0
   -1.6677   -4.0449    7.4753 H   0  0  0  0  0  0  0  0  0  0  0  0
   -0.5691   -7.2522    5.6886 H   0  0  0  0  0  0  0  0  0  0  0  0
    0.0204   -6.3002    4.3262 H   0  0  0  0  0  0  0  0  0  0  0  0
   -1.6613   -6.3079    4.7072 H   0  0  0  0  0  0  0  0  0  0  0  0
    3.1374   -5.8701    6.6609 H   0  0  0  0  0  0  0  0  0  0  0  0
    0.7732   -9.4500    6.1295 H   0  0  0  0  0  0  0  0  0  0  0  0
    2.2029  -10.3071    6.7032 H   0  0  0  0  0  0  0  0  0  0  0  0
    2.0708   -9.8650    5.0005 H   0  0  0  0  0  0  0  0  0  0  0  0
    4.9414   -5.6671    3.9131 H   0  0  0  0  0  0  0  0  0  0  0  0
  1  2  1  0
  1 51  1  0
  1 52  1  0
  1 53  1  0
  2  3  2  0
  2  4  1  0
  4  5  1  0
  5 49  1  0
  5  6  1  0
  5 54  1  6
  6  7  1  0
  6 55  1  0
  6 56  1  0
  7  8  1  0
  7 57  1  0
  7 58  1  0
  8  9  1  6
  8 10  1  0
  8 16  1  0
  9 59  1  0
  9 60  1  0
  9 61  1  0
 10 11  1  0
 10 62  1  0
 10 63  1  0
 11 12  1  0
 12 13  2  0
 12 14  1  0
 14 15  1  0
 14 64  1  0
 14 65  1  0
 15 66  1  0
 15 67  1  0
 17 16  1  6
 16 68  1  0
 16 69  1  0
 17 33  1  0
 17 49  1  0
 17 18  1  0
 18 37  1  0
 18 19  1  0
 18 70  1  1
 19 20  1  0
 19 71  1  0
 19 72  1  0
 20 21  1  0
 20 73  1  0
 20 74  1  0
 21 24  1  0
 21 22  1  6
 21 23  1  0
 22 75  1  0
 22 76  1  0
 22 77  1  0
 23 24  1  0
 24 25  1  0
 24 78  1  1
 25 31  1  0
 25 26  1  0
 25 79  1  1
 26 27  1  0
 26 28  1  0
 26 29  1  0
 27 80  1  0
 27 81  1  0
 27 82  1  0
 28 83  1  0
 28 84  1  0
 28 85  1  0
 29 30  2  0
 29 31  1  0
 31 32  1  6
 31 33  1  0
 32 86  1  0
 33 34  1  6
 33 35  1  0
 34 87  1  0
 35 36  1  1
 37 35  1  6
 35 39  1  0
 36 88  1  0
 36 89  1  0
 36 90  1  0
 37 38  2  0
 39 40  1  1
 39 41  1  0
 39 44  1  0
 40 91  1  0
 41 42  1  0
 41 43  1  0
 41 92  1  0
 42 93  1  0
 42 94  1  0
 42 95  1  0
 43 96  1  0
 43 97  1  0
 43 98  1  0
 44 45  1  0
 44 49  1  0
 44 99  1  1
 45 46  1  0
 46 47  1  0
 46 48  2  0
 47100  1  0
 47101  1  0
 47102  1  0
 49 50  1  6
 50103  1  0
M  END
>  <i_m_ct_stereo_status>  (86) 
1

>  <s_m_source_file>  (86) 
/var/tmp/pbs.5075288.sched01/tmpeqwi9iw0/66la8jmv2o.sdf

>  <i_m_source_file_index>  (86) 
55

>  <i_lp_mmshare_version>  (86) 
48012

>  <i_f3d_flags>  (86) 
0

>  <s_epik_input>  (86) 
W05IMl1bQ0gyXUMoPU8pT1tDSDJdW0NAQF0oW0NIM10pKFtDSDJdMSlbQ0gyXVtDSDJdW0NAQEhdKE9DKD1PKVtDSDNdKVtDQF0yKFtPSF0pW0NASF0oT0MoPU8pW0NIM10pW0NAXShbT0hdKShbQ0hdKFtDSDNdKVtDSDNdKVtDQEBdKFtDSDNdKShbUytdM1tPLV0pW0NAQF00KFtPSF0pW0NAQF0oW09IXSkoQyg9TylDNShbQ0gzXSlbQ0gzXSlbQ0BIXTVbQ0BIXShPNilbQ0BdNihbQ0gzXSlbQ0gyXVtDSDJdW0NAQEhdM1tDQEBdMTI0

>  <s_epik_cmdline>  (86) 
J2VwaWtfcHl0aG9uJywgJy1waHQnLCAnMi4wJywgJy1waCcsICc3LjAnLCAnLXRuJywgJzgnLCAnLW1hJywgJzIwMCcsICctaW1hZScsICc8aW5maWxlLm1hZT4nLCAnLW9tYWUnLCAnPG91dGZpbGUubWFlPic=

>  <r_epik_Ionization_Penalty>  (86) 
0.589047

>  <r_epik_Ionization_Penalty_Charging>  (86) 
0

>  <r_epik_Ionization_Penalty_Neutral>  (86) 
0.589047

>  <r_epik_State_Penalty>  (86) 
0.602458

>  <r_epik_Charging_Adjusted_Penalty>  (86) 
0.602458

>  <i_epik_Tot_Q>  (86) 
0

>  <i_epik_Tot_abs_Q>  (86) 
2

>  <s_epik_Chemistry_Notes>  (86) 
This compound has an ester and may undergo hydrolysis at high or low pH.

>  <s_lp_Force_Field>  (86) 
OPLS3e

>  <r_lp_Energy>  (86) 
151.356

>  <b_lp_Chiralities_Consistent>  (86) 
1

>  <s_lp_Variant>  (86) 
59:0-2

>  <s_i_glide_gridfile>  (86) 
pfpi4k_grid

>  <i_i_glide_lignum>  (86) 
55

>  <i_i_glide_rotatable_bonds>  (86) 
13

>  <r_i_docking_score>  (86) 
-3.53055

>  <r_i_glide_ligand_efficiency>  (86) 
-0.070611

>  <r_i_glide_ligand_efficiency_sa>  (86) 
-0.260133

>  <r_i_glide_ligand_efficiency_ln>  (86) 
-0.718757

>  <r_i_glide_gscore>  (86) 
-3.53055

>  <r_i_glide_lipo>  (86) 
-0.316652

>  <r_i_glide_hbond>  (86) 
-0.539595

>  <r_i_glide_metal>  (86) 
-0

>  <r_i_glide_rewards>  (86) 
-0.5

>  <r_i_glide_evdw>  (86) 
-26.3346

>  <r_i_glide_ecoul>  (86) 
-5.32074

>  <r_i_glide_erotb>  (86) 
0.0180038

>  <r_i_glide_esite>  (86) 
-0.0774689

>  <r_i_glide_emodel>  (86) 
-39.5736

>  <r_i_glide_energy>  (86) 
-31.6553

>  <r_i_glide_einternal>  (86) 
3.42982

>  <r_i_glide_intrahb_reward>  (86) 
-0.5

>  <i_i_glide_confnum>  (86) 
2

>  <i_i_glide_posenum>  (86) 
22

>  <r_i_glide_eff_state_penalty>  (86) 
0

>  <ligand_id>  (86) 
59

>  <original_smiles>  (86) 
CC(=O)OC1CCC(C)(COC(=O)CN)CC23C4CCC5(C)OC5C5C(C)(C)C(=O)C5(O)C2(O)C(C)([S+]4[O-])C(O)(C(C)C)C(OC(C)=O)C13O

>  <smiles>  (86) 
[H]OC12C(=O)C(C([H])([H])[H])(C([H])([H])[H])C1([H])C1([H])OC1(C([H])([H])[H])C([H])([H])C([H])([H])C1([H])S(=O)C3(C([H])([H])[H])C(O[H])(C([H])(C([H])([H])[H])C([H])([H])[H])C([H])(OC(=O)C([H])([H])[H])C4(O[H])C([H])(OC(=O)C([H])([H])[H])C([H])([H])C([H])([H])C(C([H])([H])[H])(C([H])([H])OC(=O)C([H])([H])N([H])[H])C([H])([H])C14C23O[H]

$$$$
59:1:1
     RDKit          3D

103108  0  0  1  0  0  0  0  0999 V2000
    0.3784   -9.1660    2.5611 C   0  0  0  0  0  0  0  0  0  0  0  0
    0.7490   -7.7263    2.2887 C   0  0  0  0  0  0  0  0  0  0  0  0
   -0.0392   -6.9166    1.7331 O   0  0  0  0  0  0  0  0  0  0  0  0
    1.9462   -7.3568    2.8197 O   0  0  0  0  0  0  0  0  0  0  0  0
    2.4622   -6.0149    2.7858 C   0  0  2  0  0  0  0  0  0  0  0  0
    3.3905   -6.1494    1.5345 C   0  0  0  0  0  0  0  0  0  0  0  0
    4.5103   -5.1435    1.2590 C   0  0  0  0  0  0  0  0  0  0  0  0
    4.2249   -3.6878    1.6420 C   0  0  1  0  0  0  0  0  0  0  0  0
    5.3552   -2.8277    0.9965 C   0  0  0  0  0  0  0  0  0  0  0  0
    2.8610   -3.2274    1.0406 C   0  0  0  0  0  0  0  0  0  0  0  0
    3.0320   -2.8399   -0.3279 O   0  0  0  0  0  0  0  0  0  0  0  0
    2.3207   -3.4065   -1.2964 C   0  0  0  0  0  0  0  0  0  0  0  0
    1.4157   -4.2557   -1.1176 O   0  0  0  0  0  0  0  0  0  0  0  0
    2.7431   -3.0007   -2.7028 C   0  0  0  0  0  0  0  0  0  0  0  0
    4.0841   -3.4510   -3.0196 N   0  0  0  0  0  0  0  0  0  0  0  0
    4.4387   -3.5419    3.1806 C   0  0  0  0  0  0  0  0  0  0  0  0
    3.4597   -3.9437    4.3554 C   0  0  1  0  0  0  0  0  0  0  0  0
    4.3342   -3.7750    5.7044 C   0  0  1  0  0  0  0  0  0  0  0  0
    5.7263   -3.0253    5.8239 C   0  0  0  0  0  0  0  0  0  0  0  0
    5.9463   -1.5815    6.3761 C   0  0  0  0  0  0  0  0  0  0  0  0
    5.1666   -0.5009    5.6744 C   0  0  2  0  0  0  0  0  0  0  0  0
    5.6845   -0.1117    4.2974 C   0  0  0  0  0  0  0  0  0  0  0  0
    4.8544    0.7548    6.2856 O   0  0  0  0  0  0  0  0  0  0  0  0
    3.8626   -0.2512    6.4233 C   0  0  1  0  0  0  0  0  0  0  0  0
    2.5748   -0.3860    5.6572 C   0  0  1  0  0  0  0  0  0  0  0  0
    1.7004    0.7377    5.1061 C   0  0  0  0  0  0  0  0  0  0  0  0
    0.7327    1.4106    6.0899 C   0  0  0  0  0  0  0  0  0  0  0  0
    2.4005    1.8168    4.2770 C   0  0  0  0  0  0  0  0  0  0  0  0
    1.0462   -0.4433    4.2954 C   0  0  0  0  0  0  0  0  0  0  0  0
   -0.0638   -0.5807    3.8024 O   0  0  0  0  0  0  0  0  0  0  0  0
    2.3074   -1.3706    4.4633 C   0  0  1  0  0  0  0  0  0  0  0  0
    3.0075   -1.0913    3.2870 O   0  0  0  0  0  0  0  0  0  0  0  0
    2.1478   -2.9980    4.6405 C   0  0  1  0  0  0  0  0  0  0  0  0
    1.2033   -3.3485    3.6481 O   0  0  0  0  0  0  0  0  0  0  0  0
    1.6052   -3.4985    6.0615 C   0  0  2  0  0  0  0  0  0  0  0  0
    0.5442   -2.6518    6.8325 C   0  0  0  0  0  0  0  0  0  0  0  0
    3.1762   -3.2920    7.0614 S   0  0  0  0  0  0  0  0  0  0  0  0
    3.2688   -4.3429    8.1686 O   0  0  0  0  0  0  0  0  0  0  0  0
    1.1160   -5.0442    6.0949 C   0  0  1  0  0  0  0  0  0  0  0  0
    1.1073   -5.4724    7.4505 O   0  0  0  0  0  0  0  0  0  0  0  0
   -0.4206   -5.2541    5.6185 C   0  0  0  0  0  0  0  0  0  0  0  0
   -1.5821   -5.0592    6.6771 C   0  0  0  0  0  0  0  0  0  0  0  0
   -0.7230   -6.5347    4.8495 C   0  0  0  0  0  0  0  0  0  0  0  0
    2.2808   -5.9771    5.5059 C   0  0  1  0  0  0  0  0  0  0  0  0
    1.8690   -7.3504    5.4461 O   0  0  0  0  0  0  0  0  0  0  0  0
    2.5147   -8.3359    6.1114 C   0  0  0  0  0  0  0  0  0  0  0  0
    1.8441   -9.6982    5.9539 C   0  0  0  0  0  0  0  0  0  0  0  0
    3.5297   -8.2009    6.7924 O   0  0  0  0  0  0  0  0  0  0  0  0
    3.0687   -5.5178    4.1964 C   0  0  1  0  0  0  0  0  0  0  0  0
    4.3035   -6.2261    4.2529 O   0  0  0  0  0  0  0  0  0  0  0  0
    0.3833   -9.3356    3.6336 H   0  0  0  0  0  0  0  0  0  0  0  0
    1.0767   -9.8695    2.0937 H   0  0  0  0  0  0  0  0  0  0  0  0
   -0.6272   -9.3947    2.2173 H   0  0  0  0  0  0  0  0  0  0  0  0
    1.6324   -5.3558    2.5370 H   0  0  0  0  0  0  0  0  0  0  0  0
    3.8643   -7.1303    1.5260 H   0  0  0  0  0  0  0  0  0  0  0  0
    2.7403   -6.1763    0.6588 H   0  0  0  0  0  0  0  0  0  0  0  0
    5.4349   -5.4814    1.7303 H   0  0  0  0  0  0  0  0  0  0  0  0
    4.7315   -5.1968    0.1938 H   0  0  0  0  0  0  0  0  0  0  0  0
    5.1974   -1.7578    1.1567 H   0  0  0  0  0  0  0  0  0  0  0  0
    5.4272   -2.9722   -0.0838 H   0  0  0  0  0  0  0  0  0  0  0  0
    6.3401   -3.0810    1.3902 H   0  0  0  0  0  0  0  0  0  0  0  0
    2.0998   -3.9993    1.1698 H   0  0  0  0  0  0  0  0  0  0  0  0
    2.4384   -2.3596    1.5212 H   0  0  0  0  0  0  0  0  0  0  0  0
    2.0355   -3.4053   -3.4205 H   0  0  0  0  0  0  0  0  0  0  0  0
    2.6840   -1.9099   -2.7492 H   0  0  0  0  0  0  0  0  0  0  0  0
    4.0567   -4.4661   -3.0821 H   0  0  0  0  0  0  0  0  0  0  0  0
    4.3369   -3.1064   -3.9312 H   0  0  0  0  0  0  0  0  0  0  0  0
    5.3549   -4.1010    3.3535 H   0  0  0  0  0  0  0  0  0  0  0  0
    4.7891   -2.5496    3.3622 H   0  0  0  0  0  0  0  0  0  0  0  0
    4.6560   -4.7599    6.0390 H   0  0  0  0  0  0  0  0  0  0  0  0
    6.3368   -3.6353    6.4877 H   0  0  0  0  0  0  0  0  0  0  0  0
    6.2372   -3.0953    4.8880 H   0  0  0  0  0  0  0  0  0  0  0  0
    5.7023   -1.5682    7.4342 H   0  0  0  0  0  0  0  0  0  0  0  0
    7.0036   -1.3051    6.3362 H   0  0  0  0  0  0  0  0  0  0  0  0
    6.0262   -0.9549    3.6991 H   0  0  0  0  0  0  0  0  0  0  0  0
    6.5458    0.5487    4.4222 H   0  0  0  0  0  0  0  0  0  0  0  0
    4.9477    0.4534    3.7373 H   0  0  0  0  0  0  0  0  0  0  0  0
    3.7752   -0.5567    7.4702 H   0  0  0  0  0  0  0  0  0  0  0  0
    1.9573   -0.7155    6.4667 H   0  0  0  0  0  0  0  0  0  0  0  0
    1.2896    1.9391    6.8622 H   0  0  0  0  0  0  0  0  0  0  0  0
    0.0784    0.6984    6.5980 H   0  0  0  0  0  0  0  0  0  0  0  0
    0.0982    2.1473    5.5939 H   0  0  0  0  0  0  0  0  0  0  0  0
    3.1649    2.3024    4.8822 H   0  0  0  0  0  0  0  0  0  0  0  0
    1.7168    2.5993    3.9434 H   0  0  0  0  0  0  0  0  0  0  0  0
    2.9067    1.4229    3.3978 H   0  0  0  0  0  0  0  0  0  0  0  0
    3.8583   -1.4789    3.3863 H   0  0  0  0  0  0  0  0  0  0  0  0
    1.4528   -2.9654    2.8149 H   0  0  0  0  0  0  0  0  0  0  0  0
   -0.0350   -2.0389    6.1392 H   0  0  0  0  0  0  0  0  0  0  0  0
    1.0252   -2.0079    7.5635 H   0  0  0  0  0  0  0  0  0  0  0  0
   -0.0818   -3.2688    7.4265 H   0  0  0  0  0  0  0  0  0  0  0  0
    1.9844   -5.3310    7.8094 H   0  0  0  0  0  0  0  0  0  0  0  0
   -0.5525   -4.4557    4.8891 H   0  0  0  0  0  0  0  0  0  0  0  0
   -1.4193   -5.7825    7.4842 H   0  0  0  0  0  0  0  0  0  0  0  0
   -2.5226   -5.3886    6.1814 H   0  0  0  0  0  0  0  0  0  0  0  0
   -1.7182   -4.0535    7.1333 H   0  0  0  0  0  0  0  0  0  0  0  0
   -0.6593   -7.4196    5.5079 H   0  0  0  0  0  0  0  0  0  0  0  0
   -0.0400   -6.4829    4.0521 H   0  0  0  0  0  0  0  0  0  0  0  0
   -1.7551   -6.5231    4.4791 H   0  0  0  0  0  0  0  0  0  0  0  0
    3.0478   -5.9609    6.2849 H   0  0  0  0  0  0  0  0  0  0  0  0
    0.7707   -9.6355    6.1340 H   0  0  0  0  0  0  0  0  0  0  0  0
    2.2601  -10.4207    6.6562 H   0  0  0  0  0  0  0  0  0  0  0  0
    2.0078  -10.0827    4.9495 H   0  0  0  0  0  0  0  0  0  0  0  0
    4.8011   -6.0270    3.4745 H   0  0  0  0  0  0  0  0  0  0  0  0
  1  2  1  0
  1 51  1  0
  1 52  1  0
  1 53  1  0
  2  3  2  0
  2  4  1  0
  4  5  1  0
  5 49  1  0
  5  6  1  0
  5 54  1  6
  6  7  1  0
  6 55  1  0
  6 56  1  0
  7  8  1  0
  7 57  1  0
  7 58  1  0
  8  9  1  6
  8 10  1  0
  8 16  1  0
  9 59  1  0
  9 60  1  0
  9 61  1  0
 10 11  1  0
 10 62  1  0
 10 63  1  0
 11 12  1  0
 12 13  2  0
 12 14  1  0
 14 15  1  0
 14 64  1  0
 14 65  1  0
 15 66  1  0
 15 67  1  0
 17 16  1  6
 16 68  1  0
 16 69  1  0
 17 33  1  0
 17 49  1  0
 17 18  1  0
 18 37  1  0
 18 19  1  0
 18 70  1  1
 19 20  1  0
 19 71  1  0
 19 72  1  0
 20 21  1  0
 20 73  1  0
 20 74  1  0
 21 24  1  0
 21 22  1  6
 21 23  1  0
 22 75  1  0
 22 76  1  0
 22 77  1  0
 23 24  1  0
 24 25  1  0
 24 78  1  1
 25 31  1  0
 25 26  1  0
 25 79  1  1
 26 27  1  0
 26 28  1  0
 26 29  1  0
 27 80  1  0
 27 81  1  0
 27 82  1  0
 28 83  1  0
 28 84  1  0
 28 85  1  0
 29 30  2  0
 29 31  1  0
 31 32  1  6
 31 33  1  0
 32 86  1  0
 33 34  1  6
 33 35  1  0
 34 87  1  0
 35 36  1  1
 37 35  1  6
 35 39  1  0
 36 88  1  0
 36 89  1  0
 36 90  1  0
 37 38  2  0
 39 40  1  1
 39 41  1  0
 39 44  1  0
 40 91  1  0
 41 42  1  0
 41 43  1  0
 41 92  1  0
 42 93  1  0
 42 94  1  0
 42 95  1  0
 43 96  1  0
 43 97  1  0
 43 98  1  0
 44 45  1  0
 44 49  1  0
 44 99  1  1
 45 46  1  0
 46 47  1  0
 46 48  2  0
 47100  1  0
 47101  1  0
 47102  1  0
 49 50  1  1
 50103  1  0
M  END
>  <i_m_ct_stereo_status>  (87) 
1

>  <s_m_source_file>  (87) 
/var/tmp/pbs.5075288.sched01/tmpeqwi9iw0/66la8jmv2o.sdf

>  <i_m_source_file_index>  (87) 
55

>  <i_lp_mmshare_version>  (87) 
48012

>  <i_f3d_flags>  (87) 
0

>  <s_epik_input>  (87) 
W05IMl1bQ0gyXUMoPU8pT1tDSDJdW0NAQF0oW0NIM10pKFtDSDJdMSlbQ0gyXVtDSDJdW0NAQEhdKE9DKD1PKVtDSDNdKVtDQF0yKFtPSF0pW0NASF0oT0MoPU8pW0NIM10pW0NAXShbT0hdKShbQ0hdKFtDSDNdKVtDSDNdKVtDQEBdKFtDSDNdKShbUytdM1tPLV0pW0NAQF00KFtPSF0pW0NAQF0oW09IXSkoQyg9TylDNShbQ0gzXSlbQ0gzXSlbQ0BIXTVbQ0BIXShPNilbQ0BdNihbQ0gzXSlbQ0gyXVtDSDJdW0NAQEhdM1tDQEBdMTI0

>  <s_epik_cmdline>  (87) 
J2VwaWtfcHl0aG9uJywgJy1waHQnLCAnMi4wJywgJy1waCcsICc3LjAnLCAnLXRuJywgJzgnLCAnLW1hJywgJzIwMCcsICctaW1hZScsICc8aW5maWxlLm1hZT4nLCAnLW9tYWUnLCAnPG91dGZpbGUubWFlPic=

>  <r_epik_Ionization_Penalty>  (87) 
0.589047

>  <r_epik_Ionization_Penalty_Charging>  (87) 
0

>  <r_epik_Ionization_Penalty_Neutral>  (87) 
0.589047

>  <r_epik_State_Penalty>  (87) 
0.602458

>  <r_epik_Charging_Adjusted_Penalty>  (87) 
0.602458

>  <i_epik_Tot_Q>  (87) 
0

>  <i_epik_Tot_abs_Q>  (87) 
2

>  <s_epik_Chemistry_Notes>  (87) 
This compound has an ester and may undergo hydrolysis at high or low pH.

>  <s_lp_Force_Field>  (87) 
OPLS3e

>  <r_lp_Energy>  (87) 
151.356

>  <b_lp_Chiralities_Consistent>  (87) 
1

>  <s_lp_Variant>  (87) 
59:0-2

>  <s_i_glide_gridfile>  (87) 
pfpi4k_grid

>  <i_i_glide_lignum>  (87) 
55

>  <i_i_glide_rotatable_bonds>  (87) 
13

>  <r_i_docking_score>  (87) 
-3.20621

>  <r_i_glide_ligand_efficiency>  (87) 
-0.0641241

>  <r_i_glide_ligand_efficiency_sa>  (87) 
-0.236235

>  <r_i_glide_ligand_efficiency_ln>  (87) 
-0.652726

>  <r_i_glide_gscore>  (87) 
-3.20621

>  <r_i_glide_lipo>  (87) 
-0.32784

>  <r_i_glide_hbond>  (87) 
-0.327733

>  <r_i_glide_metal>  (87) 
-0

>  <r_i_glide_rewards>  (87) 
-0.561696

>  <r_i_glide_evdw>  (87) 
-29.7184

>  <r_i_glide_ecoul>  (87) 
-3.12142

>  <r_i_glide_erotb>  (87) 
0.0180038

>  <r_i_glide_esite>  (87) 
-0.052807

>  <r_i_glide_emodel>  (87) 
-38.0775

>  <r_i_glide_energy>  (87) 
-32.8399

>  <r_i_glide_einternal>  (87) 
6.17388

>  <r_i_glide_intrahb_reward>  (87) 
-0.5

>  <i_i_glide_confnum>  (87) 
2

>  <i_i_glide_posenum>  (87) 
28

>  <r_i_glide_eff_state_penalty>  (87) 
0

>  <ligand_id>  (87) 
59

>  <original_smiles>  (87) 
CC(=O)OC1CCC(C)(COC(=O)CN)CC23C4CCC5(C)OC5C5C(C)(C)C(=O)C5(O)C2(O)C(C)([S+]4[O-])C(O)(C(C)C)C(OC(C)=O)C13O

>  <smiles>  (87) 
[H]OC12C(=O)C(C([H])([H])[H])(C([H])([H])[H])C1([H])C1([H])OC1(C([H])([H])[H])C([H])([H])C([H])([H])C1([H])S(=O)C3(C([H])([H])[H])C(O[H])(C([H])(C([H])([H])[H])C([H])([H])[H])C([H])(OC(=O)C([H])([H])[H])C4(O[H])C([H])(OC(=O)C([H])([H])[H])C([H])([H])C([H])([H])C(C([H])([H])[H])(C([H])([H])OC(=O)C([H])([H])N([H])[H])C([H])([H])C14C23O[H]

$$$$
59:1:2
     RDKit          3D

103108  0  0  1  0  0  0  0  0999 V2000
    6.5947   -1.3555    1.5012 C   0  0  0  0  0  0  0  0  0  0  0  0
    5.6531   -0.5052    2.3441 C   0  0  0  0  0  0  0  0  0  0  0  0
    4.8364    0.1946    1.8017 O   0  0  0  0  0  0  0  0  0  0  0  0
    5.8147   -0.6601    3.6872 O   0  0  0  0  0  0  0  0  0  0  0  0
    5.1432    0.1255    4.6865 C   0  0  2  0  0  0  0  0  0  0  0  0
    6.3873    0.6294    5.5206 C   0  0  0  0  0  0  0  0  0  0  0  0
    6.2507    1.1749    6.9584 C   0  0  0  0  0  0  0  0  0  0  0  0
    4.9754    1.9659    7.2551 C   0  0  1  0  0  0  0  0  0  0  0  0
    5.1620    2.6759    8.6239 C   0  0  0  0  0  0  0  0  0  0  0  0
    4.7413    3.0623    6.2020 C   0  0  0  0  0  0  0  0  0  0  0  0
    5.7435    4.0828    6.2191 O   0  0  0  0  0  0  0  0  0  0  0  0
    5.5153    5.3164    5.6884 C   0  0  0  0  0  0  0  0  0  0  0  0
    6.3657    6.2078    5.6903 O   0  0  0  0  0  0  0  0  0  0  0  0
    4.1140    5.5318    5.0808 C   0  0  0  0  0  0  0  0  0  0  0  0
    3.9447    6.7198    4.2843 N   0  0  0  0  0  0  0  0  0  0  0  0
    3.8097    0.9356    7.4707 C   0  0  0  0  0  0  0  0  0  0  0  0
    2.9540    0.1571    6.3942 C   0  0  1  0  0  0  0  0  0  0  0  0
    2.1273   -0.9268    7.2564 C   0  0  1  0  0  0  0  0  0  0  0  0
    1.9096   -0.8946    8.8368 C   0  0  0  0  0  0  0  0  0  0  0  0
    0.6277   -0.3927    9.5565 C   0  0  0  0  0  0  0  0  0  0  0  0
    0.2306    1.0305    9.2387 C   0  0  2  0  0  0  0  0  0  0  0  0
    1.1056    2.0835    9.9104 C   0  0  0  0  0  0  0  0  0  0  0  0
   -1.1019    1.5325    9.4001 O   0  0  0  0  0  0  0  0  0  0  0  0
   -0.7713    1.0569    8.0987 C   0  0  1  0  0  0  0  0  0  0  0  0
   -0.4715    1.8592    6.9008 C   0  0  1  0  0  0  0  0  0  0  0  0
   -1.0258    3.2298    6.5129 C   0  0  0  0  0  0  0  0  0  0  0  0
   -2.4046    3.2409    5.8477 C   0  0  0  0  0  0  0  0  0  0  0  0
   -0.9475    4.3237    7.5899 C   0  0  0  0  0  0  0  0  0  0  0  0
    0.1736    3.2201    5.4813 C   0  0  0  0  0  0  0  0  0  0  0  0
    0.3563    3.7850    4.4075 O   0  0  0  0  0  0  0  0  0  0  0  0
    0.9432    2.1102    6.2921 C   0  0  1  0  0  0  0  0  0  0  0  0
    1.7826    2.8947    7.0970 O   0  0  0  0  0  0  0  0  0  0  0  0
    1.8109    0.9475    5.5262 C   0  0  1  0  0  0  0  0  0  0  0  0
    2.4802    1.6816    4.5309 O   0  0  0  0  0  0  0  0  0  0  0  0
    0.9774   -0.2308    4.8216 C   0  0  2  0  0  0  0  0  0  0  0  0
   -0.4432    0.0405    4.2233 C   0  0  0  0  0  0  0  0  0  0  0  0
    0.5375   -1.2116    6.3582 S   0  0  0  0  0  0  0  0  0  0  0  0
    0.3522   -2.7115    6.0812 O   0  0  0  0  0  0  0  0  0  0  0  0
    1.8259   -1.1083    3.7933 C   0  0  1  0  0  0  0  0  0  0  0  0
    1.0933   -2.2902    3.5126 O   0  0  0  0  0  0  0  0  0  0  0  0
    2.0349   -0.4264    2.3515 C   0  0  0  0  0  0  0  0  0  0  0  0
    0.8997    0.4065    1.6621 C   0  0  0  0  0  0  0  0  0  0  0  0
    2.4789   -1.4301    1.2073 C   0  0  0  0  0  0  0  0  0  0  0  0
    3.1192   -1.6795    4.5200 C   0  0  1  0  0  0  0  0  0  0  0  0
    3.8957   -2.4756    3.6013 O   0  0  0  0  0  0  0  0  0  0  0  0
    4.3567   -3.7138    3.8782 C   0  0  0  0  0  0  0  0  0  0  0  0
    5.1132   -4.3648    2.7160 C   0  0  0  0  0  0  0  0  0  0  0  0
    4.2472   -4.2924    4.9537 O   0  0  0  0  0  0  0  0  0  0  0  0
    3.9770   -0.6807    5.4214 C   0  0  1  0  0  0  0  0  0  0  0  0
    4.7419   -1.5248    6.2878 O   0  0  0  0  0  0  0  0  0  0  0  0
    6.4891   -2.4038    1.6953 H   0  0  0  0  0  0  0  0  0  0  0  0
    7.6379   -1.0635    1.6285 H   0  0  0  0  0  0  0  0  0  0  0  0
    6.3315   -1.1942    0.4608 H   0  0  0  0  0  0  0  0  0  0  0  0
    4.7240    0.9879    4.1775 H   0  0  0  0  0  0  0  0  0  0  0  0
    7.1439   -0.1556    5.6106 H   0  0  0  0  0  0  0  0  0  0  0  0
    6.9056    1.3863    4.9369 H   0  0  0  0  0  0  0  0  0  0  0  0
    6.3569    0.3616    7.6766 H   0  0  0  0  0  0  0  0  0  0  0  0
    7.1123    1.8162    7.1653 H   0  0  0  0  0  0  0  0  0  0  0  0
    4.3061    3.3079    8.8727 H   0  0  0  0  0  0  0  0  0  0  0  0
    6.0406    3.3239    8.6394 H   0  0  0  0  0  0  0  0  0  0  0  0
    5.2841    1.9626    9.4381 H   0  0  0  0  0  0  0  0  0  0  0  0
    4.6894    2.6695    5.1918 H   0  0  0  0  0  0  0  0  0  0  0  0
    3.8015    3.5371    6.4217 H   0  0  0  0  0  0  0  0  0  0  0  0
    3.8522    4.6828    4.4417 H   0  0  0  0  0  0  0  0  0  0  0  0
    3.3919    5.5688    5.9022 H   0  0  0  0  0  0  0  0  0  0  0  0
    4.5045    6.6415    3.4446 H   0  0  0  0  0  0  0  0  0  0  0  0
    2.9889    6.7661    3.9565 H   0  0  0  0  0  0  0  0  0  0  0  0
    4.2663    0.1814    8.1075 H   0  0  0  0  0  0  0  0  0  0  0  0
    3.1214    1.3846    8.1654 H   0  0  0  0  0  0  0  0  0  0  0  0
    2.6024   -1.8939    7.1627 H   0  0  0  0  0  0  0  0  0  0  0  0
    1.9579   -1.9482    9.1309 H   0  0  0  0  0  0  0  0  0  0  0  0
    2.7650   -0.4767    9.3622 H   0  0  0  0  0  0  0  0  0  0  0  0
   -0.2034   -1.0607    9.3042 H   0  0  0  0  0  0  0  0  0  0  0  0
    0.7402   -0.4793   10.6304 H   0  0  0  0  0  0  0  0  0  0  0  0
    2.1525    1.8241    9.9204 H   0  0  0  0  0  0  0  0  0  0  0  0
    0.7858    2.1908   10.9453 H   0  0  0  0  0  0  0  0  0  0  0  0
    0.9618    3.0627    9.4444 H   0  0  0  0  0  0  0  0  0  0  0  0
   -1.3372    0.1645    7.8743 H   0  0  0  0  0  0  0  0  0  0  0  0
   -1.0137    1.2569    6.1884 H   0  0  0  0  0  0  0  0  0  0  0  0
   -3.1809    2.9142    6.5571 H   0  0  0  0  0  0  0  0  0  0  0  0
   -2.4703    2.5940    4.9699 H   0  0  0  0  0  0  0  0  0  0  0  0
   -2.6762    4.2248    5.5060 H   0  0  0  0  0  0  0  0  0  0  0  0
   -1.5236    4.0057    8.4689 H   0  0  0  0  0  0  0  0  0  0  0  0
   -1.3664    5.2678    7.2535 H   0  0  0  0  0  0  0  0  0  0  0  0
    0.0583    4.5299    7.9345 H   0  0  0  0  0  0  0  0  0  0  0  0
    1.2354    3.5962    7.4057 H   0  0  0  0  0  0  0  0  0  0  0  0
    1.8724    2.0576    3.9149 H   0  0  0  0  0  0  0  0  0  0  0  0
   -0.5411    1.1079    3.9259 H   0  0  0  0  0  0  0  0  0  0  0  0
   -1.2394   -0.1909    4.9033 H   0  0  0  0  0  0  0  0  0  0  0  0
   -0.6193   -0.5147    3.3023 H   0  0  0  0  0  0  0  0  0  0  0  0
    0.3062   -2.0850    3.0615 H   0  0  0  0  0  0  0  0  0  0  0  0
    2.8049    0.3186    2.4747 H   0  0  0  0  0  0  0  0  0  0  0  0
   -0.0189   -0.1847    1.4661 H   0  0  0  0  0  0  0  0  0  0  0  0
    1.2392    0.7875    0.7306 H   0  0  0  0  0  0  0  0  0  0  0  0
    0.5986    1.2636    2.2751 H   0  0  0  0  0  0  0  0  0  0  0  0
    1.7344   -2.1624    0.9620 H   0  0  0  0  0  0  0  0  0  0  0  0
    3.4111   -1.9610    1.3693 H   0  0  0  0  0  0  0  0  0  0  0  0
    2.6148   -0.8624    0.2898 H   0  0  0  0  0  0  0  0  0  0  0  0
    2.7337   -2.4287    5.2110 H   0  0  0  0  0  0  0  0  0  0  0  0
    4.6133   -4.1731    1.7622 H   0  0  0  0  0  0  0  0  0  0  0  0
    5.1906   -5.4466    2.8501 H   0  0  0  0  0  0  0  0  0  0  0  0
    6.1295   -3.9875    2.6681 H   0  0  0  0  0  0  0  0  0  0  0  0
    5.2843   -2.0813    5.7626 H   0  0  0  0  0  0  0  0  0  0  0  0
  1  2  1  0
  1 51  1  0
  1 52  1  0
  1 53  1  0
  2  3  2  0
  2  4  1  0
  4  5  1  0
  5 49  1  0
  5  6  1  0
  5 54  1  6
  6  7  1  0
  6 55  1  0
  6 56  1  0
  7  8  1  0
  7 57  1  0
  7 58  1  0
  8  9  1  1
  8 10  1  0
  8 16  1  0
  9 59  1  0
  9 60  1  0
  9 61  1  0
 10 11  1  0
 10 62  1  0
 10 63  1  0
 11 12  1  0
 12 13  2  0
 12 14  1  0
 14 15  1  0
 14 64  1  0
 14 65  1  0
 15 66  1  0
 15 67  1  0
 17 16  1  1
 16 68  1  0
 16 69  1  0
 17 33  1  0
 17 49  1  0
 17 18  1  0
 18 37  1  0
 18 19  1  0
 18 70  1  1
 19 20  1  0
 19 71  1  0
 19 72  1  0
 20 21  1  0
 20 73  1  0
 20 74  1  0
 21 24  1  0
 21 22  1  6
 21 23  1  0
 22 75  1  0
 22 76  1  0
 22 77  1  0
 23 24  1  0
 24 25  1  0
 24 78  1  6
 25 31  1  0
 25 26  1  0
 25 79  1  6
 26 27  1  0
 26 28  1  0
 26 29  1  0
 27 80  1  0
 27 81  1  0
 27 82  1  0
 28 83  1  0
 28 84  1  0
 28 85  1  0
 29 30  2  0
 29 31  1  0
 31 32  1  1
 31 33  1  0
 32 86  1  0
 33 34  1  6
 33 35  1  0
 34 87  1  0
 35 36  1  6
 37 35  1  6
 35 39  1  0
 36 88  1  0
 36 89  1  0
 36 90  1  0
 37 38  2  0
 39 40  1  6
 39 41  1  0
 39 44  1  0
 40 91  1  0
 41 42  1  0
 41 43  1  0
 41 92  1  0
 42 93  1  0
 42 94  1  0
 42 95  1  0
 43 96  1  0
 43 97  1  0
 43 98  1  0
 44 45  1  0
 44 49  1  0
 44 99  1  1
 45 46  1  0
 46 47  1  0
 46 48  2  0
 47100  1  0
 47101  1  0
 47102  1  0
 49 50  1  1
 50103  1  0
M  END
>  <i_m_ct_stereo_status>  (88) 
1

>  <s_m_source_file>  (88) 
/var/tmp/pbs.5075288.sched01/tmpeqwi9iw0/66la8jmv2o.sdf

>  <i_m_source_file_index>  (88) 
55

>  <i_lp_mmshare_version>  (88) 
48012

>  <i_f3d_flags>  (88) 
0

>  <s_epik_input>  (88) 
W05IMl1bQ0gyXUMoPU8pT1tDSDJdW0NAQF0oW0NIM10pKFtDSDJdMSlbQ0gyXVtDSDJdW0NAQEhdKE9DKD1PKVtDSDNdKVtDQF0yKFtPSF0pW0NASF0oT0MoPU8pW0NIM10pW0NAXShbT0hdKShbQ0hdKFtDSDNdKVtDSDNdKVtDQEBdKFtDSDNdKShbUytdM1tPLV0pW0NAQF00KFtPSF0pW0NAQF0oW09IXSkoQyg9TylDNShbQ0gzXSlbQ0gzXSlbQ0BIXTVbQ0BIXShPNilbQ0BdNihbQ0gzXSlbQ0gyXVtDSDJdW0NAQEhdM1tDQEBdMTI0

>  <s_epik_cmdline>  (88) 
J2VwaWtfcHl0aG9uJywgJy1waHQnLCAnMi4wJywgJy1waCcsICc3LjAnLCAnLXRuJywgJzgnLCAnLW1hJywgJzIwMCcsICctaW1hZScsICc8aW5maWxlLm1hZT4nLCAnLW9tYWUnLCAnPG91dGZpbGUubWFlPic=

>  <r_epik_Ionization_Penalty>  (88) 
0.589047

>  <r_epik_Ionization_Penalty_Charging>  (88) 
0

>  <r_epik_Ionization_Penalty_Neutral>  (88) 
0.589047

>  <r_epik_State_Penalty>  (88) 
0.602458

>  <r_epik_Charging_Adjusted_Penalty>  (88) 
0.602458

>  <i_epik_Tot_Q>  (88) 
0

>  <i_epik_Tot_abs_Q>  (88) 
2

>  <s_epik_Chemistry_Notes>  (88) 
This compound has an ester and may undergo hydrolysis at high or low pH.

>  <s_lp_Force_Field>  (88) 
OPLS3e

>  <r_lp_Energy>  (88) 
151.356

>  <b_lp_Chiralities_Consistent>  (88) 
1

>  <s_lp_Variant>  (88) 
59:0-2

>  <s_i_glide_gridfile>  (88) 
pfpi4k_grid

>  <i_i_glide_lignum>  (88) 
55

>  <i_i_glide_rotatable_bonds>  (88) 
13

>  <r_i_docking_score>  (88) 
-1.11949

>  <r_i_glide_ligand_efficiency>  (88) 
-0.0223898

>  <r_i_glide_ligand_efficiency_sa>  (88) 
-0.0824847

>  <r_i_glide_ligand_efficiency_ln>  (88) 
-0.227908

>  <r_i_glide_gscore>  (88) 
-1.11949

>  <r_i_glide_lipo>  (88) 
-0.455927

>  <r_i_glide_hbond>  (88) 
-0.131991

>  <r_i_glide_metal>  (88) 
-0

>  <r_i_glide_rewards>  (88) 
-0.116759

>  <r_i_glide_evdw>  (88) 
-20.44

>  <r_i_glide_ecoul>  (88) 
-0.162195

>  <r_i_glide_erotb>  (88) 
0.0180038

>  <r_i_glide_esite>  (88) 
-0.0198008

>  <r_i_glide_emodel>  (88) 
-8.86206

>  <r_i_glide_energy>  (88) 
-20.6022

>  <r_i_glide_einternal>  (88) 
18.2808

>  <r_i_glide_intrahb_reward>  (88) 
-0

>  <i_i_glide_confnum>  (88) 
1

>  <i_i_glide_posenum>  (88) 
14

>  <r_i_glide_eff_state_penalty>  (88) 
0

>  <ligand_id>  (88) 
59

>  <original_smiles>  (88) 
CC(=O)OC1CCC(C)(COC(=O)CN)CC23C4CCC5(C)OC5C5C(C)(C)C(=O)C5(O)C2(O)C(C)([S+]4[O-])C(O)(C(C)C)C(OC(C)=O)C13O

>  <smiles>  (88) 
[H]OC12C(=O)C(C([H])([H])[H])(C([H])([H])[H])C1([H])C1([H])OC1(C([H])([H])[H])C([H])([H])C([H])([H])C1([H])S(=O)C3(C([H])([H])[H])C(O[H])(C([H])(C([H])([H])[H])C([H])([H])[H])C([H])(OC(=O)C([H])([H])[H])C4(O[H])C([H])(OC(=O)C([H])([H])[H])C([H])([H])C([H])([H])C(C([H])([H])[H])(C([H])([H])OC(=O)C([H])([H])N([H])[H])C([H])([H])C14C23O[H]

$$$$
61:0:0
     RDKit          3D

 41 43  0  0  1  0  0  0  0  0999 V2000
    1.0285   -4.4440   -1.5268 C   0  0  0  0  0  0  0  0  0  0  0  0
    2.0608   -3.4756   -1.9859 C   0  0  0  0  0  0  0  0  0  0  0  0
    3.0071   -2.9538   -1.2324 C   0  0  0  0  0  0  0  0  0  0  0  0
    3.1782   -3.2036    0.2609 C   0  0  1  0  0  0  0  0  0  0  0  0
    3.6512   -4.6023    0.6495 C   0  0  0  0  0  0  0  0  0  0  0  0
    4.7198   -5.2797   -0.1849 C   0  0  0  0  0  0  0  0  0  0  0  0
    4.6735   -6.4928   -0.2747 O   0  0  0  0  0  0  0  0  0  0  0  0
    5.7946   -4.5834   -0.6462 O   0  0  0  0  0  0  0  0  0  0  0  0
    6.0399   -3.1788   -0.7828 C   0  0  1  0  0  0  0  0  0  0  0  0
    7.5447   -3.2726   -1.1583 C   0  0  0  0  0  0  0  0  0  0  0  0
    5.3923   -2.6194   -2.0733 C   0  0  0  0  0  0  0  0  0  0  0  0
    3.9568   -2.0963   -2.0391 C   0  0  2  0  0  0  0  0  0  0  0  0
    3.9841   -0.7372   -1.6719 O   0  0  0  0  0  0  0  0  0  0  0  0
    3.2975   -2.1900   -3.4144 C   0  0  0  0  0  0  0  0  0  0  0  0
    3.6696   -1.5327   -4.3974 O   0  0  0  0  0  0  0  0  0  0  0  0
    2.1359   -3.1640   -3.4334 C   0  0  0  0  0  0  0  0  0  0  0  0
    5.9270   -2.3357    0.5384 C   0  0  0  0  0  0  0  0  0  0  0  0
    6.6116   -3.0727    1.6721 C   0  0  0  0  0  0  0  0  0  0  0  0
    6.5524   -0.9314    0.4367 C   0  0  0  0  0  0  0  0  0  0  0  0
    4.2215   -2.0301    1.2052 S   0  0  0  0  0  0  0  0  0  0  0  0
    3.8011   -0.5951    0.8890 O   0  0  0  0  0  0  0  0  0  0  0  0
    0.0390   -4.0465   -1.6923 H   0  0  0  0  0  0  0  0  0  0  0  0
    1.1306   -4.7112   -0.4336 H   0  0  0  0  0  0  0  0  0  0  0  0
    1.0305   -5.4084   -2.0047 H   0  0  0  0  0  0  0  0  0  0  0  0
    2.1905   -3.0947    0.7053 H   0  0  0  0  0  0  0  0  0  0  0  0
    3.9941   -4.6493    1.6830 H   0  0  0  0  0  0  0  0  0  0  0  0
    2.8047   -5.2946    0.6197 H   0  0  0  0  0  0  0  0  0  0  0  0
    8.0155   -2.3076   -1.3387 H   0  0  0  0  0  0  0  0  0  0  0  0
    7.6802   -3.8405   -2.0796 H   0  0  0  0  0  0  0  0  0  0  0  0
    8.1390   -3.7934   -0.4098 H   0  0  0  0  0  0  0  0  0  0  0  0
    5.9965   -1.7854   -2.4133 H   0  0  0  0  0  0  0  0  0  0  0  0
    5.4795   -3.3849   -2.8505 H   0  0  0  0  0  0  0  0  0  0  0  0
    4.1214   -0.6571   -0.7304 H   0  0  0  0  0  0  0  0  0  0  0  0
    2.3692   -4.0664   -4.0074 H   0  0  0  0  0  0  0  0  0  0  0  0
    1.2090   -2.7220   -3.8158 H   0  0  0  0  0  0  0  0  0  0  0  0
    7.6909   -3.1027    1.5319 H   0  0  0  0  0  0  0  0  0  0  0  0
    6.2474   -4.0867    1.8380 H   0  0  0  0  0  0  0  0  0  0  0  0
    6.3941   -2.5076    2.5734 H   0  0  0  0  0  0  0  0  0  0  0  0
    7.6406   -0.9686    0.3790 H   0  0  0  0  0  0  0  0  0  0  0  0
    6.3146   -0.3176    1.3105 H   0  0  0  0  0  0  0  0  0  0  0  0
    6.1878   -0.3851   -0.4324 H   0  0  0  0  0  0  0  0  0  0  0  0
  1  2  1  0
  1 22  1  0
  1 23  1  0
  1 24  1  0
  2 16  1  0
  2  3  2  0
  3 12  1  0
  3  4  1  0
  4 20  1  0
  4  5  1  0
  4 25  1  1
  5  6  1  0
  5 26  1  0
  5 27  1  0
  6  7  2  0
  6  8  1  0
  8  9  1  0
  9 10  1  6
  9 11  1  0
  9 17  1  0
 10 28  1  0
 10 29  1  0
 10 30  1  0
 11 12  1  0
 11 31  1  0
 11 32  1  0
 12 13  1  1
 12 14  1  0
 13 33  1  0
 14 15  2  0
 14 16  1  0
 16 34  1  0
 16 35  1  0
 17 18  1  0
 17 19  1  0
 20 17  1  6
 18 36  1  0
 18 37  1  0
 18 38  1  0
 19 39  1  0
 19 40  1  0
 19 41  1  0
 20 21  2  0
M  END
>  <i_m_ct_stereo_status>  (89) 
1

>  <s_m_source_file>  (89) 
/var/tmp/pbs.5075288.sched01/tmpjyqx9nt_/132xb3bh5wq.sdf

>  <i_m_source_file_index>  (89) 
43

>  <i_lp_mmshare_version>  (89) 
48012

>  <i_f3d_flags>  (89) 
0

>  <s_epik_input>  (89) 
W0NIM11DPTFbQ0gyXUMoPU8pW0NAQF0oW0NIMl0yKShbT0hdKUMxW0NASF0oW1MrXShbTy1dKUMzKFtDSDNdKVtDSDNdKVtDSDJdQyg9TylPW0NAQF0yM1tDSDNd

>  <s_epik_cmdline>  (89) 
J2VwaWtfcHl0aG9uJywgJy1waHQnLCAnMi4wJywgJy1waCcsICc3LjAnLCAnLXRuJywgJzgnLCAnLW1hJywgJzIwMCcsICctaW1hZScsICc8aW5maWxlLm1hZT4nLCAnLW9tYWUnLCAnPG91dGZpbGUubWFlPic=

>  <r_lp_tautomer_probability>  (89) 
1

>  <r_epik_Ionization_Penalty>  (89) 
6.7283e-09

>  <r_epik_Ionization_Penalty_Charging>  (89) 
0

>  <r_epik_Ionization_Penalty_Neutral>  (89) 
6.7283e-09

>  <r_epik_State_Penalty>  (89) 
-0

>  <r_epik_Charging_Adjusted_Penalty>  (89) 
0

>  <i_epik_Tot_Q>  (89) 
0

>  <i_epik_Tot_abs_Q>  (89) 
2

>  <s_epik_Chemistry_Notes>  (89) 
This compound has an ester and may undergo hydrolysis at high or low pH.

>  <s_lp_Force_Field>  (89) 
OPLS3e

>  <r_lp_Energy>  (89) 
33.1167

>  <b_lp_Chiralities_Consistent>  (89) 
1

>  <s_lp_Variant>  (89) 
61:0-1

>  <s_i_glide_gridfile>  (89) 
pfpi4k_grid

>  <i_i_glide_lignum>  (89) 
43

>  <i_i_glide_rotatable_bonds>  (89) 
1

>  <r_i_docking_score>  (89) 
-3.83203

>  <r_i_glide_ligand_efficiency>  (89) 
-0.182478

>  <r_i_glide_ligand_efficiency_sa>  (89) 
-0.503443

>  <r_i_glide_ligand_efficiency_ln>  (89) 
-0.947463

>  <r_i_glide_gscore>  (89) 
-3.83203

>  <r_i_glide_lipo>  (89) 
-0.665121

>  <r_i_glide_hbond>  (89) 
-0.32

>  <r_i_glide_metal>  (89) 
-0

>  <r_i_glide_rewards>  (89) 
-2.01452

>  <r_i_glide_evdw>  (89) 
-10.7364

>  <r_i_glide_ecoul>  (89) 
-1.86956

>  <r_i_glide_erotb>  (89) 
0

>  <r_i_glide_esite>  (89) 
-0.0151342

>  <r_i_glide_emodel>  (89) 
-17.1773

>  <r_i_glide_energy>  (89) 
-12.606

>  <r_i_glide_einternal>  (89) 
0.0720777

>  <r_i_glide_intrahb_reward>  (89) 
-0.5

>  <i_i_glide_confnum>  (89) 
1

>  <i_i_glide_posenum>  (89) 
3

>  <r_i_glide_eff_state_penalty>  (89) 
0

>  <ligand_id>  (89) 
61

>  <original_smiles>  (89) 
CC1=C2C3CC(=O)OC(C)(CC2(O)C(=O)C1)C(C)(C)[S+]3[O-]

>  <smiles>  (89) 
[H]OC12C(=O)C([H])([H])C(C([H])([H])[H])=C1C1([H])S(=O)C(C([H])([H])[H])(C([H])([H])[H])C(C([H])([H])[H])(OC(=O)C1([H])[H])C2([H])[H]

$$$$
61:0:1
     RDKit          3D

 41 43  0  0  1  0  0  0  0  0999 V2000
    1.0244   -4.4690   -1.5178 C   0  0  0  0  0  0  0  0  0  0  0  0
    2.0778   -3.4954   -2.0033 C   0  0  0  0  0  0  0  0  0  0  0  0
    3.0110   -2.9515   -1.2551 C   0  0  0  0  0  0  0  0  0  0  0  0
    3.1497   -3.1432    0.2563 C   0  0  1  0  0  0  0  0  0  0  0  0
    3.6329   -4.5508    0.6871 C   0  0  0  0  0  0  0  0  0  0  0  0
    4.7070   -5.2400   -0.1287 C   0  0  0  0  0  0  0  0  0  0  0  0
    4.5841   -6.4624   -0.2644 O   0  0  0  0  0  0  0  0  0  0  0  0
    5.7746   -4.5527   -0.5677 O   0  0  0  0  0  0  0  0  0  0  0  0
    6.0168   -3.1573   -0.7569 C   0  0  1  0  0  0  0  0  0  0  0  0
    7.5353   -3.2447   -1.1151 C   0  0  0  0  0  0  0  0  0  0  0  0
    5.3946   -2.6264   -2.0609 C   0  0  0  0  0  0  0  0  0  0  0  0
    3.9641   -2.1042   -2.0595 C   0  0  2  0  0  0  0  0  0  0  0  0
    3.9095   -0.7538   -1.7440 O   0  0  0  0  0  0  0  0  0  0  0  0
    3.3371   -2.2321   -3.4602 C   0  0  0  0  0  0  0  0  0  0  0  0
    3.7277   -1.6064   -4.4423 O   0  0  0  0  0  0  0  0  0  0  0  0
    2.1909   -3.2168   -3.4810 C   0  0  0  0  0  0  0  0  0  0  0  0
    5.8886   -2.2831    0.5367 C   0  0  0  0  0  0  0  0  0  0  0  0
    6.5459   -2.9943    1.6733 C   0  0  0  0  0  0  0  0  0  0  0  0
    6.4893   -0.8786    0.4153 C   0  0  0  0  0  0  0  0  0  0  0  0
    4.1782   -1.9620    1.2092 S   0  0  0  0  0  0  0  0  0  0  0  0
    3.7089   -0.5203    0.9425 O   0  0  0  0  0  0  0  0  0  0  0  0
    0.0475   -4.0185   -1.6692 H   0  0  0  0  0  0  0  0  0  0  0  0
    1.1496   -4.7024   -0.4827 H   0  0  0  0  0  0  0  0  0  0  0  0
    0.9940   -5.4414   -2.0284 H   0  0  0  0  0  0  0  0  0  0  0  0
    2.1422   -3.0275    0.6696 H   0  0  0  0  0  0  0  0  0  0  0  0
    3.9501   -4.5375    1.7328 H   0  0  0  0  0  0  0  0  0  0  0  0
    2.7678   -5.2317    0.6760 H   0  0  0  0  0  0  0  0  0  0  0  0
    7.9999   -2.2776   -1.3094 H   0  0  0  0  0  0  0  0  0  0  0  0
    7.6851   -3.8350   -2.0220 H   0  0  0  0  0  0  0  0  0  0  0  0
    8.1260   -3.7434   -0.3465 H   0  0  0  0  0  0  0  0  0  0  0  0
    6.0007   -1.7974   -2.4152 H   0  0  0  0  0  0  0  0  0  0  0  0
    5.4937   -3.4087   -2.8149 H   0  0  0  0  0  0  0  0  0  0  0  0
    2.9969   -0.5183   -1.6416 H   0  0  0  0  0  0  0  0  0  0  0  0
    2.4073   -4.1434   -3.9940 H   0  0  0  0  0  0  0  0  0  0  0  0
    1.2689   -2.7989   -3.8616 H   0  0  0  0  0  0  0  0  0  0  0  0
    7.6215   -3.0859    1.5551 H   0  0  0  0  0  0  0  0  0  0  0  0
    6.1603   -3.9862    1.8832 H   0  0  0  0  0  0  0  0  0  0  0  0
    6.3607   -2.3947    2.5698 H   0  0  0  0  0  0  0  0  0  0  0  0
    7.5869   -0.8890    0.3822 H   0  0  0  0  0  0  0  0  0  0  0  0
    6.2235   -0.2624    1.2836 H   0  0  0  0  0  0  0  0  0  0  0  0
    6.1280   -0.3414   -0.4662 H   0  0  0  0  0  0  0  0  0  0  0  0
  1  2  1  0
  1 22  1  0
  1 23  1  0
  1 24  1  0
  2 16  1  0
  2  3  2  0
  3 12  1  0
  3  4  1  0
  4 20  1  0
  4  5  1  0
  4 25  1  1
  5  6  1  0
  5 26  1  0
  5 27  1  0
  6  7  2  0
  6  8  1  0
  8  9  1  0
  9 10  1  6
  9 11  1  0
  9 17  1  0
 10 28  1  0
 10 29  1  0
 10 30  1  0
 11 12  1  0
 11 31  1  0
 11 32  1  0
 12 13  1  1
 12 14  1  0
 13 33  1  0
 14 15  2  0
 14 16  1  0
 16 34  1  0
 16 35  1  0
 17 18  1  0
 17 19  1  0
 20 17  1  6
 18 36  1  0
 18 37  1  0
 18 38  1  0
 19 39  1  0
 19 40  1  0
 19 41  1  0
 20 21  2  0
M  END
>  <i_m_ct_stereo_status>  (90) 
1

>  <s_m_source_file>  (90) 
/var/tmp/pbs.5075288.sched01/tmpjyqx9nt_/132xb3bh5wq.sdf

>  <i_m_source_file_index>  (90) 
43

>  <i_lp_mmshare_version>  (90) 
48012

>  <i_f3d_flags>  (90) 
0

>  <s_epik_input>  (90) 
W0NIM11DPTFbQ0gyXUMoPU8pW0NAQF0oW0NIMl0yKShbT0hdKUMxW0NASF0oW1MrXShbTy1dKUMzKFtDSDNdKVtDSDNdKVtDSDJdQyg9TylPW0NAQF0yM1tDSDNd

>  <s_epik_cmdline>  (90) 
J2VwaWtfcHl0aG9uJywgJy1waHQnLCAnMi4wJywgJy1waCcsICc3LjAnLCAnLXRuJywgJzgnLCAnLW1hJywgJzIwMCcsICctaW1hZScsICc8aW5maWxlLm1hZT4nLCAnLW9tYWUnLCAnPG91dGZpbGUubWFlPic=

>  <r_lp_tautomer_probability>  (90) 
1

>  <r_epik_Ionization_Penalty>  (90) 
6.7283e-09

>  <r_epik_Ionization_Penalty_Charging>  (90) 
0

>  <r_epik_Ionization_Penalty_Neutral>  (90) 
6.7283e-09

>  <r_epik_State_Penalty>  (90) 
-0

>  <r_epik_Charging_Adjusted_Penalty>  (90) 
0

>  <i_epik_Tot_Q>  (90) 
0

>  <i_epik_Tot_abs_Q>  (90) 
2

>  <s_epik_Chemistry_Notes>  (90) 
This compound has an ester and may undergo hydrolysis at high or low pH.

>  <s_lp_Force_Field>  (90) 
OPLS3e

>  <r_lp_Energy>  (90) 
33.1167

>  <b_lp_Chiralities_Consistent>  (90) 
1

>  <s_lp_Variant>  (90) 
61:0-1

>  <s_i_glide_gridfile>  (90) 
pfpi4k_grid

>  <i_i_glide_lignum>  (90) 
43

>  <i_i_glide_rotatable_bonds>  (90) 
1

>  <r_i_docking_score>  (90) 
-3.58636

>  <r_i_glide_ligand_efficiency>  (90) 
-0.170779

>  <r_i_glide_ligand_efficiency_sa>  (90) 
-0.471166

>  <r_i_glide_ligand_efficiency_ln>  (90) 
-0.886719

>  <r_i_glide_gscore>  (90) 
-3.58636

>  <r_i_glide_lipo>  (90) 
-0.664689

>  <r_i_glide_hbond>  (90) 
-0.32

>  <r_i_glide_metal>  (90) 
-0

>  <r_i_glide_rewards>  (90) 
-1.53853

>  <r_i_glide_evdw>  (90) 
-12.5352

>  <r_i_glide_ecoul>  (90) 
-2.82575

>  <r_i_glide_erotb>  (90) 
0

>  <r_i_glide_esite>  (90) 
-0.0125184

>  <r_i_glide_emodel>  (90) 
-14.381

>  <r_i_glide_energy>  (90) 
-15.3609

>  <r_i_glide_einternal>  (90) 
1.75028

>  <r_i_glide_intrahb_reward>  (90) 
-0

>  <i_i_glide_confnum>  (90) 
1

>  <i_i_glide_posenum>  (90) 
35

>  <r_i_glide_eff_state_penalty>  (90) 
0

>  <ligand_id>  (90) 
61

>  <original_smiles>  (90) 
CC1=C2C3CC(=O)OC(C)(CC2(O)C(=O)C1)C(C)(C)[S+]3[O-]

>  <smiles>  (90) 
[H]OC12C(=O)C([H])([H])C(C([H])([H])[H])=C1C1([H])S(=O)C(C([H])([H])[H])(C([H])([H])[H])C(C([H])([H])[H])(OC(=O)C1([H])[H])C2([H])[H]

$$$$
61:0:2
     RDKit          3D

 41 43  0  0  1  0  0  0  0  0999 V2000
    1.3201   -3.8719   -1.8129 C   0  0  0  0  0  0  0  0  0  0  0  0
    2.5810   -3.0958   -1.6299 C   0  0  0  0  0  0  0  0  0  0  0  0
    3.1273   -2.7555   -0.4731 C   0  0  0  0  0  0  0  0  0  0  0  0
    2.6412   -3.1882    0.8824 C   0  0  1  0  0  0  0  0  0  0  0  0
    2.7366   -4.6849    1.1502 C   0  0  0  0  0  0  0  0  0  0  0  0
    4.0142   -5.3782    0.6883 C   0  0  0  0  0  0  0  0  0  0  0  0
    3.9432   -6.5033    0.2133 O   0  0  0  0  0  0  0  0  0  0  0  0
    5.1939   -4.7799    0.8792 O   0  0  0  0  0  0  0  0  0  0  0  0
    5.5065   -3.4072    1.1211 C   0  0  1  0  0  0  0  0  0  0  0  0
    6.9797   -3.6946    1.2667 C   0  0  0  0  0  0  0  0  0  0  0  0
    5.5601   -2.5362   -0.1675 C   0  0  0  0  0  0  0  0  0  0  0  0
    4.2885   -1.8553   -0.6305 C   0  0  2  0  0  0  0  0  0  0  0  0
    4.1226   -0.6006    0.0031 O   0  0  0  0  0  0  0  0  0  0  0  0
    4.2720   -1.6667   -2.1422 C   0  0  0  0  0  0  0  0  0  0  0  0
    4.9968   -0.8979   -2.7088 O   0  0  0  0  0  0  0  0  0  0  0  0
    3.2275   -2.5226   -2.8612 C   0  0  0  0  0  0  0  0  0  0  0  0
    4.9473   -2.7302    2.4622 C   0  0  0  0  0  0  0  0  0  0  0  0
    5.0045   -3.6645    3.6908 C   0  0  0  0  0  0  0  0  0  0  0  0
    5.5402   -1.3353    2.7869 C   0  0  0  0  0  0  0  0  0  0  0  0
    3.1444   -2.3186    2.4149 S   0  0  0  0  0  0  0  0  0  0  0  0
    2.9715   -0.8094    2.1851 O   0  0  0  0  0  0  0  0  0  0  0  0
    0.6750   -3.1571   -2.3171 H   0  0  0  0  0  0  0  0  0  0  0  0
    0.8781   -4.3190   -0.9320 H   0  0  0  0  0  0  0  0  0  0  0  0
    1.4682   -4.6568   -2.5352 H   0  0  0  0  0  0  0  0  0  0  0  0
    1.6450   -2.8063    0.8799 H   0  0  0  0  0  0  0  0  0  0  0  0
    2.6026   -4.8857    2.2048 H   0  0  0  0  0  0  0  0  0  0  0  0
    1.9358   -5.1959    0.6236 H   0  0  0  0  0  0  0  0  0  0  0  0
    7.4141   -2.7207    1.4594 H   0  0  0  0  0  0  0  0  0  0  0  0
    7.4498   -4.1273    0.3751 H   0  0  0  0  0  0  0  0  0  0  0  0
    7.1378   -4.3843    2.0942 H   0  0  0  0  0  0  0  0  0  0  0  0
    6.3127   -1.7445   -0.0882 H   0  0  0  0  0  0  0  0  0  0  0  0
    5.9069   -3.1869   -0.9729 H   0  0  0  0  0  0  0  0  0  0  0  0
    3.7433   -0.6884    0.8881 H   0  0  0  0  0  0  0  0  0  0  0  0
    3.5981   -3.3159   -3.5229 H   0  0  0  0  0  0  0  0  0  0  0  0
    2.5162   -1.9313   -3.4452 H   0  0  0  0  0  0  0  0  0  0  0  0
    6.0110   -3.8536    4.0336 H   0  0  0  0  0  0  0  0  0  0  0  0
    4.5615   -4.6371    3.4838 H   0  0  0  0  0  0  0  0  0  0  0  0
    4.4579   -3.2416    4.5401 H   0  0  0  0  0  0  0  0  0  0  0  0
    6.5883   -1.4087    3.0392 H   0  0  0  0  0  0  0  0  0  0  0  0
    5.0071   -0.8585    3.6188 H   0  0  0  0  0  0  0  0  0  0  0  0
    5.5482   -0.6429    1.9521 H   0  0  0  0  0  0  0  0  0  0  0  0
  1  2  1  0
  1 22  1  0
  1 23  1  0
  1 24  1  0
  2 16  1  0
  2  3  2  0
  3 12  1  0
  3  4  1  0
  4 20  1  0
  4  5  1  0
  4 25  1  6
  5  6  1  0
  5 26  1  0
  5 27  1  0
  6  7  2  0
  6  8  1  0
  8  9  1  0
  9 10  1  1
  9 11  1  0
  9 17  1  0
 10 28  1  0
 10 29  1  0
 10 30  1  0
 11 12  1  0
 11 31  1  0
 11 32  1  0
 12 13  1  1
 12 14  1  0
 13 33  1  0
 14 15  2  0
 14 16  1  0
 16 34  1  0
 16 35  1  0
 17 18  1  0
 17 19  1  0
 20 17  1  6
 18 36  1  0
 18 37  1  0
 18 38  1  0
 19 39  1  0
 19 40  1  0
 19 41  1  0
 20 21  2  0
M  END
>  <i_m_ct_stereo_status>  (91) 
1

>  <s_m_source_file>  (91) 
/var/tmp/pbs.5075288.sched01/tmpjyqx9nt_/132xb3bh5wq.sdf

>  <i_m_source_file_index>  (91) 
43

>  <i_lp_mmshare_version>  (91) 
48012

>  <i_f3d_flags>  (91) 
0

>  <s_epik_input>  (91) 
W0NIM11DPTFbQ0gyXUMoPU8pW0NAQF0oW0NIMl0yKShbT0hdKUMxW0NASF0oW1MrXShbTy1dKUMzKFtDSDNdKVtDSDNdKVtDSDJdQyg9TylPW0NAQF0yM1tDSDNd

>  <s_epik_cmdline>  (91) 
J2VwaWtfcHl0aG9uJywgJy1waHQnLCAnMi4wJywgJy1waCcsICc3LjAnLCAnLXRuJywgJzgnLCAnLW1hJywgJzIwMCcsICctaW1hZScsICc8aW5maWxlLm1hZT4nLCAnLW9tYWUnLCAnPG91dGZpbGUubWFlPic=

>  <r_lp_tautomer_probability>  (91) 
1

>  <r_epik_Ionization_Penalty>  (91) 
6.7283e-09

>  <r_epik_Ionization_Penalty_Charging>  (91) 
0

>  <r_epik_Ionization_Penalty_Neutral>  (91) 
6.7283e-09

>  <r_epik_State_Penalty>  (91) 
-0

>  <r_epik_Charging_Adjusted_Penalty>  (91) 
0

>  <i_epik_Tot_Q>  (91) 
0

>  <i_epik_Tot_abs_Q>  (91) 
2

>  <s_epik_Chemistry_Notes>  (91) 
This compound has an ester and may undergo hydrolysis at high or low pH.

>  <s_lp_Force_Field>  (91) 
OPLS3e

>  <r_lp_Energy>  (91) 
33.1167

>  <b_lp_Chiralities_Consistent>  (91) 
1

>  <s_lp_Variant>  (91) 
61:0-1

>  <s_i_glide_gridfile>  (91) 
pfpi4k_grid

>  <i_i_glide_lignum>  (91) 
43

>  <i_i_glide_rotatable_bonds>  (91) 
1

>  <r_i_docking_score>  (91) 
-2.7157

>  <r_i_glide_ligand_efficiency>  (91) 
-0.129319

>  <r_i_glide_ligand_efficiency_sa>  (91) 
-0.356782

>  <r_i_glide_ligand_efficiency_ln>  (91) 
-0.671452

>  <r_i_glide_gscore>  (91) 
-2.7157

>  <r_i_glide_lipo>  (91) 
-0.336169

>  <r_i_glide_hbond>  (91) 
0

>  <r_i_glide_metal>  (91) 
-0

>  <r_i_glide_rewards>  (91) 
-1.82114

>  <r_i_glide_evdw>  (91) 
-8.30774

>  <r_i_glide_ecoul>  (91) 
-0.763186

>  <r_i_glide_erotb>  (91) 
0

>  <r_i_glide_esite>  (91) 
-0.0285268

>  <r_i_glide_emodel>  (91) 
-13.2332

>  <r_i_glide_energy>  (91) 
-9.07093

>  <r_i_glide_einternal>  (91) 
0.357448

>  <r_i_glide_intrahb_reward>  (91) 
-0.5

>  <i_i_glide_confnum>  (91) 
1

>  <i_i_glide_posenum>  (91) 
5

>  <r_i_glide_eff_state_penalty>  (91) 
0

>  <ligand_id>  (91) 
61

>  <original_smiles>  (91) 
CC1=C2C3CC(=O)OC(C)(CC2(O)C(=O)C1)C(C)(C)[S+]3[O-]

>  <smiles>  (91) 
[H]OC12C(=O)C([H])([H])C(C([H])([H])[H])=C1C1([H])S(=O)C(C([H])([H])[H])(C([H])([H])[H])C(C([H])([H])[H])(OC(=O)C1([H])[H])C2([H])[H]

$$$$
63:0:0
     RDKit          3D

129136  0  0  1  0  0  0  0  0999 V2000
    4.6746   -3.7810    6.5495 C   0  0  0  0  0  0  0  0  0  0  0  0
    4.4996   -3.6423    5.2383 C   0  0  0  0  0  0  0  0  0  0  0  0
    5.7550   -3.4597    4.3873 C   0  0  0  0  0  0  0  0  0  0  0  0
    3.1361   -3.6013    4.4531 C   0  0  1  0  0  0  0  0  0  0  0  0
    3.1668   -4.7467    3.3919 C   0  0  0  0  0  0  0  0  0  0  0  0
    3.4883   -6.2467    3.7253 C   0  0  0  0  0  0  0  0  0  0  0  0
    2.6476   -7.2651    4.6244 C   0  0  2  0  0  0  0  0  0  0  0  0
    1.3929   -7.7318    3.7727 C   0  0  2  0  0  0  0  0  0  0  0  0
    0.6252   -6.5466    3.1352 C   0  0  1  0  0  0  0  0  0  0  0  0
   -0.5646   -6.9602    2.5336 O   0  0  0  0  0  0  0  0  0  0  0  0
   -0.4072   -7.8340    1.4321 C   0  0  0  0  0  0  0  0  0  0  0  0
    0.3409   -5.5374    4.0663 O   0  0  0  0  0  0  0  0  0  0  0  0
    1.1443   -5.3061    5.2398 C   0  0  2  0  0  0  0  0  0  0  0  0
    1.7690   -3.8537    5.2957 C   0  0  1  0  0  0  0  0  0  0  0  0
    1.4689   -3.2455    6.7262 C   0  0  0  0  0  0  0  0  0  0  0  0
    1.9083   -1.9312    7.1189 O   0  0  0  0  0  0  0  0  0  0  0  0
    1.1097   -0.7493    7.1597 C   0  0  0  0  0  0  0  0  0  0  0  0
   -0.3868   -1.0573    7.1767 C   0  0  0  0  0  0  0  0  0  0  0  0
    1.4555   -0.0117    8.4600 C   0  0  0  0  0  0  0  0  0  0  0  0
    1.4057    0.1496    6.1207 O   0  0  0  0  0  0  0  0  0  0  0  0
    1.5338   -0.5267    4.8751 C   0  0  1  0  0  0  0  0  0  0  0  0
    1.2029    0.1704    3.5628 C   0  0  1  0  0  0  0  0  0  0  0  0
    0.4641    1.3608    2.9883 C   0  0  1  0  0  0  0  0  0  0  0  0
    0.1855    2.5474    3.9206 C   0  0  0  0  0  0  0  0  0  0  0  0
    1.4751    1.5709    1.8227 C   0  0  0  0  0  0  0  0  0  0  0  0
    2.6085    0.6843    2.0785 O   0  0  0  0  0  0  0  0  0  0  0  0
    2.6697    0.5007    3.4751 C   0  0  1  0  0  0  0  0  0  0  0  0
    3.1021    1.6786    4.1159 O   0  0  0  0  0  0  0  0  0  0  0  0
    2.9786   -0.8387    4.2703 C   0  0  1  0  0  0  0  0  0  0  0  0
    4.3157   -0.5506    5.0520 C   0  0  0  0  0  0  0  0  0  0  0  0
    4.4571   -0.5553    6.3696 C   0  0  0  0  0  0  0  0  0  0  0  0
    5.5431   -0.2136    4.1918 C   0  0  0  0  0  0  0  0  0  0  0  0
    2.9676   -2.2582    3.5712 C   0  0  1  0  0  0  0  0  0  0  0  0
    3.8116   -2.1135    2.4293 O   0  0  0  0  0  0  0  0  0  0  0  0
    3.3845   -2.3663    1.1613 C   0  0  0  0  0  0  0  0  0  0  0  0
    2.2661   -2.7986    0.8830 O   0  0  0  0  0  0  0  0  0  0  0  0
    4.4489   -2.1054    0.0668 C   0  0  0  0  0  0  0  0  0  0  0  0
    3.8289   -2.3098   -1.3331 C   0  0  0  0  0  0  0  0  0  0  0  0
    5.6246   -3.0913    0.2305 C   0  0  0  0  0  0  0  0  0  0  0  0
    4.9808   -0.6639    0.1924 C   0  0  0  0  0  0  0  0  0  0  0  0
    1.9708   -6.5226    5.8121 C   0  0  2  0  0  0  0  0  0  0  0  0
    3.0357   -6.0729    6.6038 O   0  0  0  0  0  0  0  0  0  0  0  0
    1.1714   -7.4669    6.8145 C   0  0  1  0  0  0  0  0  0  0  0  0
   -0.0290   -6.8762    7.3119 O   0  0  0  0  0  0  0  0  0  0  0  0
   -0.0526   -5.9572    8.3264 C   0  0  0  0  0  0  0  0  0  0  0  0
    1.1990   -5.8896    9.2044 C   0  0  0  0  0  0  0  0  0  0  0  0
   -1.0148   -5.2190    8.5285 O   0  0  0  0  0  0  0  0  0  0  0  0
    0.9582   -8.9354    6.3121 C   0  0  2  0  0  0  0  0  0  0  0  0
   -0.0353   -9.7183    7.2121 C   0  0  0  0  0  0  0  0  0  0  0  0
    2.3013   -9.7370    6.1677 C   0  0  2  0  0  0  0  0  0  0  0  0
    3.3124   -8.7446    6.5286 O   0  0  0  0  0  0  0  0  0  0  0  0
    3.6032   -8.5238    5.1058 C   0  0  2  0  0  0  0  0  0  0  0  0
    5.1581   -8.2245    5.1678 C   0  0  0  0  0  0  0  0  0  0  0  0
    5.8561   -8.4352    3.8077 C   0  0  0  0  0  0  0  0  0  0  0  0
    6.0197   -8.9435    6.2444 C   0  0  0  0  0  0  0  0  0  0  0  0
    3.1496  -10.0117    4.8968 C   0  0  1  0  0  0  0  0  0  0  0  0
    4.1336  -10.9981    5.1767 O   0  0  0  0  0  0  0  0  0  0  0  0
    2.6180  -10.6277    3.5687 C   0  0  0  0  0  0  0  0  0  0  0  0
    3.4259  -10.2257    2.4737 O   0  0  0  0  0  0  0  0  0  0  0  0
    0.1374   -8.8073    4.6697 S   0  0  0  0  0  0  0  0  0  0  0  0
   -1.1679   -8.0273    4.8700 O   0  0  0  0  0  0  0  0  0  0  0  0
    5.6852   -3.8074    6.9715 H   0  0  0  0  0  0  0  0  0  0  0  0
    3.9042   -3.9124    7.2957 H   0  0  0  0  0  0  0  0  0  0  0  0
    5.6845   -2.7165    3.6757 H   0  0  0  0  0  0  0  0  0  0  0  0
    6.0783   -4.4035    3.9545 H   0  0  0  0  0  0  0  0  0  0  0  0
    6.5132   -3.1407    5.0955 H   0  0  0  0  0  0  0  0  0  0  0  0
    2.2993   -4.6144    2.7620 H   0  0  0  0  0  0  0  0  0  0  0  0
    3.9742   -4.5230    2.7037 H   0  0  0  0  0  0  0  0  0  0  0  0
    3.5675   -6.7340    2.7533 H   0  0  0  0  0  0  0  0  0  0  0  0
    4.5079   -6.1398    4.0533 H   0  0  0  0  0  0  0  0  0  0  0  0
    1.8041   -8.2844    2.9266 H   0  0  0  0  0  0  0  0  0  0  0  0
    1.1912   -6.1537    2.3044 H   0  0  0  0  0  0  0  0  0  0  0  0
   -1.3822   -8.1737    1.0870 H   0  0  0  0  0  0  0  0  0  0  0  0
    0.1212   -8.7455    1.6795 H   0  0  0  0  0  0  0  0  0  0  0  0
    0.0934   -7.3415    0.5999 H   0  0  0  0  0  0  0  0  0  0  0  0
    0.2807   -5.1553    5.8613 H   0  0  0  0  0  0  0  0  0  0  0  0
    1.0103   -3.3720    4.6832 H   0  0  0  0  0  0  0  0  0  0  0  0
    0.4223   -3.3813    6.9614 H   0  0  0  0  0  0  0  0  0  0  0  0
    1.9206   -3.8834    7.4713 H   0  0  0  0  0  0  0  0  0  0  0  0
   -0.7467   -1.5873    6.2949 H   0  0  0  0  0  0  0  0  0  0  0  0
   -0.9689   -0.1330    7.2765 H   0  0  0  0  0  0  0  0  0  0  0  0
   -0.5402   -1.6883    8.0613 H   0  0  0  0  0  0  0  0  0  0  0  0
    2.5140    0.2191    8.5092 H   0  0  0  0  0  0  0  0  0  0  0  0
    1.1983   -0.6127    9.3424 H   0  0  0  0  0  0  0  0  0  0  0  0
    0.9145    0.9399    8.5208 H   0  0  0  0  0  0  0  0  0  0  0  0
    0.8501   -1.3667    4.8596 H   0  0  0  0  0  0  0  0  0  0  0  0
    0.9465   -0.6421    2.8951 H   0  0  0  0  0  0  0  0  0  0  0  0
   -0.4897    1.0538    2.5478 H   0  0  0  0  0  0  0  0  0  0  0  0
    1.0806    3.0318    4.3134 H   0  0  0  0  0  0  0  0  0  0  0  0
   -0.4106    2.2265    4.7804 H   0  0  0  0  0  0  0  0  0  0  0  0
   -0.3793    3.3196    3.3984 H   0  0  0  0  0  0  0  0  0  0  0  0
    1.0392    1.2424    0.8757 H   0  0  0  0  0  0  0  0  0  0  0  0
    1.7977    2.6084    1.7158 H   0  0  0  0  0  0  0  0  0  0  0  0
    3.7787    2.0683    3.5964 H   0  0  0  0  0  0  0  0  0  0  0  0
    3.6772   -0.7441    7.0736 H   0  0  0  0  0  0  0  0  0  0  0  0
    5.4122   -0.3618    6.8310 H   0  0  0  0  0  0  0  0  0  0  0  0
    5.7538   -0.8885    3.4017 H   0  0  0  0  0  0  0  0  0  0  0  0
    6.4143   -0.1964    4.8517 H   0  0  0  0  0  0  0  0  0  0  0  0
    5.4808    0.8239    3.8114 H   0  0  0  0  0  0  0  0  0  0  0  0
    1.9762   -2.3678    3.1522 H   0  0  0  0  0  0  0  0  0  0  0  0
    4.5613   -2.1437   -2.1249 H   0  0  0  0  0  0  0  0  0  0  0  0
    3.0024   -1.6200   -1.5041 H   0  0  0  0  0  0  0  0  0  0  0  0
    3.4416   -3.3209   -1.4574 H   0  0  0  0  0  0  0  0  0  0  0  0
    5.3025   -4.1274    0.1267 H   0  0  0  0  0  0  0  0  0  0  0  0
    6.1193   -2.9875    1.1967 H   0  0  0  0  0  0  0  0  0  0  0  0
    6.3765   -2.9125   -0.5356 H   0  0  0  0  0  0  0  0  0  0  0  0
    5.8012   -0.4865   -0.5041 H   0  0  0  0  0  0  0  0  0  0  0  0
    5.3615   -0.4512    1.1908 H   0  0  0  0  0  0  0  0  0  0  0  0
    4.2024    0.0723   -0.0155 H   0  0  0  0  0  0  0  0  0  0  0  0
    3.4889   -6.8579    6.8945 H   0  0  0  0  0  0  0  0  0  0  0  0
    1.7689   -7.6435    7.7171 H   0  0  0  0  0  0  0  0  0  0  0  0
    1.3352   -6.8212    9.7430 H   0  0  0  0  0  0  0  0  0  0  0  0
    1.1185   -5.0562    9.9017 H   0  0  0  0  0  0  0  0  0  0  0  0
    2.0681   -5.7026    8.5780 H   0  0  0  0  0  0  0  0  0  0  0  0
    0.2942   -9.7635    8.2547 H   0  0  0  0  0  0  0  0  0  0  0  0
   -0.1823  -10.7381    6.8479 H   0  0  0  0  0  0  0  0  0  0  0  0
   -1.0287   -9.2697    7.1966 H   0  0  0  0  0  0  0  0  0  0  0  0
    2.3555  -10.5714    6.8548 H   0  0  0  0  0  0  0  0  0  0  0  0
    5.3018   -7.1995    5.5010 H   0  0  0  0  0  0  0  0  0  0  0  0
    5.9215   -9.4953    3.5587 H   0  0  0  0  0  0  0  0  0  0  0  0
    6.8713   -8.0357    3.8208 H   0  0  0  0  0  0  0  0  0  0  0  0
    5.3418   -7.9597    2.9771 H   0  0  0  0  0  0  0  0  0  0  0  0
    6.1738  -10.0037    6.0522 H   0  0  0  0  0  0  0  0  0  0  0  0
    5.6289   -8.8338    7.2560 H   0  0  0  0  0  0  0  0  0  0  0  0
    7.0217   -8.5115    6.2633 H   0  0  0  0  0  0  0  0  0  0  0  0
    3.6879  -11.7341    5.5750 H   0  0  0  0  0  0  0  0  0  0  0  0
    2.5955  -11.7284    3.6092 H   0  0  0  0  0  0  0  0  0  0  0  0
    1.5998  -10.3818    3.3209 H   0  0  0  0  0  0  0  0  0  0  0  0
    3.4680  -10.9333    1.8328 H   0  0  0  0  0  0  0  0  0  0  0  0
  1  2  2  0
  1 62  1  0
  1 63  1  0
  2  3  1  0
  4  2  1  1
  3 64  1  0
  3 65  1  0
  3 66  1  0
  4 14  1  0
  4 33  1  0
  4  5  1  0
  5  6  1  0
  5 67  1  0
  5 68  1  0
  7  6  1  6
  6 69  1  0
  6 70  1  0
  7 41  1  0
  7 52  1  0
  7  8  1  0
  8 60  1  0
  8  9  1  0
  8 71  1  6
  9 10  1  0
  9 12  1  0
  9 72  1  6
 10 11  1  0
 11 73  1  0
 11 74  1  0
 11 75  1  0
 12 13  1  0
 13 14  1  0
 13 41  1  0
 13 76  1  1
 14 15  1  0
 14 77  1  6
 15 16  1  0
 15 78  1  0
 15 79  1  0
 16 17  1  0
 17 18  1  0
 17 19  1  0
 17 20  1  0
 18 80  1  0
 18 81  1  0
 18 82  1  0
 19 83  1  0
 19 84  1  0
 19 85  1  0
 20 21  1  0
 21 29  1  0
 21 22  1  0
 21 86  1  1
 22 27  1  0
 22 23  1  0
 22 87  1  6
 23 24  1  0
 23 25  1  0
 23 88  1  6
 24 89  1  0
 24 90  1  0
 24 91  1  0
 25 26  1  0
 25 92  1  0
 25 93  1  0
 26 27  1  0
 27 28  1  1
 27 29  1  0
 28 94  1  0
 29 30  1  1
 29 33  1  0
 30 31  2  0
 30 32  1  0
 31 95  1  0
 31 96  1  0
 32 97  1  0
 32 98  1  0
 32 99  1  0
 33 34  1  0
 33100  1  6
 34 35  1  0
 35 36  2  0
 35 37  1  0
 37 38  1  0
 37 39  1  0
 37 40  1  0
 38101  1  0
 38102  1  0
 38103  1  0
 39104  1  0
 39105  1  0
 39106  1  0
 40107  1  0
 40108  1  0
 40109  1  0
 41 42  1  1
 41 43  1  0
 42110  1  0
 43 44  1  0
 43 48  1  0
 43111  1  1
 44 45  1  0
 45 46  1  0
 45 47  2  0
 46112  1  0
 46113  1  0
 46114  1  0
 48 49  1  1
 48 50  1  0
 60 48  1  1
 49115  1  0
 49116  1  0
 49117  1  0
 50 56  1  0
 50 51  1  0
 50118  1  1
 51 52  1  0
 52 53  1  1
 52 56  1  0
 53 54  1  0
 53 55  1  0
 53119  1  0
 54120  1  0
 54121  1  0
 54122  1  0
 55123  1  0
 55124  1  0
 55125  1  0
 56 57  1  1
 56 58  1  0
 57126  1  0
 58 59  1  0
 58127  1  0
 58128  1  0
 59129  1  0
 60 61  2  0
M  END
>  <i_m_ct_stereo_status>  (92) 
1

>  <s_m_source_file>  (92) 
/var/tmp/pbs.5075288.sched01/tmpjyqx9nt_/132xb3bh5wq.sdf

>  <i_m_source_file_index>  (92) 
46

>  <i_lp_mmshare_version>  (92) 
48012

>  <i_f3d_flags>  (92) 
0

>  <s_epik_input>  (92) 
W0NIM11bQ0BIXTFbQ0gyXU9bQ0BAXTIoW09IXSlbQ0BIXTFbQ0BIXShPQyhbQ0gzXSkoW0NIM10pT1tDSDJdMylbQ0BAXTIoQyg9W0NIMl0pW0NIM10pW0NAQEhdKE9DKD1PKUMoW0NIM10pKFtDSDNdKVtDSDNdKVtDQF0oQyg9W0NIMl0pW0NIM10pKFtDSDJdW0NIMl00KVtDQEhdM1tDQEBIXShPW0NAQEhdKFtDQEhdNVtDQEBdNDY3KU9bQ0gzXSlbQ0BAXTYoW09IXSlbQ0BASF0oT0MoPU8pW0NIM10pW0NAQF0oW0NIM10pKFtTK101W08tXSlbQ0BASF04T1tDQEBdNyhbQ0hdKFtDSDNdKVtDSDNdKVtDQF04KFtPSF0pW0NIMl1bT0hd

>  <s_epik_cmdline>  (92) 
J2VwaWtfcHl0aG9uJywgJy1waHQnLCAnMi4wJywgJy1waCcsICc3LjAnLCAnLXRuJywgJzgnLCAnLW1hJywgJzIwMCcsICctaW1hZScsICc8aW5maWxlLm1hZT4nLCAnLW9tYWUnLCAnPG91dGZpbGUubWFlPic=

>  <r_lp_tautomer_probability>  (92) 
1

>  <r_epik_Ionization_Penalty>  (92) 
9.55605e-07

>  <r_epik_Ionization_Penalty_Charging>  (92) 
0

>  <r_epik_Ionization_Penalty_Neutral>  (92) 
9.55605e-07

>  <r_epik_State_Penalty>  (92) 
-0

>  <r_epik_Charging_Adjusted_Penalty>  (92) 
0

>  <i_epik_Tot_Q>  (92) 
0

>  <i_epik_Tot_abs_Q>  (92) 
2

>  <s_epik_Chemistry_Notes>  (92) 
This compound has an ester and may undergo hydrolysis at high or low pH. This compound contains an acetal/aminal-like group ( X-CH(R)-Y where X, Y are N, S, or O) that may be acid/base labile, releasing an aldehyde.

>  <s_lp_Force_Field>  (92) 
OPLS3e

>  <r_lp_Energy>  (92) 
233.447

>  <b_lp_Chiralities_Consistent>  (92) 
1

>  <s_lp_Variant>  (92) 
63:0-1

>  <s_i_glide_gridfile>  (92) 
pfpi4k_grid

>  <i_i_glide_lignum>  (92) 
46

>  <i_i_glide_rotatable_bonds>  (92) 
14

>  <r_i_docking_score>  (92) 
-3.48964

>  <r_i_glide_ligand_efficiency>  (92) 
-0.0572073

>  <r_i_glide_ligand_efficiency_sa>  (92) 
-0.225196

>  <r_i_glide_ligand_efficiency_ln>  (92) 
-0.682788

>  <r_i_glide_gscore>  (92) 
-3.48964

>  <r_i_glide_lipo>  (92) 
-0.240852

>  <r_i_glide_hbond>  (92) 
-0.170467

>  <r_i_glide_metal>  (92) 
-0

>  <r_i_glide_rewards>  (92) 
-0.5

>  <r_i_glide_evdw>  (92) 
-32.0701

>  <r_i_glide_ecoul>  (92) 
-7.61816

>  <r_i_glide_erotb>  (92) 
0.170059

>  <r_i_glide_esite>  (92) 
-0.132678

>  <r_i_glide_emodel>  (92) 
-43.9218

>  <r_i_glide_energy>  (92) 
-39.6883

>  <r_i_glide_einternal>  (92) 
12.8797

>  <r_i_glide_intrahb_reward>  (92) 
-0.5

>  <i_i_glide_confnum>  (92) 
1

>  <i_i_glide_posenum>  (92) 
17

>  <r_i_glide_eff_state_penalty>  (92) 
0

>  <ligand_id>  (92) 
63

>  <original_smiles>  (92) 
C=C(C)C12CCC34C5C(OC)OC(C1COC(C)(C)OC1C6C(C)COC6(O)C1(C(=C)C)C2OC(=O)C(C)(C)C)C3(O)C(OC(C)=O)C(C)(C1OC4(C(C)C)C1(O)CO)[S+]5[O-]

>  <smiles>  (92) 
[H]OC([H])([H])C1(O[H])C2([H])OC1(C([H])(C([H])([H])[H])C([H])([H])[H])C13C([H])([H])C([H])([H])C4(C(=C([H])[H])C([H])([H])[H])C([H])(OC(=O)C(C([H])([H])[H])(C([H])([H])[H])C([H])([H])[H])C5(C(=C([H])[H])C([H])([H])[H])C([H])(OC(C([H])([H])[H])(C([H])([H])[H])OC([H])([H])C4([H])C4([H])OC([H])(OC([H])([H])[H])C1([H])S(=O)C2(C([H])([H])[H])C([H])(OC(=O)C([H])([H])[H])C43O[H])C1([H])C5(O[H])OC([H])([H])C1([H])C([H])([H])[H]

$$$$
63:0:1
     RDKit          3D

129136  0  0  1  0  0  0  0  0999 V2000
    5.7688   -4.5921    3.2707 C   0  0  0  0  0  0  0  0  0  0  0  0
    4.7471   -4.3437    4.1209 C   0  0  0  0  0  0  0  0  0  0  0  0
    5.0991   -4.2715    5.6233 C   0  0  0  0  0  0  0  0  0  0  0  0
    3.2941   -4.1536    3.5707 C   0  0  1  0  0  0  0  0  0  0  0  0
    3.0149   -5.2935    2.5165 C   0  0  0  0  0  0  0  0  0  0  0  0
    3.2519   -6.8189    2.8462 C   0  0  0  0  0  0  0  0  0  0  0  0
    2.4892   -7.7486    3.8918 C   0  0  2  0  0  0  0  0  0  0  0  0
    1.0616   -8.0735    3.2901 C   0  0  2  0  0  0  0  0  0  0  0  0
    0.2958   -6.8301    2.7943 C   0  0  1  0  0  0  0  0  0  0  0  0
   -1.0212   -7.1626    2.4492 O   0  0  0  0  0  0  0  0  0  0  0  0
   -1.1630   -8.2448    1.5233 C   0  0  0  0  0  0  0  0  0  0  0  0
    0.3145   -5.7784    3.7185 O   0  0  0  0  0  0  0  0  0  0  0  0
    1.3237   -5.6327    4.7348 C   0  0  2  0  0  0  0  0  0  0  0  0
    2.0802   -4.2570    4.6229 C   0  0  1  0  0  0  0  0  0  0  0  0
    2.0886   -3.6084    6.0631 C   0  0  0  0  0  0  0  0  0  0  0  0
    2.7226   -2.3627    6.3320 O   0  0  0  0  0  0  0  0  0  0  0  0
    2.0662   -1.1136    6.5128 C   0  0  0  0  0  0  0  0  0  0  0  0
    0.5493   -1.2552    6.8034 C   0  0  0  0  0  0  0  0  0  0  0  0
    2.7288   -0.4047    7.7048 C   0  0  0  0  0  0  0  0  0  0  0  0
    2.2479   -0.2618    5.4180 O   0  0  0  0  0  0  0  0  0  0  0  0
    2.0955   -0.9815    4.2127 C   0  0  1  0  0  0  0  0  0  0  0  0
    1.5794   -0.2666    2.9609 C   0  0  1  0  0  0  0  0  0  0  0  0
    0.8999    0.9949    2.5134 C   0  0  1  0  0  0  0  0  0  0  0  0
    0.9175    2.2458    3.4250 C   0  0  0  0  0  0  0  0  0  0  0  0
    1.7329    1.1237    1.2298 C   0  0  0  0  0  0  0  0  0  0  0  0
    2.8214    0.1651    1.3026 O   0  0  0  0  0  0  0  0  0  0  0  0
    3.0366   -0.0540    2.6629 C   0  0  1  0  0  0  0  0  0  0  0  0
    3.6811    1.0585    3.2340 O   0  0  0  0  0  0  0  0  0  0  0  0
    3.3637   -1.4198    3.3511 C   0  0  1  0  0  0  0  0  0  0  0  0
    4.8356   -1.2345    3.8421 C   0  0  0  0  0  0  0  0  0  0  0  0
    5.2232   -1.1522    5.1096 C   0  0  0  0  0  0  0  0  0  0  0  0
    5.8889   -1.0402    2.7488 C   0  0  0  0  0  0  0  0  0  0  0  0
    3.1510   -2.8162    2.6719 C   0  0  1  0  0  0  0  0  0  0  0  0
    3.8620   -2.7700    1.4122 O   0  0  0  0  0  0  0  0  0  0  0  0
    3.1992   -2.7718    0.2173 C   0  0  0  0  0  0  0  0  0  0  0  0
    2.0632   -3.1631    0.0805 O   0  0  0  0  0  0  0  0  0  0  0  0
    3.9887   -2.3049   -1.0271 C   0  0  0  0  0  0  0  0  0  0  0  0
    3.0351   -1.9891   -2.2155 C   0  0  0  0  0  0  0  0  0  0  0  0
    4.9087   -3.4512   -1.4484 C   0  0  0  0  0  0  0  0  0  0  0  0
    4.8156   -1.0465   -0.7106 C   0  0  0  0  0  0  0  0  0  0  0  0
    2.1203   -6.9377    5.1658 C   0  0  2  0  0  0  0  0  0  0  0  0
    3.3470   -6.6565    5.7145 O   0  0  0  0  0  0  0  0  0  0  0  0
    1.4299   -7.8145    6.3017 C   0  0  1  0  0  0  0  0  0  0  0  0
    0.3903   -7.1441    7.0281 O   0  0  0  0  0  0  0  0  0  0  0  0
    0.6140   -6.3949    8.1424 C   0  0  0  0  0  0  0  0  0  0  0  0
    2.0781   -6.2761    8.5810 C   0  0  0  0  0  0  0  0  0  0  0  0
   -0.2932   -5.8245    8.7597 O   0  0  0  0  0  0  0  0  0  0  0  0
    0.9946   -9.2532    5.8691 C   0  0  2  0  0  0  0  0  0  0  0  0
    0.0937   -9.9108    6.9528 C   0  0  0  0  0  0  0  0  0  0  0  0
    2.2130  -10.1783    5.5052 C   0  0  2  0  0  0  0  0  0  0  0  0
    3.3578   -9.3059    5.6698 O   0  0  0  0  0  0  0  0  0  0  0  0
    3.4167   -9.1021    4.2253 C   0  0  2  0  0  0  0  0  0  0  0  0
    4.9763   -8.9652    3.9652 C   0  0  0  0  0  0  0  0  0  0  0  0
    5.3970   -9.0656    2.4772 C   0  0  0  0  0  0  0  0  0  0  0  0
    5.9348   -9.9122    4.7538 C   0  0  0  0  0  0  0  0  0  0  0  0
    2.8073  -10.5495    4.1315 C   0  0  1  0  0  0  0  0  0  0  0  0
    3.6876  -11.6441    4.2544 O   0  0  0  0  0  0  0  0  0  0  0  0
    2.0245  -11.0351    2.9251 C   0  0  0  0  0  0  0  0  0  0  0  0
    2.4742  -10.2327    1.8394 O   0  0  0  0  0  0  0  0  0  0  0  0
   -0.1107   -9.0392    4.4129 S   0  0  0  0  0  0  0  0  0  0  0  0
   -1.2658   -8.1768    4.8631 O   0  0  0  0  0  0  0  0  0  0  0  0
    6.7184   -4.7995    3.7161 H   0  0  0  0  0  0  0  0  0  0  0  0
    5.7263   -4.6274    2.1815 H   0  0  0  0  0  0  0  0  0  0  0  0
    4.4727   -4.8423    6.2632 H   0  0  0  0  0  0  0  0  0  0  0  0
    5.0921   -3.2948    6.0256 H   0  0  0  0  0  0  0  0  0  0  0  0
    6.0970   -4.7074    5.7760 H   0  0  0  0  0  0  0  0  0  0  0  0
    2.0681   -5.0806    2.0193 H   0  0  0  0  0  0  0  0  0  0  0  0
    3.7012   -5.1638    1.6721 H   0  0  0  0  0  0  0  0  0  0  0  0
    3.1306   -7.3149    1.8824 H   0  0  0  0  0  0  0  0  0  0  0  0
    4.3119   -6.8284    3.0328 H   0  0  0  0  0  0  0  0  0  0  0  0
    1.1694   -8.6018    2.3782 H   0  0  0  0  0  0  0  0  0  0  0  0
    0.7498   -6.5309    1.8594 H   0  0  0  0  0  0  0  0  0  0  0  0
   -2.2042   -8.4734    1.3684 H   0  0  0  0  0  0  0  0  0  0  0  0
   -0.7546   -9.1912    1.8598 H   0  0  0  0  0  0  0  0  0  0  0  0
   -0.6956   -7.9467    0.5861 H   0  0  0  0  0  0  0  0  0  0  0  0
    0.6174   -5.4443    5.5285 H   0  0  0  0  0  0  0  0  0  0  0  0
    1.2857   -3.7310    4.1134 H   0  0  0  0  0  0  0  0  0  0  0  0
    1.0765   -3.6304    6.4669 H   0  0  0  0  0  0  0  0  0  0  0  0
    2.5987   -4.2681    6.7391 H   0  0  0  0  0  0  0  0  0  0  0  0
    0.0159   -1.7508    5.9928 H   0  0  0  0  0  0  0  0  0  0  0  0
    0.0997   -0.2737    6.9447 H   0  0  0  0  0  0  0  0  0  0  0  0
    0.4015   -1.8297    7.7148 H   0  0  0  0  0  0  0  0  0  0  0  0
    3.8008   -0.2865    7.5497 H   0  0  0  0  0  0  0  0  0  0  0  0
    2.5794   -0.9756    8.6208 H   0  0  0  0  0  0  0  0  0  0  0  0
    2.3083    0.5961    7.8282 H   0  0  0  0  0  0  0  0  0  0  0  0
    1.3368   -1.7463    4.3147 H   0  0  0  0  0  0  0  0  0  0  0  0
    1.1700   -1.0510    2.3172 H   0  0  0  0  0  0  0  0  0  0  0  0
   -0.1347    0.8006    2.2217 H   0  0  0  0  0  0  0  0  0  0  0  0
    1.9061    2.6567    3.6169 H   0  0  0  0  0  0  0  0  0  0  0  0
    0.4583    2.0048    4.3828 H   0  0  0  0  0  0  0  0  0  0  0  0
    0.3551    3.0574    2.9542 H   0  0  0  0  0  0  0  0  0  0  0  0
    1.0653    0.9031    0.3935 H   0  0  0  0  0  0  0  0  0  0  0  0
    2.1560    2.1225    1.1230 H   0  0  0  0  0  0  0  0  0  0  0  0
    3.2380    1.8245    2.8897 H   0  0  0  0  0  0  0  0  0  0  0  0
    4.5330   -1.2552    5.9207 H   0  0  0  0  0  0  0  0  0  0  0  0
    6.2482   -1.0333    5.3806 H   0  0  0  0  0  0  0  0  0  0  0  0
    5.9804   -1.8953    2.0718 H   0  0  0  0  0  0  0  0  0  0  0  0
    6.8681   -1.0258    3.1616 H   0  0  0  0  0  0  0  0  0  0  0  0
    5.7302   -0.1061    2.1769 H   0  0  0  0  0  0  0  0  0  0  0  0
    2.0922   -2.8486    2.3914 H   0  0  0  0  0  0  0  0  0  0  0  0
    3.5868   -1.6902   -3.1070 H   0  0  0  0  0  0  0  0  0  0  0  0
    2.3914   -1.1488   -1.9896 H   0  0  0  0  0  0  0  0  0  0  0  0
    2.3923   -2.8328   -2.4824 H   0  0  0  0  0  0  0  0  0  0  0  0
    4.3285   -4.3363   -1.7291 H   0  0  0  0  0  0  0  0  0  0  0  0
    5.5904   -3.7265   -0.6404 H   0  0  0  0  0  0  0  0  0  0  0  0
    5.4928   -3.1438   -2.3163 H   0  0  0  0  0  0  0  0  0  0  0  0
    5.4869   -0.8034   -1.5364 H   0  0  0  0  0  0  0  0  0  0  0  0
    5.4193   -1.2025    0.1782 H   0  0  0  0  0  0  0  0  0  0  0  0
    4.1752   -0.1821   -0.5385 H   0  0  0  0  0  0  0  0  0  0  0  0
    3.7462   -7.4876    5.9482 H   0  0  0  0  0  0  0  0  0  0  0  0
    2.1648   -8.0415    7.0764 H   0  0  0  0  0  0  0  0  0  0  0  0
    2.4683   -7.2505    8.8931 H   0  0  0  0  0  0  0  0  0  0  0  0
    2.1846   -5.5761    9.3960 H   0  0  0  0  0  0  0  0  0  0  0  0
    2.6839   -5.9259    7.7557 H   0  0  0  0  0  0  0  0  0  0  0  0
    0.5906   -9.9852    7.9312 H   0  0  0  0  0  0  0  0  0  0  0  0
   -0.1838  -10.9262    6.6447 H   0  0  0  0  0  0  0  0  0  0  0  0
   -0.8501   -9.3755    7.1068 H   0  0  0  0  0  0  0  0  0  0  0  0
    2.2965  -11.0265    6.2004 H   0  0  0  0  0  0  0  0  0  0  0  0
    5.2694   -7.9993    4.3648 H   0  0  0  0  0  0  0  0  0  0  0  0
    5.3037  -10.0956    2.1227 H   0  0  0  0  0  0  0  0  0  0  0  0
    6.4468   -8.7798    2.3770 H   0  0  0  0  0  0  0  0  0  0  0  0
    4.8292   -8.4239    1.8111 H   0  0  0  0  0  0  0  0  0  0  0  0
    5.9485  -10.9310    4.3701 H   0  0  0  0  0  0  0  0  0  0  0  0
    5.7363   -9.9632    5.8262 H   0  0  0  0  0  0  0  0  0  0  0  0
    6.9673   -9.5771    4.6487 H   0  0  0  0  0  0  0  0  0  0  0  0
    3.1563  -12.4153    4.4062 H   0  0  0  0  0  0  0  0  0  0  0  0
    2.2230  -12.0460    2.6054 H   0  0  0  0  0  0  0  0  0  0  0  0
    0.9452  -11.0331    3.0374 H   0  0  0  0  0  0  0  0  0  0  0  0
    3.0910  -10.7389    1.2946 H   0  0  0  0  0  0  0  0  0  0  0  0
  1  2  2  0
  1 62  1  0
  1 63  1  0
  2  3  1  0
  4  2  1  1
  3 64  1  0
  3 65  1  0
  3 66  1  0
  4 14  1  0
  4 33  1  0
  4  5  1  0
  5  6  1  0
  5 67  1  0
  5 68  1  0
  7  6  1  6
  6 69  1  0
  6 70  1  0
  7 41  1  0
  7 52  1  0
  7  8  1  0
  8 60  1  0
  8  9  1  0
  8 71  1  6
  9 10  1  0
  9 12  1  0
  9 72  1  6
 10 11  1  0
 11 73  1  0
 11 74  1  0
 11 75  1  0
 12 13  1  0
 13 14  1  0
 13 41  1  0
 13 76  1  1
 14 15  1  0
 14 77  1  6
 15 16  1  0
 15 78  1  0
 15 79  1  0
 16 17  1  0
 17 18  1  0
 17 19  1  0
 17 20  1  0
 18 80  1  0
 18 81  1  0
 18 82  1  0
 19 83  1  0
 19 84  1  0
 19 85  1  0
 20 21  1  0
 21 29  1  0
 21 22  1  0
 21 86  1  1
 22 27  1  0
 22 23  1  0
 22 87  1  6
 23 24  1  0
 23 25  1  0
 23 88  1  6
 24 89  1  0
 24 90  1  0
 24 91  1  0
 25 26  1  0
 25 92  1  0
 25 93  1  0
 26 27  1  0
 27 28  1  1
 27 29  1  0
 28 94  1  0
 29 30  1  1
 29 33  1  0
 30 31  2  0
 30 32  1  0
 31 95  1  0
 31 96  1  0
 32 97  1  0
 32 98  1  0
 32 99  1  0
 33 34  1  0
 33100  1  6
 34 35  1  0
 35 36  2  0
 35 37  1  0
 37 38  1  0
 37 39  1  0
 37 40  1  0
 38101  1  0
 38102  1  0
 38103  1  0
 39104  1  0
 39105  1  0
 39106  1  0
 40107  1  0
 40108  1  0
 40109  1  0
 41 42  1  1
 41 43  1  0
 42110  1  0
 43 44  1  0
 43 48  1  0
 43111  1  1
 44 45  1  0
 45 46  1  0
 45 47  2  0
 46112  1  0
 46113  1  0
 46114  1  0
 48 49  1  1
 48 50  1  0
 60 48  1  1
 49115  1  0
 49116  1  0
 49117  1  0
 50 56  1  0
 50 51  1  0
 50118  1  1
 51 52  1  0
 52 53  1  6
 52 56  1  0
 53 54  1  0
 53 55  1  0
 53119  1  0
 54120  1  0
 54121  1  0
 54122  1  0
 55123  1  0
 55124  1  0
 55125  1  0
 56 57  1  1
 56 58  1  0
 57126  1  0
 58 59  1  0
 58127  1  0
 58128  1  0
 59129  1  0
 60 61  2  0
M  END
>  <i_m_ct_stereo_status>  (93) 
1

>  <s_m_source_file>  (93) 
/var/tmp/pbs.5075288.sched01/tmpjyqx9nt_/132xb3bh5wq.sdf

>  <i_m_source_file_index>  (93) 
46

>  <i_lp_mmshare_version>  (93) 
48012

>  <i_f3d_flags>  (93) 
0

>  <s_epik_input>  (93) 
W0NIM11bQ0BIXTFbQ0gyXU9bQ0BAXTIoW09IXSlbQ0BIXTFbQ0BIXShPQyhbQ0gzXSkoW0NIM10pT1tDSDJdMylbQ0BAXTIoQyg9W0NIMl0pW0NIM10pW0NAQEhdKE9DKD1PKUMoW0NIM10pKFtDSDNdKVtDSDNdKVtDQF0oQyg9W0NIMl0pW0NIM10pKFtDSDJdW0NIMl00KVtDQEhdM1tDQEBIXShPW0NAQEhdKFtDQEhdNVtDQEBdNDY3KU9bQ0gzXSlbQ0BAXTYoW09IXSlbQ0BASF0oT0MoPU8pW0NIM10pW0NAQF0oW0NIM10pKFtTK101W08tXSlbQ0BASF04T1tDQEBdNyhbQ0hdKFtDSDNdKVtDSDNdKVtDQF04KFtPSF0pW0NIMl1bT0hd

>  <s_epik_cmdline>  (93) 
J2VwaWtfcHl0aG9uJywgJy1waHQnLCAnMi4wJywgJy1waCcsICc3LjAnLCAnLXRuJywgJzgnLCAnLW1hJywgJzIwMCcsICctaW1hZScsICc8aW5maWxlLm1hZT4nLCAnLW9tYWUnLCAnPG91dGZpbGUubWFlPic=

>  <r_lp_tautomer_probability>  (93) 
1

>  <r_epik_Ionization_Penalty>  (93) 
9.55605e-07

>  <r_epik_Ionization_Penalty_Charging>  (93) 
0

>  <r_epik_Ionization_Penalty_Neutral>  (93) 
9.55605e-07

>  <r_epik_State_Penalty>  (93) 
-0

>  <r_epik_Charging_Adjusted_Penalty>  (93) 
0

>  <i_epik_Tot_Q>  (93) 
0

>  <i_epik_Tot_abs_Q>  (93) 
2

>  <s_epik_Chemistry_Notes>  (93) 
This compound has an ester and may undergo hydrolysis at high or low pH. This compound contains an acetal/aminal-like group ( X-CH(R)-Y where X, Y are N, S, or O) that may be acid/base labile, releasing an aldehyde.

>  <s_lp_Force_Field>  (93) 
OPLS3e

>  <r_lp_Energy>  (93) 
233.447

>  <b_lp_Chiralities_Consistent>  (93) 
1

>  <s_lp_Variant>  (93) 
63:0-1

>  <s_i_glide_gridfile>  (93) 
pfpi4k_grid

>  <i_i_glide_lignum>  (93) 
46

>  <i_i_glide_rotatable_bonds>  (93) 
14

>  <r_i_docking_score>  (93) 
-1.97963

>  <r_i_glide_ligand_efficiency>  (93) 
-0.032453

>  <r_i_glide_ligand_efficiency_sa>  (93) 
-0.127751

>  <r_i_glide_ligand_efficiency_ln>  (93) 
-0.387337

>  <r_i_glide_gscore>  (93) 
-1.97963

>  <r_i_glide_lipo>  (93) 
-0.307407

>  <r_i_glide_hbond>  (93) 
-0.331987

>  <r_i_glide_metal>  (93) 
-0

>  <r_i_glide_rewards>  (93) 
-0.506426

>  <r_i_glide_evdw>  (93) 
-14.2011

>  <r_i_glide_ecoul>  (93) 
-8.94587

>  <r_i_glide_erotb>  (93) 
0.170059

>  <r_i_glide_esite>  (93) 
-0.178881

>  <r_i_glide_emodel>  (93) 
-18.0528

>  <r_i_glide_energy>  (93) 
-23.1469

>  <r_i_glide_einternal>  (93) 
20.4339

>  <r_i_glide_intrahb_reward>  (93) 
-0.5

>  <i_i_glide_confnum>  (93) 
3

>  <i_i_glide_posenum>  (93) 
39

>  <r_i_glide_eff_state_penalty>  (93) 
0

>  <ligand_id>  (93) 
63

>  <original_smiles>  (93) 
C=C(C)C12CCC34C5C(OC)OC(C1COC(C)(C)OC1C6C(C)COC6(O)C1(C(=C)C)C2OC(=O)C(C)(C)C)C3(O)C(OC(C)=O)C(C)(C1OC4(C(C)C)C1(O)CO)[S+]5[O-]

>  <smiles>  (93) 
[H]OC([H])([H])C1(O[H])C2([H])OC1(C([H])(C([H])([H])[H])C([H])([H])[H])C13C([H])([H])C([H])([H])C4(C(=C([H])[H])C([H])([H])[H])C([H])(OC(=O)C(C([H])([H])[H])(C([H])([H])[H])C([H])([H])[H])C5(C(=C([H])[H])C([H])([H])[H])C([H])(OC(C([H])([H])[H])(C([H])([H])[H])OC([H])([H])C4([H])C4([H])OC([H])(OC([H])([H])[H])C1([H])S(=O)C2(C([H])([H])[H])C([H])(OC(=O)C([H])([H])[H])C43O[H])C1([H])C5(O[H])OC([H])([H])C1([H])C([H])([H])[H]

$$$$
63:0:2
     RDKit          3D

129136  0  0  1  0  0  0  0  0999 V2000
    4.6823   -3.3441    7.3917 C   0  0  0  0  0  0  0  0  0  0  0  0
    4.7320   -3.5175    6.0609 C   0  0  0  0  0  0  0  0  0  0  0  0
    6.1364   -3.5330    5.4658 C   0  0  0  0  0  0  0  0  0  0  0  0
    3.5307   -3.6990    5.0722 C   0  0  1  0  0  0  0  0  0  0  0  0
    3.7747   -4.9666    4.1752 C   0  0  0  0  0  0  0  0  0  0  0  0
    4.1092   -6.3826    4.7719 C   0  0  0  0  0  0  0  0  0  0  0  0
    3.1996   -7.2786    5.7029 C   0  0  2  0  0  0  0  0  0  0  0  0
    2.1432   -7.9824    4.7403 C   0  0  2  0  0  0  0  0  0  0  0  0
    1.4220   -6.9771    3.8310 C   0  0  1  0  0  0  0  0  0  0  0  0
    0.4214   -7.6458    3.1278 O   0  0  0  0  0  0  0  0  0  0  0  0
   -0.5885   -6.7988    2.6279 C   0  0  0  0  0  0  0  0  0  0  0  0
    0.9176   -5.8788    4.5588 O   0  0  0  0  0  0  0  0  0  0  0  0
    1.5117   -5.3844    5.7648 C   0  0  2  0  0  0  0  0  0  0  0  0
    2.0592   -3.9091    5.7044 C   0  0  1  0  0  0  0  0  0  0  0  0
    1.4936   -3.1413    6.9655 C   0  0  0  0  0  0  0  0  0  0  0  0
    1.7803   -1.7621    7.2432 O   0  0  0  0  0  0  0  0  0  0  0  0
    0.9316   -0.6570    6.9495 C   0  0  0  0  0  0  0  0  0  0  0  0
   -0.5400   -1.0583    6.7311 C   0  0  0  0  0  0  0  0  0  0  0  0
    1.0005    0.2793    8.1673 C   0  0  0  0  0  0  0  0  0  0  0  0
    1.3870    0.1051    5.8727 O   0  0  0  0  0  0  0  0  0  0  0  0
    1.7457   -0.7285    4.7962 C   0  0  1  0  0  0  0  0  0  0  0  0
    1.6363   -0.2320    3.3685 C   0  0  1  0  0  0  0  0  0  0  0  0
    0.9021    0.7625    2.4902 C   0  0  1  0  0  0  0  0  0  0  0  0
    0.4020    2.0594    3.1626 C   0  0  0  0  0  0  0  0  0  0  0  0
    2.0784    0.9196    1.4838 C   0  0  0  0  0  0  0  0  0  0  0  0
    3.2173    0.2049    2.0621 O   0  0  0  0  0  0  0  0  0  0  0  0
    3.0618    0.2192    3.4685 C   0  0  1  0  0  0  0  0  0  0  0  0
    3.3217    1.4976    4.0033 O   0  0  0  0  0  0  0  0  0  0  0  0
    3.2756   -1.0054    4.4857 C   0  0  1  0  0  0  0  0  0  0  0  0
    4.4164   -0.5086    5.4315 C   0  0  0  0  0  0  0  0  0  0  0  0
    4.3878   -0.3406    6.7768 C   0  0  0  0  0  0  0  0  0  0  0  0
    5.7163   -0.0811    4.7419 C   0  0  0  0  0  0  0  0  0  0  0  0
    3.4814   -2.4937    3.9985 C   0  0  1  0  0  0  0  0  0  0  0  0
    4.5238   -2.4927    3.0082 O   0  0  0  0  0  0  0  0  0  0  0  0
    4.2540   -2.6792    1.6812 C   0  0  0  0  0  0  0  0  0  0  0  0
    3.1487   -2.9458    1.2207 O   0  0  0  0  0  0  0  0  0  0  0  0
    5.5089   -2.5557    0.7729 C   0  0  0  0  0  0  0  0  0  0  0  0
    5.0982   -2.5834   -0.7134 C   0  0  0  0  0  0  0  0  0  0  0  0
    6.4397   -3.7471    1.0488 C   0  0  0  0  0  0  0  0  0  0  0  0
    6.2549   -1.2339    1.0411 C   0  0  0  0  0  0  0  0  0  0  0  0
    2.2689   -6.4364    6.6462 C   0  0  2  0  0  0  0  0  0  0  0  0
    3.0661   -5.7464    7.5558 O   0  0  0  0  0  0  0  0  0  0  0  0
    1.3838   -7.2942    7.6555 C   0  0  1  0  0  0  0  0  0  0  0  0
    0.0763   -6.7454    7.7728 O   0  0  0  0  0  0  0  0  0  0  0  0
   -0.1940   -5.7762    8.6520 C   0  0  0  0  0  0  0  0  0  0  0  0
   -1.3963   -4.9336    8.2622 C   0  0  0  0  0  0  0  0  0  0  0  0
    0.4997   -5.5226    9.6601 O   0  0  0  0  0  0  0  0  0  0  0  0
    1.3550   -8.8251    7.3415 C   0  0  2  0  0  0  0  0  0  0  0  0
    0.2564   -9.5396    8.1792 C   0  0  0  0  0  0  0  0  0  0  0  0
    2.7492   -9.5146    7.5082 C   0  0  2  0  0  0  0  0  0  0  0  0
    3.6187   -8.4065    7.8552 O   0  0  0  0  0  0  0  0  0  0  0  0
    4.1330   -8.3486    6.4980 C   0  0  2  0  0  0  0  0  0  0  0  0
    5.6412   -7.9510    6.8056 C   0  0  0  0  0  0  0  0  0  0  0  0
    5.9412   -6.6932    7.6722 C   0  0  0  0  0  0  0  0  0  0  0  0
    6.6551   -8.1751    5.6417 C   0  0  0  0  0  0  0  0  0  0  0  0
    3.8197   -9.8949    6.4517 C   0  0  1  0  0  0  0  0  0  0  0  0
    4.7866  -10.7330    7.0421 O   0  0  0  0  0  0  0  0  0  0  0  0
    3.5539  -10.7844    5.1980 C   0  0  0  0  0  0  0  0  0  0  0  0
    4.5075  -10.4553    4.2130 O   0  0  0  0  0  0  0  0  0  0  0  0
    0.8060   -8.9921    5.5941 S   0  0  0  0  0  0  0  0  0  0  0  0
   -0.5438   -8.2653    5.4948 O   0  0  0  0  0  0  0  0  0  0  0  0
    5.6006   -3.2284    7.9561 H   0  0  0  0  0  0  0  0  0  0  0  0
    3.7862   -3.3048    7.9837 H   0  0  0  0  0  0  0  0  0  0  0  0
    6.1894   -2.9613    4.5576 H   0  0  0  0  0  0  0  0  0  0  0  0
    6.4704   -4.5425    5.2437 H   0  0  0  0  0  0  0  0  0  0  0  0
    6.8560   -3.0764    6.1462 H   0  0  0  0  0  0  0  0  0  0  0  0
    3.0191   -4.9461    3.3794 H   0  0  0  0  0  0  0  0  0  0  0  0
    4.6846   -4.7783    3.6141 H   0  0  0  0  0  0  0  0  0  0  0  0
    4.3513   -7.0209    3.9159 H   0  0  0  0  0  0  0  0  0  0  0  0
    5.0535   -6.1728    5.2964 H   0  0  0  0  0  0  0  0  0  0  0  0
    2.6633   -8.6225    4.0307 H   0  0  0  0  0  0  0  0  0  0  0  0
    2.0794   -6.6506    3.0359 H   0  0  0  0  0  0  0  0  0  0  0  0
   -1.3109   -7.3810    2.0618 H   0  0  0  0  0  0  0  0  0  0  0  0
   -0.1653   -6.0373    1.9750 H   0  0  0  0  0  0  0  0  0  0  0  0
   -1.1250   -6.3037    3.4435 H   0  0  0  0  0  0  0  0  0  0  0  0
    0.5545   -5.1901    6.2084 H   0  0  0  0  0  0  0  0  0  0  0  0
    1.4079   -3.5776    4.9135 H   0  0  0  0  0  0  0  0  0  0  0  0
    0.4318   -3.2943    6.9954 H   0  0  0  0  0  0  0  0  0  0  0  0
    1.7862   -3.6536    7.8737 H   0  0  0  0  0  0  0  0  0  0  0  0
   -0.7106   -1.7057    5.8733 H   0  0  0  0  0  0  0  0  0  0  0  0
   -1.1843   -0.1810    6.6210 H   0  0  0  0  0  0  0  0  0  0  0  0
   -0.8317   -1.6217    7.6100 H   0  0  0  0  0  0  0  0  0  0  0  0
    2.0307    0.5723    8.3226 H   0  0  0  0  0  0  0  0  0  0  0  0
    0.6333   -0.2152    9.0713 H   0  0  0  0  0  0  0  0  0  0  0  0
    0.4117    1.1874    7.9955 H   0  0  0  0  0  0  0  0  0  0  0  0
    1.1020   -1.5939    4.7322 H   0  0  0  0  0  0  0  0  0  0  0  0
    1.5954   -1.1567    2.7949 H   0  0  0  0  0  0  0  0  0  0  0  0
    0.0680    0.2867    1.9670 H   0  0  0  0  0  0  0  0  0  0  0  0
    1.1886    2.6794    3.5966 H   0  0  0  0  0  0  0  0  0  0  0  0
   -0.3074    1.8336    3.9608 H   0  0  0  0  0  0  0  0  0  0  0  0
   -0.1055    2.7071    2.4425 H   0  0  0  0  0  0  0  0  0  0  0  0
    1.8433    0.5268    0.4857 H   0  0  0  0  0  0  0  0  0  0  0  0
    2.3244    1.9744    1.3713 H   0  0  0  0  0  0  0  0  0  0  0  0
    2.7231    2.0709    3.5364 H   0  0  0  0  0  0  0  0  0  0  0  0
    3.5638   -0.5388    7.4224 H   0  0  0  0  0  0  0  0  0  0  0  0
    5.2881    0.0111    7.2421 H   0  0  0  0  0  0  0  0  0  0  0  0
    6.0981   -0.8390    4.0606 H   0  0  0  0  0  0  0  0  0  0  0  0
    6.4849    0.1182    5.4954 H   0  0  0  0  0  0  0  0  0  0  0  0
    5.5985    0.8430    4.1512 H   0  0  0  0  0  0  0  0  0  0  0  0
    2.5996   -2.7736    3.4392 H   0  0  0  0  0  0  0  0  0  0  0  0
    5.9721   -2.5186   -1.3626 H   0  0  0  0  0  0  0  0  0  0  0  0
    4.4415   -1.7438   -0.9540 H   0  0  0  0  0  0  0  0  0  0  0  0
    4.5689   -3.5031   -0.9690 H   0  0  0  0  0  0  0  0  0  0  0  0
    5.9503   -4.6977    0.8337 H   0  0  0  0  0  0  0  0  0  0  0  0
    6.7631   -3.7677    2.0815 H   0  0  0  0  0  0  0  0  0  0  0  0
    7.3276   -3.6778    0.4244 H   0  0  0  0  0  0  0  0  0  0  0  0
    7.1872   -1.1884    0.4780 H   0  0  0  0  0  0  0  0  0  0  0  0
    6.5450   -1.1472    2.0804 H   0  0  0  0  0  0  0  0  0  0  0  0
    5.6425   -0.3628    0.7860 H   0  0  0  0  0  0  0  0  0  0  0  0
    3.6450   -6.3979    7.9242 H   0  0  0  0  0  0  0  0  0  0  0  0
    1.8034   -7.2533    8.6764 H   0  0  0  0  0  0  0  0  0  0  0  0
   -1.2346   -4.4965    7.2753 H   0  0  0  0  0  0  0  0  0  0  0  0
   -1.5786   -4.1375    8.9872 H   0  0  0  0  0  0  0  0  0  0  0  0
   -2.3069   -5.5176    8.1424 H   0  0  0  0  0  0  0  0  0  0  0  0
    0.4023   -9.4299    9.2594 H   0  0  0  0  0  0  0  0  0  0  0  0
    0.1919  -10.6042    7.9510 H   0  0  0  0  0  0  0  0  0  0  0  0
   -0.7350   -9.1536    7.9297 H   0  0  0  0  0  0  0  0  0  0  0  0
    2.7529  -10.2636    8.3013 H   0  0  0  0  0  0  0  0  0  0  0  0
    5.9447   -8.6787    7.5501 H   0  0  0  0  0  0  0  0  0  0  0  0
    5.7477   -5.7456    7.1534 H   0  0  0  0  0  0  0  0  0  0  0  0
    6.9930   -6.6742    7.9505 H   0  0  0  0  0  0  0  0  0  0  0  0
    5.3940   -6.7198    8.6157 H   0  0  0  0  0  0  0  0  0  0  0  0
    6.6169   -7.4532    4.8240 H   0  0  0  0  0  0  0  0  0  0  0  0
    6.5689   -9.1687    5.1924 H   0  0  0  0  0  0  0  0  0  0  0  0
    7.6635   -8.0968    6.0442 H   0  0  0  0  0  0  0  0  0  0  0  0
    4.3424  -11.5602    7.2094 H   0  0  0  0  0  0  0  0  0  0  0  0
    3.6416  -11.8643    5.4125 H   0  0  0  0  0  0  0  0  0  0  0  0
    2.5585  -10.6971    4.7806 H   0  0  0  0  0  0  0  0  0  0  0  0
    4.4404   -9.5206    4.0520 H   0  0  0  0  0  0  0  0  0  0  0  0
  1  2  2  0
  1 62  1  0
  1 63  1  0
  2  3  1  0
  4  2  1  1
  3 64  1  0
  3 65  1  0
  3 66  1  0
  4 14  1  0
  4 33  1  0
  4  5  1  0
  5  6  1  0
  5 67  1  0
  5 68  1  0
  7  6  1  6
  6 69  1  0
  6 70  1  0
  7 41  1  0
  7 52  1  0
  7  8  1  0
  8 60  1  0
  8  9  1  0
  8 71  1  6
  9 10  1  0
  9 12  1  0
  9 72  1  6
 10 11  1  0
 11 73  1  0
 11 74  1  0
 11 75  1  0
 12 13  1  0
 13 14  1  0
 13 41  1  0
 13 76  1  1
 14 15  1  0
 14 77  1  6
 15 16  1  0
 15 78  1  0
 15 79  1  0
 16 17  1  0
 17 18  1  0
 17 19  1  0
 17 20  1  0
 18 80  1  0
 18 81  1  0
 18 82  1  0
 19 83  1  0
 19 84  1  0
 19 85  1  0
 20 21  1  0
 21 29  1  0
 21 22  1  0
 21 86  1  6
 22 27  1  0
 22 23  1  0
 22 87  1  6
 23 24  1  0
 23 25  1  0
 23 88  1  6
 24 89  1  0
 24 90  1  0
 24 91  1  0
 25 26  1  0
 25 92  1  0
 25 93  1  0
 26 27  1  0
 27 28  1  1
 27 29  1  0
 28 94  1  0
 29 30  1  1
 29 33  1  0
 30 31  2  0
 30 32  1  0
 31 95  1  0
 31 96  1  0
 32 97  1  0
 32 98  1  0
 32 99  1  0
 33 34  1  0
 33100  1  6
 34 35  1  0
 35 36  2  0
 35 37  1  0
 37 38  1  0
 37 39  1  0
 37 40  1  0
 38101  1  0
 38102  1  0
 38103  1  0
 39104  1  0
 39105  1  0
 39106  1  0
 40107  1  0
 40108  1  0
 40109  1  0
 41 42  1  1
 41 43  1  0
 42110  1  0
 43 44  1  0
 43 48  1  0
 43111  1  1
 44 45  1  0
 45 46  1  0
 45 47  2  0
 46112  1  0
 46113  1  0
 46114  1  0
 48 49  1  1
 48 50  1  0
 60 48  1  1
 49115  1  0
 49116  1  0
 49117  1  0
 50 56  1  0
 50 51  1  0
 50118  1  1
 51 52  1  0
 52 53  1  1
 52 56  1  0
 53 54  1  0
 53 55  1  0
 53119  1  0
 54120  1  0
 54121  1  0
 54122  1  0
 55123  1  0
 55124  1  0
 55125  1  0
 56 57  1  1
 56 58  1  0
 57126  1  0
 58 59  1  0
 58127  1  0
 58128  1  0
 59129  1  0
 60 61  2  0
M  END
>  <i_m_ct_stereo_status>  (94) 
1

>  <s_m_source_file>  (94) 
/var/tmp/pbs.5075288.sched01/tmpjyqx9nt_/132xb3bh5wq.sdf

>  <i_m_source_file_index>  (94) 
46

>  <i_lp_mmshare_version>  (94) 
48012

>  <i_f3d_flags>  (94) 
0

>  <s_epik_input>  (94) 
W0NIM11bQ0BIXTFbQ0gyXU9bQ0BAXTIoW09IXSlbQ0BIXTFbQ0BIXShPQyhbQ0gzXSkoW0NIM10pT1tDSDJdMylbQ0BAXTIoQyg9W0NIMl0pW0NIM10pW0NAQEhdKE9DKD1PKUMoW0NIM10pKFtDSDNdKVtDSDNdKVtDQF0oQyg9W0NIMl0pW0NIM10pKFtDSDJdW0NIMl00KVtDQEhdM1tDQEBIXShPW0NAQEhdKFtDQEhdNVtDQEBdNDY3KU9bQ0gzXSlbQ0BAXTYoW09IXSlbQ0BASF0oT0MoPU8pW0NIM10pW0NAQF0oW0NIM10pKFtTK101W08tXSlbQ0BASF04T1tDQEBdNyhbQ0hdKFtDSDNdKVtDSDNdKVtDQF04KFtPSF0pW0NIMl1bT0hd

>  <s_epik_cmdline>  (94) 
J2VwaWtfcHl0aG9uJywgJy1waHQnLCAnMi4wJywgJy1waCcsICc3LjAnLCAnLXRuJywgJzgnLCAnLW1hJywgJzIwMCcsICctaW1hZScsICc8aW5maWxlLm1hZT4nLCAnLW9tYWUnLCAnPG91dGZpbGUubWFlPic=

>  <r_lp_tautomer_probability>  (94) 
1

>  <r_epik_Ionization_Penalty>  (94) 
9.55605e-07

>  <r_epik_Ionization_Penalty_Charging>  (94) 
0

>  <r_epik_Ionization_Penalty_Neutral>  (94) 
9.55605e-07

>  <r_epik_State_Penalty>  (94) 
-0

>  <r_epik_Charging_Adjusted_Penalty>  (94) 
0

>  <i_epik_Tot_Q>  (94) 
0

>  <i_epik_Tot_abs_Q>  (94) 
2

>  <s_epik_Chemistry_Notes>  (94) 
This compound has an ester and may undergo hydrolysis at high or low pH. This compound contains an acetal/aminal-like group ( X-CH(R)-Y where X, Y are N, S, or O) that may be acid/base labile, releasing an aldehyde.

>  <s_lp_Force_Field>  (94) 
OPLS3e

>  <r_lp_Energy>  (94) 
233.447

>  <b_lp_Chiralities_Consistent>  (94) 
1

>  <s_lp_Variant>  (94) 
63:0-1

>  <s_i_glide_gridfile>  (94) 
pfpi4k_grid

>  <i_i_glide_lignum>  (94) 
46

>  <i_i_glide_rotatable_bonds>  (94) 
14

>  <r_i_docking_score>  (94) 
-1.72545

>  <r_i_glide_ligand_efficiency>  (94) 
-0.028286

>  <r_i_glide_ligand_efficiency_sa>  (94) 
-0.111348

>  <r_i_glide_ligand_efficiency_ln>  (94) 
-0.337603

>  <r_i_glide_gscore>  (94) 
-1.72545

>  <r_i_glide_lipo>  (94) 
-0.349342

>  <r_i_glide_hbond>  (94) 
0

>  <r_i_glide_metal>  (94) 
-0

>  <r_i_glide_rewards>  (94) 
-0.0112304

>  <r_i_glide_evdw>  (94) 
-28.0419

>  <r_i_glide_ecoul>  (94) 
-0.386797

>  <r_i_glide_erotb>  (94) 
0.170059

>  <r_i_glide_esite>  (94) 
-0.0748181

>  <r_i_glide_emodel>  (94) 
-26.1248

>  <r_i_glide_energy>  (94) 
-28.4287

>  <r_i_glide_einternal>  (94) 
8.25589

>  <r_i_glide_intrahb_reward>  (94) 
-0

>  <i_i_glide_confnum>  (94) 
10

>  <i_i_glide_posenum>  (94) 
24

>  <r_i_glide_eff_state_penalty>  (94) 
0

>  <ligand_id>  (94) 
63

>  <original_smiles>  (94) 
C=C(C)C12CCC34C5C(OC)OC(C1COC(C)(C)OC1C6C(C)COC6(O)C1(C(=C)C)C2OC(=O)C(C)(C)C)C3(O)C(OC(C)=O)C(C)(C1OC4(C(C)C)C1(O)CO)[S+]5[O-]

>  <smiles>  (94) 
[H]OC([H])([H])C1(O[H])C2([H])OC1(C([H])(C([H])([H])[H])C([H])([H])[H])C13C([H])([H])C([H])([H])C4(C(=C([H])[H])C([H])([H])[H])C([H])(OC(=O)C(C([H])([H])[H])(C([H])([H])[H])C([H])([H])[H])C5(C(=C([H])[H])C([H])([H])[H])C([H])(OC(C([H])([H])[H])(C([H])([H])[H])OC([H])([H])C4([H])C4([H])OC([H])(OC([H])([H])[H])C1([H])S(=O)C2(C([H])([H])[H])C([H])(OC(=O)C([H])([H])[H])C43O[H])C1([H])C5(O[H])OC([H])([H])C1([H])C([H])([H])[H]

$$$$
64:0:0
     RDKit          3D

 93100  0  0  1  0  0  0  0  0999 V2000
    1.2398   -6.1891    0.8502 C   0  0  0  0  0  0  0  0  0  0  0  0
    0.8722   -5.8227    2.1012 C   0  0  0  0  0  0  0  0  0  0  0  0
    1.2407   -4.5397    2.8312 C   0  0  0  0  0  0  0  0  0  0  0  0
    2.2328   -3.5943    2.0453 C   0  0  0  0  0  0  0  0  0  0  0  0
    2.5785   -2.1605    2.6409 C   0  0  2  0  0  0  0  0  0  0  0  0
    1.2050   -1.3071    2.5363 C   0  0  0  0  0  0  0  0  0  0  0  0
    1.2117    0.2142    3.0189 C   0  0  2  0  0  0  0  0  0  0  0  0
    1.1682    1.0996    1.7383 C   0  0  0  0  0  0  0  0  0  0  0  0
    2.5112    0.2789    3.4932 O   0  0  0  0  0  0  0  0  0  0  0  0
    3.0237   -0.5789    4.5218 C   0  0  1  0  0  0  0  0  0  0  0  0
    4.4374   -0.0905    4.1284 C   0  0  1  0  0  0  0  0  0  0  0  0
    5.4120   -0.4067    5.1110 O   0  0  0  0  0  0  0  0  0  0  0  0
    4.7695   -0.4510    2.6208 C   0  0  1  0  0  0  0  0  0  0  0  0
    6.1729   -0.6494    2.4859 O   0  0  0  0  0  0  0  0  0  0  0  0
    3.8537   -1.5236    1.8335 C   0  0  1  0  0  0  0  0  0  0  0  0
    4.7700   -2.5629    1.0966 C   0  0  0  0  0  0  0  0  0  0  0  0
    3.3507   -0.8185    0.7097 O   0  0  0  0  0  0  0  0  0  0  0  0
    2.2216   -0.1311    5.8265 C   0  0  2  0  0  0  0  0  0  0  0  0
    0.4626   -0.6321    5.4065 S   0  0  0  0  0  0  0  0  0  0  0  0
   -0.5127   -0.6851    6.5770 O   0  0  0  0  0  0  0  0  0  0  0  0
    0.3356    0.7970    4.2580 C   0  0  2  0  0  0  0  0  0  0  0  0
   -1.1383    0.9018    3.7861 C   0  0  0  0  0  0  0  0  0  0  0  0
    0.9951    2.0468    5.1214 C   0  0  1  0  0  0  0  0  0  0  0  0
    1.7518    2.9450    4.0252 C   0  0  0  0  0  0  0  0  0  0  0  0
    2.2072    4.3816    4.2444 C   0  0  2  0  0  0  0  0  0  0  0  0
    1.7628    5.3750    3.1803 C   0  0  0  0  0  0  0  0  0  0  0  0
    3.5947    4.4835    4.5565 O   0  0  0  0  0  0  0  0  0  0  0  0
    2.6771    4.8290    5.5888 C   0  0  2  0  0  0  0  0  0  0  0  0
    2.4010    3.8821    6.7238 C   0  0  1  0  0  0  0  0  0  0  0  0
    2.9241    4.5157    7.8645 O   0  0  0  0  0  0  0  0  0  0  0  0
    0.9865    3.8874    6.8203 O   0  0  0  0  0  0  0  0  0  0  0  0
    0.1237    3.1008    5.9765 C   0  0  1  0  0  0  0  0  0  0  0  0
   -0.5801    3.9357    5.0971 O   0  0  0  0  0  0  0  0  0  0  0  0
   -0.9014    2.6161    7.0774 C   0  0  0  0  0  0  0  0  0  0  0  0
   -1.4346    3.8347    7.8988 C   0  0  0  0  0  0  0  0  0  0  0  0
   -2.1843    1.9399    6.5489 C   0  0  0  0  0  0  0  0  0  0  0  0
   -0.1635    1.7079    8.0874 C   0  0  0  0  0  0  0  0  0  0  0  0
    1.2210    1.1578    7.6895 C   0  0  0  0  0  0  0  0  0  0  0  0
    1.8308    0.5353    8.5603 O   0  0  0  0  0  0  0  0  0  0  0  0
    1.8993    1.3759    6.2629 C   0  0  1  0  0  0  0  0  0  0  0  0
    3.0067    2.4122    6.6669 C   0  0  1  0  0  0  0  0  0  0  0  0
    4.2198    2.2918    5.9621 O   0  0  0  0  0  0  0  0  0  0  0  0
    2.9700   -2.1702    4.1738 C   0  0  0  0  0  0  0  0  0  0  0  0
    2.0739   -3.0618    5.1242 C   0  0  0  0  0  0  0  0  0  0  0  0
    4.3086   -2.9528    4.4011 C   0  0  0  0  0  0  0  0  0  0  0  0
    1.8349   -5.5105    0.2464 H   0  0  0  0  0  0  0  0  0  0  0  0
    0.9894   -7.1788    0.4792 H   0  0  0  0  0  0  0  0  0  0  0  0
    0.3264   -6.5070    2.7428 H   0  0  0  0  0  0  0  0  0  0  0  0
    0.2868   -4.0145    3.0396 H   0  0  0  0  0  0  0  0  0  0  0  0
    1.6951   -4.9771    3.6410 H   0  0  0  0  0  0  0  0  0  0  0  0
    3.1429   -4.2038    1.9697 H   0  0  0  0  0  0  0  0  0  0  0  0
    1.8961   -3.4043    1.0124 H   0  0  0  0  0  0  0  0  0  0  0  0
    0.8483   -1.3773    1.5065 H   0  0  0  0  0  0  0  0  0  0  0  0
    0.4032   -1.8270    3.0447 H   0  0  0  0  0  0  0  0  0  0  0  0
    0.2962    1.7435    1.6675 H   0  0  0  0  0  0  0  0  0  0  0  0
    1.1512    0.5546    0.8089 H   0  0  0  0  0  0  0  0  0  0  0  0
    2.0555    1.7145    1.6381 H   0  0  0  0  0  0  0  0  0  0  0  0
    4.4794    0.9896    4.0963 H   0  0  0  0  0  0  0  0  0  0  0  0
    5.1418    0.0059    5.9225 H   0  0  0  0  0  0  0  0  0  0  0  0
    4.6560    0.4907    2.0784 H   0  0  0  0  0  0  0  0  0  0  0  0
    6.6698    0.1085    2.6567 H   0  0  0  0  0  0  0  0  0  0  0  0
    5.2691   -3.2378    1.7910 H   0  0  0  0  0  0  0  0  0  0  0  0
    5.5622   -2.0831    0.5162 H   0  0  0  0  0  0  0  0  0  0  0  0
    4.2334   -3.1704    0.3690 H   0  0  0  0  0  0  0  0  0  0  0  0
    2.5580   -1.2225    0.3723 H   0  0  0  0  0  0  0  0  0  0  0  0
    2.5947   -0.7417    6.6648 H   0  0  0  0  0  0  0  0  0  0  0  0
   -1.5420    1.9073    3.8907 H   0  0  0  0  0  0  0  0  0  0  0  0
   -1.8050    0.1912    4.2773 H   0  0  0  0  0  0  0  0  0  0  0  0
   -1.2472    0.6415    2.7339 H   0  0  0  0  0  0  0  0  0  0  0  0
    2.6507    2.4735    3.6404 H   0  0  0  0  0  0  0  0  0  0  0  0
    1.0562    3.0380    3.1948 H   0  0  0  0  0  0  0  0  0  0  0  0
    0.6804    5.4963    3.1979 H   0  0  0  0  0  0  0  0  0  0  0  0
    2.0569    5.0541    2.1753 H   0  0  0  0  0  0  0  0  0  0  0  0
    2.2024    6.3520    3.3585 H   0  0  0  0  0  0  0  0  0  0  0  0
    2.5051    5.8854    5.7736 H   0  0  0  0  0  0  0  0  0  0  0  0
    2.8002    3.9581    8.6125 H   0  0  0  0  0  0  0  0  0  0  0  0
   -0.0008    4.1676    4.3876 H   0  0  0  0  0  0  0  0  0  0  0  0
   -2.1536    3.5373    8.6622 H   0  0  0  0  0  0  0  0  0  0  0  0
   -1.9520    4.5473    7.2647 H   0  0  0  0  0  0  0  0  0  0  0  0
   -0.6643    4.3867    8.4339 H   0  0  0  0  0  0  0  0  0  0  0  0
   -2.9255    1.8229    7.3389 H   0  0  0  0  0  0  0  0  0  0  0  0
   -2.0247    0.9421    6.1927 H   0  0  0  0  0  0  0  0  0  0  0  0
   -2.6662    2.5223    5.7663 H   0  0  0  0  0  0  0  0  0  0  0  0
   -0.0066    2.2570    9.0234 H   0  0  0  0  0  0  0  0  0  0  0  0
   -0.8045    0.8706    8.3759 H   0  0  0  0  0  0  0  0  0  0  0  0
    3.3686    2.1952    7.6717 H   0  0  0  0  0  0  0  0  0  0  0  0
    4.0713    2.5530    5.0602 H   0  0  0  0  0  0  0  0  0  0  0  0
    2.0783   -2.7202    6.1692 H   0  0  0  0  0  0  0  0  0  0  0  0
    2.3672   -4.0876    5.1333 H   0  0  0  0  0  0  0  0  0  0  0  0
    1.0331   -3.0595    4.8157 H   0  0  0  0  0  0  0  0  0  0  0  0
    4.5562   -2.9598    5.4591 H   0  0  0  0  0  0  0  0  0  0  0  0
    5.1937   -2.5932    3.8965 H   0  0  0  0  0  0  0  0  0  0  0  0
    4.2354   -3.9940    4.0872 H   0  0  0  0  0  0  0  0  0  0  0  0
  1  2  2  0
  1 46  1  0
  1 47  1  0
  2  3  1  0
  2 48  1  0
  3  4  1  0
  3 49  1  0
  3 50  1  0
  5  4  1  6
  4 51  1  0
  4 52  1  0
  5 15  1  0
  5 43  1  0
  5  6  1  0
  6  7  1  0
  6 53  1  0
  6 54  1  0
  7 21  1  0
  7  8  1  6
  7  9  1  0
  8 55  1  0
  8 56  1  0
  8 57  1  0
 10  9  1  6
 10 11  1  0
 10 18  1  0
 10 43  1  0
 11 12  1  0
 11 13  1  0
 11 58  1  6
 12 59  1  0
 13 14  1  0
 13 15  1  0
 13 60  1  6
 14 61  1  0
 15 16  1  0
 15 17  1  6
 16 62  1  0
 16 63  1  0
 16 64  1  0
 17 65  1  0
 18 40  1  0
 18 19  1  0
 18 66  1  1
 19 20  2  0
 19 21  1  6
 21 22  1  6
 21 23  1  0
 22 67  1  0
 22 68  1  0
 22 69  1  0
 23 32  1  0
 23 40  1  0
 23 24  1  6
 24 25  1  0
 24 70  1  0
 24 71  1  0
 25 28  1  0
 25 26  1  6
 25 27  1  0
 26 72  1  0
 26 73  1  0
 26 74  1  0
 27 28  1  0
 28 29  1  0
 28 75  1  1
 29 41  1  0
 29 30  1  1
 29 31  1  0
 30 76  1  0
 31 32  1  0
 32 33  1  6
 32 34  1  0
 33 77  1  0
 34 35  1  0
 34 36  1  0
 34 37  1  0
 35 78  1  0
 35 79  1  0
 35 80  1  0
 36 81  1  0
 36 82  1  0
 36 83  1  0
 37 38  1  0
 37 84  1  0
 37 85  1  0
 38 39  2  0
 40 38  1  1
 40 41  1  0
 41 42  1  0
 41 86  1  1
 42 87  1  0
 43 44  1  0
 43 45  1  0
 44 88  1  0
 44 89  1  0
 44 90  1  0
 45 91  1  0
 45 92  1  0
 45 93  1  0
M  END
>  <i_m_ct_stereo_status>  (95) 
1

>  <s_m_source_file>  (95) 
/var/tmp/pbs.5075288.sched01/tmpjyqx9nt_/132xb3bh5wq.sdf

>  <i_m_source_file_index>  (95) 
47

>  <i_lp_mmshare_version>  (95) 
48012

>  <i_f3d_flags>  (95) 
0

>  <s_epik_input>  (95) 
W0NIMl09W0NIXVtDSDJdW0NIMl1bQ0BAXShDMShbQ0gzXSlbQ0gzXSkoW0NAQF0oW0NIM10pKFtPSF0pW0NASF0oW09IXSlbQ0BASF0yW09IXSlbQ0gyXVtDQEBdKE8zKShbQ0gzXSlbQ0BdKFtTK100W08tXSkoW0NIM10pW0NAXTUoW0NAXTY3W0NAQEhdNFtDQF0xMjMpW0NAQF0oW09IXSkoQyhbQ0gzXSkoW0NIM10pW0NIMl1DNj1PKU9bQ0BAXShbT0hdKShbQ0BASF03W09IXSlbQ0BASF04W0NAQF0oTzgpKFtDSDJdNSlbQ0gzXQ==

>  <s_epik_cmdline>  (95) 
J2VwaWtfcHl0aG9uJywgJy1waHQnLCAnMi4wJywgJy1waCcsICc3LjAnLCAnLXRuJywgJzgnLCAnLW1hJywgJzIwMCcsICctaW1hZScsICc8aW5maWxlLm1hZT4nLCAnLW9tYWUnLCAnPG91dGZpbGUubWFlPic=

>  <r_lp_tautomer_probability>  (95) 
1

>  <r_epik_Ionization_Penalty>  (95) 
1.82464e-05

>  <r_epik_Ionization_Penalty_Charging>  (95) 
0

>  <r_epik_Ionization_Penalty_Neutral>  (95) 
1.82464e-05

>  <r_epik_State_Penalty>  (95) 
-0

>  <r_epik_Charging_Adjusted_Penalty>  (95) 
0

>  <i_epik_Tot_Q>  (95) 
0

>  <i_epik_Tot_abs_Q>  (95) 
2

>  <s_lp_Force_Field>  (95) 
OPLS3e

>  <r_lp_Energy>  (95) 
240.181

>  <b_lp_Chiralities_Consistent>  (95) 
1

>  <s_lp_Variant>  (95) 
64:0-1

>  <s_i_glide_gridfile>  (95) 
pfpi4k_grid

>  <i_i_glide_lignum>  (95) 
47

>  <i_i_glide_rotatable_bonds>  (95) 
9

>  <r_i_docking_score>  (95) 
-3.70691

>  <r_i_glide_ligand_efficiency>  (95) 
-0.0823759

>  <r_i_glide_ligand_efficiency_sa>  (95) 
-0.293002

>  <r_i_glide_ligand_efficiency_ln>  (95) 
-0.771203

>  <r_i_glide_gscore>  (95) 
-3.70691

>  <r_i_glide_lipo>  (95) 
-0.179774

>  <r_i_glide_hbond>  (95) 
-0.00519828

>  <r_i_glide_metal>  (95) 
-0

>  <r_i_glide_rewards>  (95) 
-1

>  <r_i_glide_evdw>  (95) 
-26.1637

>  <r_i_glide_ecoul>  (95) 
-9.02417

>  <r_i_glide_erotb>  (95) 
0.149567

>  <r_i_glide_esite>  (95) 
-0.0096997

>  <r_i_glide_emodel>  (95) 
-46.2455

>  <r_i_glide_energy>  (95) 
-35.1878

>  <r_i_glide_einternal>  (95) 
11.7781

>  <r_i_glide_intrahb_reward>  (95) 
-1

>  <i_i_glide_confnum>  (95) 
3

>  <i_i_glide_posenum>  (95) 
28

>  <r_i_glide_eff_state_penalty>  (95) 
0

>  <ligand_id>  (95) 
64

>  <original_smiles>  (95) 
C=CCCC12CC3(C)OC(C(O)C(O)C1(C)O)(C1[S+]([O-])C3(C)C34CC5(C)OC5C5(O)OC3(O)C(C)(C)CC(=O)C14C5O)C2(C)C

>  <smiles>  (95) 
[H]OC1([H])C([H])(O[H])C(O[H])(C([H])([H])[H])C2(C([H])([H])C([H])([H])C([H])=C([H])[H])C([H])([H])C3(C([H])([H])[H])OC1(C1([H])S(=O)C3(C([H])([H])[H])C34C([H])([H])C5(C([H])([H])[H])OC5([H])C5(O[H])OC3(O[H])C(C([H])([H])[H])(C([H])([H])[H])C([H])([H])C(=O)C14C5([H])O[H])C2(C([H])([H])[H])C([H])([H])[H]

$$$$
64:0:1
     RDKit          3D

 93100  0  0  1  0  0  0  0  0999 V2000
    1.5442   -6.1885    0.7158 C   0  0  0  0  0  0  0  0  0  0  0  0
    1.7176   -5.1002   -0.0618 C   0  0  0  0  0  0  0  0  0  0  0  0
    2.2679   -3.7515    0.3622 C   0  0  0  0  0  0  0  0  0  0  0  0
    2.4235   -3.5998    1.9237 C   0  0  0  0  0  0  0  0  0  0  0  0
    2.7222   -2.1806    2.5409 C   0  0  2  0  0  0  0  0  0  0  0  0
    1.3376   -1.3503    2.3885 C   0  0  0  0  0  0  0  0  0  0  0  0
    1.2777    0.1485    2.9179 C   0  0  2  0  0  0  0  0  0  0  0  0
    1.3272    1.0712    1.6628 C   0  0  0  0  0  0  0  0  0  0  0  0
    2.5206    0.2165    3.5189 O   0  0  0  0  0  0  0  0  0  0  0  0
    2.9537   -0.6840    4.5372 C   0  0  1  0  0  0  0  0  0  0  0  0
    4.3818   -0.1544    4.2820 C   0  0  1  0  0  0  0  0  0  0  0  0
    5.3024   -0.4841    5.3229 O   0  0  0  0  0  0  0  0  0  0  0  0
    4.8240   -0.4345    2.7844 C   0  0  1  0  0  0  0  0  0  0  0  0
    6.2098   -0.6129    2.8380 O   0  0  0  0  0  0  0  0  0  0  0  0
    4.0609   -1.5311    1.8841 C   0  0  1  0  0  0  0  0  0  0  0  0
    5.1313   -2.5330    1.2773 C   0  0  0  0  0  0  0  0  0  0  0  0
    3.6220   -0.8046    0.7476 O   0  0  0  0  0  0  0  0  0  0  0  0
    2.0664   -0.2627    5.7976 C   0  0  2  0  0  0  0  0  0  0  0  0
    0.3745   -0.7812    5.2042 S   0  0  0  0  0  0  0  0  0  0  0  0
   -0.7095   -0.8465    6.2985 O   0  0  0  0  0  0  0  0  0  0  0  0
    0.2971    0.6882    4.0972 C   0  0  2  0  0  0  0  0  0  0  0  0
   -1.1302    0.8039    3.5100 C   0  0  0  0  0  0  0  0  0  0  0  0
    0.8811    1.9284    5.0360 C   0  0  1  0  0  0  0  0  0  0  0  0
    1.6970    2.8650    4.0210 C   0  0  0  0  0  0  0  0  0  0  0  0
    2.1098    4.2983    4.3236 C   0  0  2  0  0  0  0  0  0  0  0  0
    1.7494    5.3077    3.2428 C   0  0  0  0  0  0  0  0  0  0  0  0
    3.4784    4.3984    4.7283 O   0  0  0  0  0  0  0  0  0  0  0  0
    2.4851    4.7144    5.6990 C   0  0  2  0  0  0  0  0  0  0  0  0
    2.1185    3.7454    6.7956 C   0  0  1  0  0  0  0  0  0  0  0  0
    2.5349    4.3546    7.9975 O   0  0  0  0  0  0  0  0  0  0  0  0
    0.7049    3.7389    6.7641 O   0  0  0  0  0  0  0  0  0  0  0  0
   -0.0756    2.9593    5.8427 C   0  0  1  0  0  0  0  0  0  0  0  0
   -0.7274    3.8096    4.9265 O   0  0  0  0  0  0  0  0  0  0  0  0
   -1.1741    2.4374    6.8555 C   0  0  0  0  0  0  0  0  0  0  0  0
   -1.7883    3.6305    7.6517 C   0  0  0  0  0  0  0  0  0  0  0  0
   -2.3964    1.7721    6.2087 C   0  0  0  0  0  0  0  0  0  0  0  0
   -0.5134    1.5164    7.8922 C   0  0  0  0  0  0  0  0  0  0  0  0
    0.9020    0.9843    7.5897 C   0  0  0  0  0  0  0  0  0  0  0  0
    1.4455    0.3410    8.4884 O   0  0  0  0  0  0  0  0  0  0  0  0
    1.6902    1.2422    6.2274 C   0  0  1  0  0  0  0  0  0  0  0  0
    2.7451    2.2798    6.7469 C   0  0  1  0  0  0  0  0  0  0  0  0
    4.0109    2.2173    6.1427 O   0  0  0  0  0  0  0  0  0  0  0  0
    2.9550   -2.2547    4.1011 C   0  0  0  0  0  0  0  0  0  0  0  0
    1.9512   -3.2241    4.8225 C   0  0  0  0  0  0  0  0  0  0  0  0
    4.2711   -3.0198    4.4825 C   0  0  0  0  0  0  0  0  0  0  0  0
    1.8074   -6.1907    1.7685 H   0  0  0  0  0  0  0  0  0  0  0  0
    1.1581   -7.1151    0.3019 H   0  0  0  0  0  0  0  0  0  0  0  0
    1.4968   -5.1544   -1.1171 H   0  0  0  0  0  0  0  0  0  0  0  0
    3.1716   -3.7800   -0.2308 H   0  0  0  0  0  0  0  0  0  0  0  0
    1.6784   -2.9280   -0.0522 H   0  0  0  0  0  0  0  0  0  0  0  0
    1.4824   -3.9072    2.3834 H   0  0  0  0  0  0  0  0  0  0  0  0
    3.1492   -4.3304    2.2857 H   0  0  0  0  0  0  0  0  0  0  0  0
    1.0360   -1.3877    1.3470 H   0  0  0  0  0  0  0  0  0  0  0  0
    0.5193   -1.9122    2.8283 H   0  0  0  0  0  0  0  0  0  0  0  0
    0.4493    1.7040    1.5410 H   0  0  0  0  0  0  0  0  0  0  0  0
    1.4055    0.5379    0.7259 H   0  0  0  0  0  0  0  0  0  0  0  0
    2.2131    1.6988    1.6628 H   0  0  0  0  0  0  0  0  0  0  0  0
    4.4223    0.9288    4.2868 H   0  0  0  0  0  0  0  0  0  0  0  0
    5.3877   -1.4237    5.3694 H   0  0  0  0  0  0  0  0  0  0  0  0
    4.7428    0.5276    2.2670 H   0  0  0  0  0  0  0  0  0  0  0  0
    6.6269   -0.2044    2.0845 H   0  0  0  0  0  0  0  0  0  0  0  0
    5.5379   -3.2015    2.0515 H   0  0  0  0  0  0  0  0  0  0  0  0
    5.9606   -1.9458    0.8556 H   0  0  0  0  0  0  0  0  0  0  0  0
    4.8108   -3.1322    0.4382 H   0  0  0  0  0  0  0  0  0  0  0  0
    2.8801   -1.2452    0.3539 H   0  0  0  0  0  0  0  0  0  0  0  0
    2.3815   -0.8821    6.6460 H   0  0  0  0  0  0  0  0  0  0  0  0
   -1.5588    1.7988    3.6010 H   0  0  0  0  0  0  0  0  0  0  0  0
   -1.8145    0.0760    3.9370 H   0  0  0  0  0  0  0  0  0  0  0  0
   -1.1535    0.5638    2.4507 H   0  0  0  0  0  0  0  0  0  0  0  0
    2.6311    2.4211    3.7007 H   0  0  0  0  0  0  0  0  0  0  0  0
    1.0725    2.9786    3.1454 H   0  0  0  0  0  0  0  0  0  0  0  0
    0.6700    5.4231    3.1684 H   0  0  0  0  0  0  0  0  0  0  0  0
    2.1366    5.0049    2.2674 H   0  0  0  0  0  0  0  0  0  0  0  0
    2.1705    6.2836    3.4827 H   0  0  0  0  0  0  0  0  0  0  0  0
    2.2897    5.7691    5.9010 H   0  0  0  0  0  0  0  0  0  0  0  0
    2.3520    3.7749    8.7208 H   0  0  0  0  0  0  0  0  0  0  0  0
   -0.0967    4.0701    4.2719 H   0  0  0  0  0  0  0  0  0  0  0  0
   -2.5680    3.3064    8.3441 H   0  0  0  0  0  0  0  0  0  0  0  0
   -2.2507    4.3519    6.9894 H   0  0  0  0  0  0  0  0  0  0  0  0
   -1.0693    4.1753    8.2608 H   0  0  0  0  0  0  0  0  0  0  0  0
   -3.2006    1.6338    6.9324 H   0  0  0  0  0  0  0  0  0  0  0  0
   -2.2004    0.7834    5.8395 H   0  0  0  0  0  0  0  0  0  0  0  0
   -2.8068    2.3838    5.4091 H   0  0  0  0  0  0  0  0  0  0  0  0
   -0.4378    2.0401    8.8495 H   0  0  0  0  0  0  0  0  0  0  0  0
   -1.1640    0.6675    8.1124 H   0  0  0  0  0  0  0  0  0  0  0  0
    3.0212    2.0378    7.7767 H   0  0  0  0  0  0  0  0  0  0  0  0
    3.9337    2.4830    5.2359 H   0  0  0  0  0  0  0  0  0  0  0  0
    1.9281   -3.0489    5.8960 H   0  0  0  0  0  0  0  0  0  0  0  0
    2.2143   -4.2748    4.7064 H   0  0  0  0  0  0  0  0  0  0  0  0
    0.9314   -3.1932    4.4570 H   0  0  0  0  0  0  0  0  0  0  0  0
    4.4177   -3.0448    5.5602 H   0  0  0  0  0  0  0  0  0  0  0  0
    5.1893   -2.6393    4.0607 H   0  0  0  0  0  0  0  0  0  0  0  0
    4.2624   -4.0580    4.1606 H   0  0  0  0  0  0  0  0  0  0  0  0
  1  2  2  0
  1 46  1  0
  1 47  1  0
  2  3  1  0
  2 48  1  0
  3  4  1  0
  3 49  1  0
  3 50  1  0
  5  4  1  6
  4 51  1  0
  4 52  1  0
  5 15  1  0
  5 43  1  0
  5  6  1  0
  6  7  1  0
  6 53  1  0
  6 54  1  0
  7 21  1  0
  7  8  1  6
  7  9  1  0
  8 55  1  0
  8 56  1  0
  8 57  1  0
 10  9  1  6
 10 11  1  0
 10 18  1  0
 10 43  1  0
 11 12  1  0
 11 13  1  0
 11 58  1  6
 12 59  1  0
 13 14  1  0
 13 15  1  0
 13 60  1  6
 14 61  1  0
 15 16  1  0
 15 17  1  6
 16 62  1  0
 16 63  1  0
 16 64  1  0
 17 65  1  0
 18 40  1  0
 18 19  1  0
 18 66  1  1
 19 20  2  0
 19 21  1  6
 21 22  1  6
 21 23  1  0
 22 67  1  0
 22 68  1  0
 22 69  1  0
 23 32  1  0
 23 40  1  0
 23 24  1  6
 24 25  1  0
 24 70  1  0
 24 71  1  0
 25 28  1  0
 25 26  1  6
 25 27  1  0
 26 72  1  0
 26 73  1  0
 26 74  1  0
 27 28  1  0
 28 29  1  0
 28 75  1  1
 29 41  1  0
 29 30  1  1
 29 31  1  0
 30 76  1  0
 31 32  1  0
 32 33  1  6
 32 34  1  0
 33 77  1  0
 34 35  1  0
 34 36  1  0
 34 37  1  0
 35 78  1  0
 35 79  1  0
 35 80  1  0
 36 81  1  0
 36 82  1  0
 36 83  1  0
 37 38  1  0
 37 84  1  0
 37 85  1  0
 38 39  2  0
 40 38  1  1
 40 41  1  0
 41 42  1  0
 41 86  1  1
 42 87  1  0
 43 44  1  0
 43 45  1  0
 44 88  1  0
 44 89  1  0
 44 90  1  0
 45 91  1  0
 45 92  1  0
 45 93  1  0
M  END
>  <i_m_ct_stereo_status>  (96) 
1

>  <s_m_source_file>  (96) 
/var/tmp/pbs.5075288.sched01/tmpjyqx9nt_/132xb3bh5wq.sdf

>  <i_m_source_file_index>  (96) 
47

>  <i_lp_mmshare_version>  (96) 
48012

>  <i_f3d_flags>  (96) 
0

>  <s_epik_input>  (96) 
W0NIMl09W0NIXVtDSDJdW0NIMl1bQ0BAXShDMShbQ0gzXSlbQ0gzXSkoW0NAQF0oW0NIM10pKFtPSF0pW0NASF0oW09IXSlbQ0BASF0yW09IXSlbQ0gyXVtDQEBdKE8zKShbQ0gzXSlbQ0BdKFtTK100W08tXSkoW0NIM10pW0NAXTUoW0NAXTY3W0NAQEhdNFtDQF0xMjMpW0NAQF0oW09IXSkoQyhbQ0gzXSkoW0NIM10pW0NIMl1DNj1PKU9bQ0BAXShbT0hdKShbQ0BASF03W09IXSlbQ0BASF04W0NAQF0oTzgpKFtDSDJdNSlbQ0gzXQ==

>  <s_epik_cmdline>  (96) 
J2VwaWtfcHl0aG9uJywgJy1waHQnLCAnMi4wJywgJy1waCcsICc3LjAnLCAnLXRuJywgJzgnLCAnLW1hJywgJzIwMCcsICctaW1hZScsICc8aW5maWxlLm1hZT4nLCAnLW9tYWUnLCAnPG91dGZpbGUubWFlPic=

>  <r_lp_tautomer_probability>  (96) 
1

>  <r_epik_Ionization_Penalty>  (96) 
1.82464e-05

>  <r_epik_Ionization_Penalty_Charging>  (96) 
0

>  <r_epik_Ionization_Penalty_Neutral>  (96) 
1.82464e-05

>  <r_epik_State_Penalty>  (96) 
-0

>  <r_epik_Charging_Adjusted_Penalty>  (96) 
0

>  <i_epik_Tot_Q>  (96) 
0

>  <i_epik_Tot_abs_Q>  (96) 
2

>  <s_lp_Force_Field>  (96) 
OPLS3e

>  <r_lp_Energy>  (96) 
240.181

>  <b_lp_Chiralities_Consistent>  (96) 
1

>  <s_lp_Variant>  (96) 
64:0-1

>  <s_i_glide_gridfile>  (96) 
pfpi4k_grid

>  <i_i_glide_lignum>  (96) 
47

>  <i_i_glide_rotatable_bonds>  (96) 
9

>  <r_i_docking_score>  (96) 
-3.12967

>  <r_i_glide_ligand_efficiency>  (96) 
-0.0695483

>  <r_i_glide_ligand_efficiency_sa>  (96) 
-0.247376

>  <r_i_glide_ligand_efficiency_ln>  (96) 
-0.651112

>  <r_i_glide_gscore>  (96) 
-3.12967

>  <r_i_glide_lipo>  (96) 
-0.223256

>  <r_i_glide_hbond>  (96) 
-0.0040555

>  <r_i_glide_metal>  (96) 
-0

>  <r_i_glide_rewards>  (96) 
-0.5

>  <r_i_glide_evdw>  (96) 
-25.0141

>  <r_i_glide_ecoul>  (96) 
-8.58012

>  <r_i_glide_erotb>  (96) 
0.149567

>  <r_i_glide_esite>  (96) 
-0.0142048

>  <r_i_glide_emodel>  (96) 
-41.8269

>  <r_i_glide_energy>  (96) 
-33.5942

>  <r_i_glide_einternal>  (96) 
4.40677

>  <r_i_glide_intrahb_reward>  (96) 
-0.5

>  <i_i_glide_confnum>  (96) 
3

>  <i_i_glide_posenum>  (96) 
10

>  <r_i_glide_eff_state_penalty>  (96) 
0

>  <ligand_id>  (96) 
64

>  <original_smiles>  (96) 
C=CCCC12CC3(C)OC(C(O)C(O)C1(C)O)(C1[S+]([O-])C3(C)C34CC5(C)OC5C5(O)OC3(O)C(C)(C)CC(=O)C14C5O)C2(C)C

>  <smiles>  (96) 
[H]OC1([H])C([H])(O[H])C(O[H])(C([H])([H])[H])C2(C([H])([H])C([H])([H])C([H])=C([H])[H])C([H])([H])C3(C([H])([H])[H])OC1(C1([H])S(=O)C3(C([H])([H])[H])C34C([H])([H])C5(C([H])([H])[H])OC5([H])C5(O[H])OC3(O[H])C(C([H])([H])[H])(C([H])([H])[H])C([H])([H])C(=O)C14C5([H])O[H])C2(C([H])([H])[H])C([H])([H])[H]

$$$$
64:0:2
     RDKit          3D

 93100  0  0  1  0  0  0  0  0999 V2000
    4.6020   -6.6268    0.7609 C   0  0  0  0  0  0  0  0  0  0  0  0
    3.6639   -5.7255    1.0734 C   0  0  0  0  0  0  0  0  0  0  0  0
    3.9182   -4.4392    1.8328 C   0  0  0  0  0  0  0  0  0  0  0  0
    3.0133   -4.3029    3.0932 C   0  0  0  0  0  0  0  0  0  0  0  0
    3.0911   -2.9733    3.9437 C   0  0  2  0  0  0  0  0  0  0  0  0
    2.6805   -1.7916    2.9229 C   0  0  0  0  0  0  0  0  0  0  0  0
    2.6523   -0.2959    3.4681 C   0  0  2  0  0  0  0  0  0  0  0  0
    3.9233    0.3937    2.8868 C   0  0  0  0  0  0  0  0  0  0  0  0
    2.9111   -0.5273    4.8040 O   0  0  0  0  0  0  0  0  0  0  0  0
    2.0928   -1.3729    5.6039 C   0  0  1  0  0  0  0  0  0  0  0  0
    3.2198   -1.3494    6.6470 C   0  0  1  0  0  0  0  0  0  0  0  0
    2.7945   -1.8068    7.9231 O   0  0  0  0  0  0  0  0  0  0  0  0
    4.5519   -1.9671    6.0577 C   0  0  1  0  0  0  0  0  0  0  0  0
    5.2255   -2.6175    7.1210 O   0  0  0  0  0  0  0  0  0  0  0  0
    4.5115   -2.8417    4.7018 C   0  0  1  0  0  0  0  0  0  0  0  0
    5.2867   -4.1791    4.9389 C   0  0  0  0  0  0  0  0  0  0  0  0
    5.3592   -2.1837    3.7838 O   0  0  0  0  0  0  0  0  0  0  0  0
    0.7421   -0.5529    5.7589 C   0  0  2  0  0  0  0  0  0  0  0  0
    0.1353   -0.6136    3.9950 S   0  0  0  0  0  0  0  0  0  0  0  0
   -1.3140   -0.2526    3.8269 O   0  0  0  0  0  0  0  0  0  0  0  0
    1.3569    0.6730    3.5006 C   0  0  2  0  0  0  0  0  0  0  0  0
    1.0540    1.1255    2.0395 C   0  0  0  0  0  0  0  0  0  0  0  0
    1.2825    1.7765    4.7193 C   0  0  1  0  0  0  0  0  0  0  0  0
    2.7794    2.3077    4.8888 C   0  0  0  0  0  0  0  0  0  0  0  0
    3.1121    3.5789    5.6526 C   0  0  2  0  0  0  0  0  0  0  0  0
    4.0378    4.5018    4.9062 C   0  0  0  0  0  0  0  0  0  0  0  0
    3.6146    3.2728    6.9397 O   0  0  0  0  0  0  0  0  0  0  0  0
    2.3945    3.9908    6.8682 C   0  0  2  0  0  0  0  0  0  0  0  0
    1.0461    3.3406    7.0552 C   0  0  1  0  0  0  0  0  0  0  0  0
    0.4849    3.9380    8.1979 O   0  0  0  0  0  0  0  0  0  0  0  0
    0.3368    3.7544    5.8973 O   0  0  0  0  0  0  0  0  0  0  0  0
    0.4143    3.1292    4.5996 C   0  0  1  0  0  0  0  0  0  0  0  0
    1.0065    4.0225    3.6752 O   0  0  0  0  0  0  0  0  0  0  0  0
   -1.1271    3.0642    4.2866 C   0  0  0  0  0  0  0  0  0  0  0  0
   -1.7044    4.4825    4.4522 C   0  0  0  0  0  0  0  0  0  0  0  0
   -1.5316    2.7076    2.8471 C   0  0  0  0  0  0  0  0  0  0  0  0
   -1.8309    2.1611    5.2879 C   0  0  0  0  0  0  0  0  0  0  0  0
   -0.9751    1.1957    6.0976 C   0  0  0  0  0  0  0  0  0  0  0  0
   -1.5967    0.5534    6.9204 O   0  0  0  0  0  0  0  0  0  0  0  0
    0.5979    1.0338    5.9570 C   0  0  1  0  0  0  0  0  0  0  0  0
    1.0366    1.7611    7.2630 C   0  0  1  0  0  0  0  0  0  0  0  0
    2.1887    1.2481    7.8708 O   0  0  0  0  0  0  0  0  0  0  0  0
    1.9860   -2.9127    5.0617 C   0  0  0  0  0  0  0  0  0  0  0  0
    0.5911   -3.4490    4.5696 C   0  0  0  0  0  0  0  0  0  0  0  0
    2.1872   -3.9979    6.1800 C   0  0  0  0  0  0  0  0  0  0  0  0
    5.6337   -6.4972    1.0636 H   0  0  0  0  0  0  0  0  0  0  0  0
    4.3558   -7.5140    0.1912 H   0  0  0  0  0  0  0  0  0  0  0  0
    2.6449   -5.8986    0.7520 H   0  0  0  0  0  0  0  0  0  0  0  0
    4.9841   -4.3569    2.0401 H   0  0  0  0  0  0  0  0  0  0  0  0
    3.7285   -3.6640    1.0950 H   0  0  0  0  0  0  0  0  0  0  0  0
    2.0008   -4.4202    2.7209 H   0  0  0  0  0  0  0  0  0  0  0  0
    3.1642   -5.1687    3.7351 H   0  0  0  0  0  0  0  0  0  0  0  0
    3.3337   -1.8264    2.0599 H   0  0  0  0  0  0  0  0  0  0  0  0
    1.7415   -2.0221    2.4324 H   0  0  0  0  0  0  0  0  0  0  0  0
    3.6873    1.2396    2.2378 H   0  0  0  0  0  0  0  0  0  0  0  0
    4.5604   -0.2438    2.2729 H   0  0  0  0  0  0  0  0  0  0  0  0
    4.5928    0.7394    3.6781 H   0  0  0  0  0  0  0  0  0  0  0  0
    3.5358   -0.3346    6.8547 H   0  0  0  0  0  0  0  0  0  0  0  0
    2.6068   -2.7331    7.8626 H   0  0  0  0  0  0  0  0  0  0  0  0
    5.1861   -1.1009    5.8434 H   0  0  0  0  0  0  0  0  0  0  0  0
    6.0909   -2.8528    6.8210 H   0  0  0  0  0  0  0  0  0  0  0  0
    4.7711   -4.8632    5.6085 H   0  0  0  0  0  0  0  0  0  0  0  0
    6.2740   -4.0026    5.3615 H   0  0  0  0  0  0  0  0  0  0  0  0
    5.5052   -4.7511    4.0476 H   0  0  0  0  0  0  0  0  0  0  0  0
    6.2006   -2.0702    4.1766 H   0  0  0  0  0  0  0  0  0  0  0  0
    0.0775   -1.1294    6.4118 H   0  0  0  0  0  0  0  0  0  0  0  0
    1.0223    2.2071    1.9069 H   0  0  0  0  0  0  0  0  0  0  0  0
    0.1340    0.6936    1.6443 H   0  0  0  0  0  0  0  0  0  0  0  0
    1.7998    0.7621    1.3295 H   0  0  0  0  0  0  0  0  0  0  0  0
    3.4354    1.5724    5.3445 H   0  0  0  0  0  0  0  0  0  0  0  0
    3.1503    2.5017    3.8861 H   0  0  0  0  0  0  0  0  0  0  0  0
    3.5660    4.9019    4.0070 H   0  0  0  0  0  0  0  0  0  0  0  0
    4.9594    3.9520    4.6782 H   0  0  0  0  0  0  0  0  0  0  0  0
    4.3417    5.3251    5.5455 H   0  0  0  0  0  0  0  0  0  0  0  0
    2.4329    5.0743    7.0204 H   0  0  0  0  0  0  0  0  0  0  0  0
   -0.3333    3.5099    8.4098 H   0  0  0  0  0  0  0  0  0  0  0  0
    0.6019    3.9201    2.8090 H   0  0  0  0  0  0  0  0  0  0  0  0
   -2.7504    4.4426    4.1774 H   0  0  0  0  0  0  0  0  0  0  0  0
   -1.2269    5.2203    3.8049 H   0  0  0  0  0  0  0  0  0  0  0  0
   -1.6466    4.8342    5.4775 H   0  0  0  0  0  0  0  0  0  0  0  0
   -2.5936    2.8960    2.6683 H   0  0  0  0  0  0  0  0  0  0  0  0
   -1.4069    1.6707    2.5987 H   0  0  0  0  0  0  0  0  0  0  0  0
   -1.0191    3.3196    2.1180 H   0  0  0  0  0  0  0  0  0  0  0  0
   -2.4248    2.7451    5.9961 H   0  0  0  0  0  0  0  0  0  0  0  0
   -2.5621    1.5680    4.7426 H   0  0  0  0  0  0  0  0  0  0  0  0
    0.3056    1.5714    8.0558 H   0  0  0  0  0  0  0  0  0  0  0  0
    2.9354    1.4286    7.3084 H   0  0  0  0  0  0  0  0  0  0  0  0
   -0.2178   -3.1504    5.2358 H   0  0  0  0  0  0  0  0  0  0  0  0
    0.5390   -4.5401    4.5191 H   0  0  0  0  0  0  0  0  0  0  0  0
    0.3226   -3.1548    3.5610 H   0  0  0  0  0  0  0  0  0  0  0  0
    1.4032   -3.9302    6.9400 H   0  0  0  0  0  0  0  0  0  0  0  0
    3.1304   -3.9744    6.7107 H   0  0  0  0  0  0  0  0  0  0  0  0
    2.1518   -5.0184    5.7860 H   0  0  0  0  0  0  0  0  0  0  0  0
  1  2  2  0
  1 46  1  0
  1 47  1  0
  2  3  1  0
  2 48  1  0
  3  4  1  0
  3 49  1  0
  3 50  1  0
  5  4  1  6
  4 51  1  0
  4 52  1  0
  5 15  1  0
  5 43  1  0
  5  6  1  0
  6  7  1  0
  6 53  1  0
  6 54  1  0
  7 21  1  0
  7  8  1  6
  7  9  1  0
  8 55  1  0
  8 56  1  0
  8 57  1  0
 10  9  1  6
 10 11  1  0
 10 18  1  0
 10 43  1  0
 11 12  1  0
 11 13  1  0
 11 58  1  1
 12 59  1  0
 13 14  1  0
 13 15  1  0
 13 60  1  6
 14 61  1  0
 15 16  1  0
 15 17  1  6
 16 62  1  0
 16 63  1  0
 16 64  1  0
 17 65  1  0
 18 40  1  0
 18 19  1  0
 18 66  1  1
 19 20  2  0
 19 21  1  6
 21 22  1  6
 21 23  1  0
 22 67  1  0
 22 68  1  0
 22 69  1  0
 23 32  1  0
 23 40  1  0
 23 24  1  1
 24 25  1  0
 24 70  1  0
 24 71  1  0
 25 28  1  0
 25 26  1  6
 25 27  1  0
 26 72  1  0
 26 73  1  0
 26 74  1  0
 27 28  1  0
 28 29  1  0
 28 75  1  1
 29 41  1  0
 29 30  1  1
 29 31  1  0
 30 76  1  0
 31 32  1  0
 32 33  1  6
 32 34  1  0
 33 77  1  0
 34 35  1  0
 34 36  1  0
 34 37  1  0
 35 78  1  0
 35 79  1  0
 35 80  1  0
 36 81  1  0
 36 82  1  0
 36 83  1  0
 37 38  1  0
 37 84  1  0
 37 85  1  0
 38 39  2  0
 40 38  1  6
 40 41  1  0
 41 42  1  0
 41 86  1  1
 42 87  1  0
 43 44  1  0
 43 45  1  0
 44 88  1  0
 44 89  1  0
 44 90  1  0
 45 91  1  0
 45 92  1  0
 45 93  1  0
M  END
>  <i_m_ct_stereo_status>  (97) 
1

>  <s_m_source_file>  (97) 
/var/tmp/pbs.5075288.sched01/tmpjyqx9nt_/132xb3bh5wq.sdf

>  <i_m_source_file_index>  (97) 
47

>  <i_lp_mmshare_version>  (97) 
48012

>  <i_f3d_flags>  (97) 
0

>  <s_epik_input>  (97) 
W0NIMl09W0NIXVtDSDJdW0NIMl1bQ0BAXShDMShbQ0gzXSlbQ0gzXSkoW0NAQF0oW0NIM10pKFtPSF0pW0NASF0oW09IXSlbQ0BASF0yW09IXSlbQ0gyXVtDQEBdKE8zKShbQ0gzXSlbQ0BdKFtTK100W08tXSkoW0NIM10pW0NAXTUoW0NAXTY3W0NAQEhdNFtDQF0xMjMpW0NAQF0oW09IXSkoQyhbQ0gzXSkoW0NIM10pW0NIMl1DNj1PKU9bQ0BAXShbT0hdKShbQ0BASF03W09IXSlbQ0BASF04W0NAQF0oTzgpKFtDSDJdNSlbQ0gzXQ==

>  <s_epik_cmdline>  (97) 
J2VwaWtfcHl0aG9uJywgJy1waHQnLCAnMi4wJywgJy1waCcsICc3LjAnLCAnLXRuJywgJzgnLCAnLW1hJywgJzIwMCcsICctaW1hZScsICc8aW5maWxlLm1hZT4nLCAnLW9tYWUnLCAnPG91dGZpbGUubWFlPic=

>  <r_lp_tautomer_probability>  (97) 
1

>  <r_epik_Ionization_Penalty>  (97) 
1.82464e-05

>  <r_epik_Ionization_Penalty_Charging>  (97) 
0

>  <r_epik_Ionization_Penalty_Neutral>  (97) 
1.82464e-05

>  <r_epik_State_Penalty>  (97) 
-0

>  <r_epik_Charging_Adjusted_Penalty>  (97) 
0

>  <i_epik_Tot_Q>  (97) 
0

>  <i_epik_Tot_abs_Q>  (97) 
2

>  <s_lp_Force_Field>  (97) 
OPLS3e

>  <r_lp_Energy>  (97) 
240.181

>  <b_lp_Chiralities_Consistent>  (97) 
1

>  <s_lp_Variant>  (97) 
64:0-1

>  <s_i_glide_gridfile>  (97) 
pfpi4k_grid

>  <i_i_glide_lignum>  (97) 
47

>  <i_i_glide_rotatable_bonds>  (97) 
9

>  <r_i_docking_score>  (97) 
-2.49997

>  <r_i_glide_ligand_efficiency>  (97) 
-0.0555549

>  <r_i_glide_ligand_efficiency_sa>  (97) 
-0.197603

>  <r_i_glide_ligand_efficiency_ln>  (97) 
-0.520105

>  <r_i_glide_gscore>  (97) 
-2.49997

>  <r_i_glide_lipo>  (97) 
-0.189803

>  <r_i_glide_hbond>  (97) 
-0.165079

>  <r_i_glide_metal>  (97) 
-0

>  <r_i_glide_rewards>  (97) 
-0.5

>  <r_i_glide_evdw>  (97) 
-18.9969

>  <r_i_glide_ecoul>  (97) 
-5.23025

>  <r_i_glide_erotb>  (97) 
0.149567

>  <r_i_glide_esite>  (97) 
-0.060272

>  <r_i_glide_emodel>  (97) 
-33.6197

>  <r_i_glide_energy>  (97) 
-24.2272

>  <r_i_glide_einternal>  (97) 
2.17609

>  <r_i_glide_intrahb_reward>  (97) 
-0.5

>  <i_i_glide_confnum>  (97) 
4

>  <i_i_glide_posenum>  (97) 
6

>  <r_i_glide_eff_state_penalty>  (97) 
0

>  <ligand_id>  (97) 
64

>  <original_smiles>  (97) 
C=CCCC12CC3(C)OC(C(O)C(O)C1(C)O)(C1[S+]([O-])C3(C)C34CC5(C)OC5C5(O)OC3(O)C(C)(C)CC(=O)C14C5O)C2(C)C

>  <smiles>  (97) 
[H]OC1([H])C([H])(O[H])C(O[H])(C([H])([H])[H])C2(C([H])([H])C([H])([H])C([H])=C([H])[H])C([H])([H])C3(C([H])([H])[H])OC1(C1([H])S(=O)C3(C([H])([H])[H])C34C([H])([H])C5(C([H])([H])[H])OC5([H])C5(O[H])OC3(O[H])C(C([H])([H])[H])(C([H])([H])[H])C([H])([H])C(=O)C14C5([H])O[H])C2(C([H])([H])[H])C([H])([H])[H]

$$$$
71:0:0
     RDKit          3D

 84 91  0  0  1  0  0  0  0  0999 V2000
   -0.9724   -7.0001    3.6153 C   0  0  0  0  0  0  0  0  0  0  0  0
    0.2372   -7.5673    3.5225 C   0  0  0  0  0  0  0  0  0  0  0  0
    0.4735   -9.0900    3.3536 C   0  0  1  0  0  0  0  0  0  0  0  0
   -0.6785   -9.7267    2.8466 O   0  0  0  0  0  0  0  0  0  0  0  0
    1.7553   -9.5388    2.5052 C   0  0  0  0  0  0  0  0  0  0  0  0
    2.9131   -8.4825    2.2486 C   0  0  1  0  0  0  0  0  0  0  0  0
    3.4923   -8.9227    1.0108 O   0  0  0  0  0  0  0  0  0  0  0  0
    4.3556   -8.0773    0.2643 C   0  0  0  0  0  0  0  0  0  0  0  0
    2.0965   -7.2329    2.0778 C   0  0  1  0  0  0  0  0  0  0  0  0
    1.0865   -7.2489    1.0637 O   0  0  0  0  0  0  0  0  0  0  0  0
    1.5461   -6.7991    3.5003 C   0  0  1  0  0  0  0  0  0  0  0  0
    1.7093   -5.2630    3.4121 C   0  0  0  0  0  0  0  0  0  0  0  0
    2.9223   -4.6265    3.1600 C   0  0  0  0  0  0  0  0  0  0  0  0
    4.1984   -5.3674    2.7633 C   0  0  0  0  0  0  0  0  0  0  0  0
    4.9144   -4.8819    1.6947 C   0  0  0  0  0  0  0  0  0  0  0  0
    6.0505   -5.5615    1.2832 O   0  0  0  0  0  0  0  0  0  0  0  0
    7.2687   -4.9511    1.1804 C   0  0  0  0  0  0  0  0  0  0  0  0
    8.4002   -5.9403    0.9543 C   0  0  0  0  0  0  0  0  0  0  0  0
    7.5053   -3.7469    1.2649 O   0  0  0  0  0  0  0  0  0  0  0  0
    4.5259   -3.7095    0.7481 C   0  0  2  0  0  0  0  0  0  0  0  0
    5.0914   -3.8801   -0.5457 O   0  0  0  0  0  0  0  0  0  0  0  0
    4.7904   -2.3745    1.4654 C   0  0  1  0  0  0  0  0  0  0  0  0
    5.2545   -1.2865    0.6873 O   0  0  0  0  0  0  0  0  0  0  0  0
    3.3025   -2.3472    1.9294 C   0  0  1  0  0  0  0  0  0  0  0  0
    2.6610   -0.9343    1.8356 C   0  0  0  0  0  0  0  0  0  0  0  0
    3.1937   -0.0068    2.7633 O   0  0  0  0  0  0  0  0  0  0  0  0
    3.0461   -3.2626    0.6896 C   0  0  1  0  0  0  0  0  0  0  0  0
    2.6688   -2.6517   -0.5345 O   0  0  0  0  0  0  0  0  0  0  0  0
    2.9928   -3.0742    3.3061 C   0  0  1  0  0  0  0  0  0  0  0  0
    1.7488   -2.4926    4.0419 C   0  0  0  0  0  0  0  0  0  0  0  0
    4.0189   -2.7787    4.2388 O   0  0  0  0  0  0  0  0  0  0  0  0
    4.7920   -6.6640    3.4792 C   0  0  1  0  0  0  0  0  0  0  0  0
    5.1797   -6.2355    4.9787 C   0  0  0  0  0  0  0  0  0  0  0  0
    6.0713   -5.1671    4.8682 O   0  0  0  0  0  0  0  0  0  0  0  0
    7.3676   -5.7130    4.9406 C   0  0  0  0  0  0  0  0  0  0  0  0
    7.1461   -6.8366    5.9354 C   0  0  0  0  0  0  0  0  0  0  0  0
    5.8632   -7.2926    5.5874 O   0  0  0  0  0  0  0  0  0  0  0  0
    4.0551   -5.7352    5.9662 C   0  0  2  0  0  0  0  0  0  0  0  0
    3.5851   -6.6974    6.9292 O   0  0  0  0  0  0  0  0  0  0  0  0
    2.5887   -6.2447    6.0123 C   0  0  1  0  0  0  0  0  0  0  0  0
    1.4641   -5.5079    6.7108 C   0  0  0  0  0  0  0  0  0  0  0  0
    2.1471   -7.2365    4.9266 C   0  0  1  0  0  0  0  0  0  0  0  0
    3.3567   -8.6340    4.9682 S   0  0  0  0  0  0  0  0  0  0  0  0
    2.7133  -10.0125    5.0268 O   0  0  0  0  0  0  0  0  0  0  0  0
    4.0917   -8.1848    3.3200 C   0  0  1  0  0  0  0  0  0  0  0  0
    5.1376   -9.0967    3.0294 O   0  0  0  0  0  0  0  0  0  0  0  0
   -1.0451   -5.9357    3.7383 H   0  0  0  0  0  0  0  0  0  0  0  0
   -1.8804   -7.5834    3.5667 H   0  0  0  0  0  0  0  0  0  0  0  0
    0.5696   -9.4507    4.3731 H   0  0  0  0  0  0  0  0  0  0  0  0
   -0.5672   -9.8735    1.9176 H   0  0  0  0  0  0  0  0  0  0  0  0
    2.1453  -10.4972    2.8512 H   0  0  0  0  0  0  0  0  0  0  0  0
    1.3998   -9.8190    1.5124 H   0  0  0  0  0  0  0  0  0  0  0  0
    4.5854   -8.6093   -0.6517 H   0  0  0  0  0  0  0  0  0  0  0  0
    5.2984   -7.8895    0.7686 H   0  0  0  0  0  0  0  0  0  0  0  0
    3.9147   -7.1298   -0.0438 H   0  0  0  0  0  0  0  0  0  0  0  0
    2.6805   -6.5277    1.5321 H   0  0  0  0  0  0  0  0  0  0  0  0
    0.7363   -8.1300    1.0129 H   0  0  0  0  0  0  0  0  0  0  0  0
    0.8131   -4.7222    3.6733 H   0  0  0  0  0  0  0  0  0  0  0  0
    8.2026   -6.5995    0.1091 H   0  0  0  0  0  0  0  0  0  0  0  0
    8.5646   -6.5392    1.8496 H   0  0  0  0  0  0  0  0  0  0  0  0
    9.3123   -5.3863    0.7534 H   0  0  0  0  0  0  0  0  0  0  0  0
    4.5253   -4.4762   -1.0198 H   0  0  0  0  0  0  0  0  0  0  0  0
    5.4939   -2.5066    2.2891 H   0  0  0  0  0  0  0  0  0  0  0  0
    4.6573   -1.2133   -0.0461 H   0  0  0  0  0  0  0  0  0  0  0  0
    2.8456   -0.4941    0.8548 H   0  0  0  0  0  0  0  0  0  0  0  0
    1.5748   -0.9799    1.9076 H   0  0  0  0  0  0  0  0  0  0  0  0
    4.0989    0.1596    2.5356 H   0  0  0  0  0  0  0  0  0  0  0  0
    2.3486   -4.0778    0.8604 H   0  0  0  0  0  0  0  0  0  0  0  0
    1.9535   -2.0271   -0.3874 H   0  0  0  0  0  0  0  0  0  0  0  0
    0.8387   -2.5565    3.4429 H   0  0  0  0  0  0  0  0  0  0  0  0
    1.8804   -1.4466    4.3195 H   0  0  0  0  0  0  0  0  0  0  0  0
    1.5767   -3.0026    4.9895 H   0  0  0  0  0  0  0  0  0  0  0  0
    4.8522   -3.0660    3.8922 H   0  0  0  0  0  0  0  0  0  0  0  0
    5.7576   -6.8571    3.0408 H   0  0  0  0  0  0  0  0  0  0  0  0
    7.6647   -6.0974    3.9636 H   0  0  0  0  0  0  0  0  0  0  0  0
    8.1110   -4.9903    5.2728 H   0  0  0  0  0  0  0  0  0  0  0  0
    7.8906   -7.6305    5.8587 H   0  0  0  0  0  0  0  0  0  0  0  0
    7.1287   -6.4438    6.9548 H   0  0  0  0  0  0  0  0  0  0  0  0
    4.2490   -4.7540    6.4101 H   0  0  0  0  0  0  0  0  0  0  0  0
    0.8559   -4.9476    6.0026 H   0  0  0  0  0  0  0  0  0  0  0  0
    1.8790   -4.8028    7.4377 H   0  0  0  0  0  0  0  0  0  0  0  0
    0.8230   -6.2085    7.2472 H   0  0  0  0  0  0  0  0  0  0  0  0
    2.8707   -6.7607    4.4451 H   0  0  0  0  0  0  0  0  0  0  0  0
    4.8312   -9.6906    2.3520 H   0  0  0  0  0  0  0  0  0  0  0  0
  1  2  2  0
  1 47  1  0
  1 48  1  0
 11  2  1  1
  2  3  1  0
  3  4  1  0
  3  5  1  0
  3 49  1  1
  4 50  1  0
  5  6  1  0
  5 51  1  0
  5 52  1  0
  6 45  1  0
  6  7  1  6
  6  9  1  0
  7  8  1  0
  8 53  1  0
  8 54  1  0
  8 55  1  0
  9 10  1  0
  9 11  1  0
  9 56  1  6
 10 57  1  0
 11 42  1  0
 11 12  1  0
 12 13  2  3
 12 58  1  0
 13 29  1  0
 13 14  1  0
 14 15  2  0
 14 32  1  0
 15 16  1  0
 15 20  1  0
 16 17  1  0
 17 18  1  0
 17 19  2  0
 18 59  1  0
 18 60  1  0
 18 61  1  0
 20 27  1  0
 20 21  1  6
 20 22  1  0
 21 62  1  0
 22 23  1  0
 22 24  1  0
 22 63  1  1
 23 64  1  0
 24 25  1  6
 24 27  1  0
 24 29  1  0
 25 26  1  0
 25 65  1  0
 25 66  1  0
 26 67  1  0
 27 28  1  0
 27 68  1  1
 28 69  1  0
 29 30  1  0
 29 31  1  1
 30 70  1  0
 30 71  1  0
 30 72  1  0
 31 73  1  0
 32 45  1  0
 32 33  1  0
 32 74  1  6
 33 37  1  0
 33 34  1  0
 33 38  1  0
 34 35  1  0
 35 36  1  0
 35 75  1  0
 35 76  1  0
 36 37  1  0
 36 77  1  0
 36 78  1  0
 38 40  1  0
 38 39  1  0
 38 79  1  1
 39 40  1  0
 40 41  1  1
 40 42  1  0
 41 80  1  0
 41 81  1  0
 41 82  1  0
 42 43  1  0
 42 83  1  1
 43 44  2  0
 43 45  1  6
 45 46  1  6
 46 84  1  0
M  END
>  <i_m_ct_stereo_status>  (98) 
1

>  <s_m_source_file>  (98) 
/var/tmp/pbs.5075288.sched01/tmpjyqx9nt_/132xb3bh5wq.sdf

>  <i_m_source_file_index>  (98) 
56

>  <i_lp_mmshare_version>  (98) 
48012

>  <i_f3d_flags>  (98) 
0

>  <s_epik_input>  (98) 
W0NIMl09QzFbQ0BASF0oW09IXSlbQ0gyXVtDQEBdKE9bQ0gzXSkoW0NASF0yW09IXSlbQ0BAXShbUytdM1tPLV0pKFtPSF0pW0NASF0oQzQoT1tDSDJdW0NIMl1PNClbQ0BIXShPNSlbQ0BAXTUoW0NIM10pW0NAQEhdM1tDQF0xMjYpQz03L0MoPVtDSF1cNilbQ0BAXShbQ0gzXSkoW09IXSlbQ0BAXTgoW0NIMl1bT0hdKVtDQEhdKFtPSF0pW0NAXShbT0hdKShbQ0BASF04W09IXSlDN09DKD1PKVtDSDNd

>  <s_epik_cmdline>  (98) 
J2VwaWtfcHl0aG9uJywgJy1waHQnLCAnMi4wJywgJy1waCcsICc3LjAnLCAnLXRuJywgJzgnLCAnLW1hJywgJzIwMCcsICctaW1hZScsICc8aW5maWxlLm1hZT4nLCAnLW9tYWUnLCAnPG91dGZpbGUubWFlPic=

>  <r_lp_tautomer_probability>  (98) 
1

>  <r_epik_Ionization_Penalty>  (98) 
0.000290831

>  <r_epik_Ionization_Penalty_Charging>  (98) 
0

>  <r_epik_Ionization_Penalty_Neutral>  (98) 
0.000290831

>  <r_epik_State_Penalty>  (98) 
-0

>  <r_epik_Charging_Adjusted_Penalty>  (98) 
0

>  <i_epik_Tot_Q>  (98) 
0

>  <i_epik_Tot_abs_Q>  (98) 
2

>  <s_lp_Force_Field>  (98) 
OPLS3e

>  <r_lp_Energy>  (98) 
200.942

>  <b_lp_Chiralities_Consistent>  (98) 
1

>  <s_lp_Variant>  (98) 
71:0-1

>  <s_i_glide_gridfile>  (98) 
pfpi4k_grid

>  <i_i_glide_lignum>  (98) 
56

>  <i_i_glide_rotatable_bonds>  (98) 
12

>  <r_i_docking_score>  (98) 
-3.25887

>  <r_i_glide_ligand_efficiency>  (98) 
-0.070845

>  <r_i_glide_ligand_efficiency_sa>  (98) 
-0.253841

>  <r_i_glide_ligand_efficiency_ln>  (98) 
-0.674904

>  <r_i_glide_gscore>  (98) 
-3.25887

>  <r_i_glide_lipo>  (98) 
-0.17887

>  <r_i_glide_hbond>  (98) 
-0.116702

>  <r_i_glide_metal>  (98) 
-0

>  <r_i_glide_rewards>  (98) 
-0.154522

>  <r_i_glide_evdw>  (98) 
-28.8815

>  <r_i_glide_ecoul>  (98) 
-9.71435

>  <r_i_glide_erotb>  (98) 
0.0947997

>  <r_i_glide_esite>  (98) 
-0.00234636

>  <r_i_glide_emodel>  (98) 
-43.8191

>  <r_i_glide_energy>  (98) 
-38.5959

>  <r_i_glide_einternal>  (98) 
4.07113

>  <r_i_glide_intrahb_reward>  (98) 
-0

>  <i_i_glide_confnum>  (98) 
5

>  <i_i_glide_posenum>  (98) 
8

>  <r_i_glide_eff_state_penalty>  (98) 
0

>  <ligand_id>  (98) 
71

>  <original_smiles>  (98) 
C=C1C(O)CC2(OC)C(O)C13C=C1C(=C(OC(C)=O)C4(O)C(O)C(CO)(C4O)C1(C)O)C1C4(OCCO4)C4OC4(C)C3[S+]([O-])C12O

>  <smiles>  (98) 
[H]OC([H])([H])C12C([H])(O[H])C(O[H])(C(OC(=O)C([H])([H])[H])=C3C(=C([H])C45C(=C([H])[H])C([H])(O[H])C([H])([H])C(OC([H])([H])[H])(C4([H])O[H])C4(O[H])S(=O)C5([H])C5(C([H])([H])[H])OC5([H])C5(OC([H])([H])C([H])([H])O5)C34[H])C1(O[H])C([H])([H])[H])C2([H])O[H]

$$$$
71:0:1
     RDKit          3D

 84 91  0  0  1  0  0  0  0  0999 V2000
   -1.2825    2.0461    2.5020 C   0  0  0  0  0  0  0  0  0  0  0  0
   -0.9462    2.3143    3.7616 C   0  0  0  0  0  0  0  0  0  0  0  0
   -1.8833    2.9927    4.8028 C   0  0  1  0  0  0  0  0  0  0  0  0
   -3.2102    2.9060    4.3764 O   0  0  0  0  0  0  0  0  0  0  0  0
   -1.7632    2.4942    6.3280 C   0  0  0  0  0  0  0  0  0  0  0  0
   -0.4268    1.7482    6.7935 C   0  0  1  0  0  0  0  0  0  0  0  0
   -0.8765    0.8952    7.8584 O   0  0  0  0  0  0  0  0  0  0  0  0
   -0.0227   -0.0877    8.4315 C   0  0  0  0  0  0  0  0  0  0  0  0
   -0.1543    0.9588    5.5566 C   0  0  1  0  0  0  0  0  0  0  0  0
   -1.2126    0.0812    5.1511 O   0  0  0  0  0  0  0  0  0  0  0  0
    0.3691    1.9289    4.4084 C   0  0  1  0  0  0  0  0  0  0  0  0
    1.4530    1.0779    3.7412 C   0  0  0  0  0  0  0  0  0  0  0  0
    2.5453    0.5643    4.4361 C   0  0  0  0  0  0  0  0  0  0  0  0
    2.6934    0.6134    5.9601 C   0  0  0  0  0  0  0  0  0  0  0  0
    3.0505   -0.5511    6.5944 C   0  0  0  0  0  0  0  0  0  0  0  0
    3.1186   -0.5743    7.9679 O   0  0  0  0  0  0  0  0  0  0  0  0
    4.2946   -0.6684    8.6700 C   0  0  0  0  0  0  0  0  0  0  0  0
    5.5605   -0.9951    7.8523 C   0  0  0  0  0  0  0  0  0  0  0  0
    4.3222   -0.5638    9.9010 O   0  0  0  0  0  0  0  0  0  0  0  0
    3.1961   -1.9503    5.9772 C   0  0  2  0  0  0  0  0  0  0  0  0
    2.9302   -2.9460    6.9612 O   0  0  0  0  0  0  0  0  0  0  0  0
    4.5396   -2.0453    5.2297 C   0  0  1  0  0  0  0  0  0  0  0  0
    5.2371   -3.3089    5.3180 O   0  0  0  0  0  0  0  0  0  0  0  0
    3.7844   -1.6746    3.9123 C   0  0  1  0  0  0  0  0  0  0  0  0
    4.3009   -2.4837    2.6743 C   0  0  0  0  0  0  0  0  0  0  0  0
    5.6127   -2.1111    2.2944 O   0  0  0  0  0  0  0  0  0  0  0  0
    2.5123   -2.2545    4.6098 C   0  0  1  0  0  0  0  0  0  0  0  0
    2.1754   -3.6143    4.3487 O   0  0  0  0  0  0  0  0  0  0  0  0
    3.6620   -0.1196    3.6059 C   0  0  1  0  0  0  0  0  0  0  0  0
    3.5837    0.2188    2.0936 C   0  0  0  0  0  0  0  0  0  0  0  0
    4.8843    0.5436    3.9476 O   0  0  0  0  0  0  0  0  0  0  0  0
    2.4613    1.9087    6.8900 C   0  0  1  0  0  0  0  0  0  0  0  0
    3.5879    2.9809    6.4711 C   0  0  0  0  0  0  0  0  0  0  0  0
    4.8049    2.3237    6.6522 O   0  0  0  0  0  0  0  0  0  0  0  0
    5.7624    3.3222    6.9552 C   0  0  0  0  0  0  0  0  0  0  0  0
    4.9206    4.3136    7.7515 C   0  0  0  0  0  0  0  0  0  0  0  0
    3.5754    4.0270    7.3884 O   0  0  0  0  0  0  0  0  0  0  0  0
    3.6014    3.5516    5.0109 C   0  0  2  0  0  0  0  0  0  0  0  0
    3.0308    4.8559    4.8374 O   0  0  0  0  0  0  0  0  0  0  0  0
    2.3643    3.8299    4.1171 C   0  0  1  0  0  0  0  0  0  0  0  0
    2.4585    4.0426    2.6118 C   0  0  0  0  0  0  0  0  0  0  0  0
    0.9900    3.3950    4.6354 C   0  0  1  0  0  0  0  0  0  0  0  0
    0.8262    4.1737    6.3046 S   0  0  0  0  0  0  0  0  0  0  0  0
   -0.4899    4.9387    6.4960 O   0  0  0  0  0  0  0  0  0  0  0  0
    0.9262    2.5431    7.1994 C   0  0  1  0  0  0  0  0  0  0  0  0
    0.8343    2.8099    8.5877 O   0  0  0  0  0  0  0  0  0  0  0  0
   -0.6051    1.5609    1.8159 H   0  0  0  0  0  0  0  0  0  0  0  0
   -2.2553    2.3299    2.1103 H   0  0  0  0  0  0  0  0  0  0  0  0
   -1.6297    4.0572    4.7668 H   0  0  0  0  0  0  0  0  0  0  0  0
   -3.3776    2.0993    3.9295 H   0  0  0  0  0  0  0  0  0  0  0  0
   -2.0272    3.2839    7.0184 H   0  0  0  0  0  0  0  0  0  0  0  0
   -2.5881    1.7883    6.5023 H   0  0  0  0  0  0  0  0  0  0  0  0
   -0.5646   -0.5832    9.2291 H   0  0  0  0  0  0  0  0  0  0  0  0
    0.8701    0.3288    8.8986 H   0  0  0  0  0  0  0  0  0  0  0  0
    0.2795   -0.8659    7.7254 H   0  0  0  0  0  0  0  0  0  0  0  0
    0.4654    0.1353    5.8363 H   0  0  0  0  0  0  0  0  0  0  0  0
   -1.8613    0.5964    4.6952 H   0  0  0  0  0  0  0  0  0  0  0  0
    1.3546    1.0279    2.6746 H   0  0  0  0  0  0  0  0  0  0  0  0
    5.6287   -0.3135    6.9944 H   0  0  0  0  0  0  0  0  0  0  0  0
    5.3920   -1.9816    7.4116 H   0  0  0  0  0  0  0  0  0  0  0  0
    6.4991   -1.0007    8.4201 H   0  0  0  0  0  0  0  0  0  0  0  0
    3.3650   -3.7433    6.7019 H   0  0  0  0  0  0  0  0  0  0  0  0
    5.2188   -1.2604    5.4984 H   0  0  0  0  0  0  0  0  0  0  0  0
    4.6666   -4.0342    5.0627 H   0  0  0  0  0  0  0  0  0  0  0  0
    4.4063   -3.5348    2.9300 H   0  0  0  0  0  0  0  0  0  0  0  0
    3.6269   -2.4575    1.8210 H   0  0  0  0  0  0  0  0  0  0  0  0
    5.6271   -1.1977    2.0484 H   0  0  0  0  0  0  0  0  0  0  0  0
    1.5905   -1.6920    4.4632 H   0  0  0  0  0  0  0  0  0  0  0  0
    2.9587   -4.1247    4.4721 H   0  0  0  0  0  0  0  0  0  0  0  0
    2.7462   -0.2848    1.6137 H   0  0  0  0  0  0  0  0  0  0  0  0
    4.4890   -0.0455    1.5405 H   0  0  0  0  0  0  0  0  0  0  0  0
    3.4795    1.2934    1.9338 H   0  0  0  0  0  0  0  0  0  0  0  0
    4.8551    1.4391    3.6435 H   0  0  0  0  0  0  0  0  0  0  0  0
    2.8030    1.6388    7.8864 H   0  0  0  0  0  0  0  0  0  0  0  0
    6.6071    2.9089    7.5159 H   0  0  0  0  0  0  0  0  0  0  0  0
    6.1575    3.7744    6.0446 H   0  0  0  0  0  0  0  0  0  0  0  0
    5.0189    4.1413    8.8238 H   0  0  0  0  0  0  0  0  0  0  0  0
    5.1779    5.3486    7.5160 H   0  0  0  0  0  0  0  0  0  0  0  0
    4.5337    3.4206    4.4814 H   0  0  0  0  0  0  0  0  0  0  0  0
    2.1654    3.1478    2.0645 H   0  0  0  0  0  0  0  0  0  0  0  0
    3.4726    4.3109    2.3344 H   0  0  0  0  0  0  0  0  0  0  0  0
    1.8159    4.8748    2.3071 H   0  0  0  0  0  0  0  0  0  0  0  0
    1.5618    2.7493    5.1196 H   0  0  0  0  0  0  0  0  0  0  0  0
    1.5771    2.4325    9.0317 H   0  0  0  0  0  0  0  0  0  0  0  0
  1  2  2  0
  1 47  1  0
  1 48  1  0
 11  2  1  6
  2  3  1  0
  3  4  1  0
  3  5  1  0
  3 49  1  1
  4 50  1  0
  5  6  1  0
  5 51  1  0
  5 52  1  0
  6 45  1  0
  6  7  1  1
  6  9  1  0
  7  8  1  0
  8 53  1  0
  8 54  1  0
  8 55  1  0
  9 10  1  0
  9 11  1  0
  9 56  1  1
 10 57  1  0
 11 42  1  0
 11 12  1  0
 12 13  2  3
 12 58  1  0
 13 29  1  0
 13 14  1  0
 14 15  2  0
 14 32  1  0
 15 16  1  0
 15 20  1  0
 16 17  1  0
 17 18  1  0
 17 19  2  0
 18 59  1  0
 18 60  1  0
 18 61  1  0
 20 27  1  0
 20 21  1  1
 20 22  1  0
 21 62  1  0
 22 23  1  0
 22 24  1  0
 22 63  1  1
 23 64  1  0
 24 25  1  6
 24 27  1  0
 24 29  1  0
 25 26  1  0
 25 65  1  0
 25 66  1  0
 26 67  1  0
 27 28  1  0
 27 68  1  1
 28 69  1  0
 29 30  1  0
 29 31  1  1
 30 70  1  0
 30 71  1  0
 30 72  1  0
 31 73  1  0
 32 45  1  0
 32 33  1  0
 32 74  1  1
 33 37  1  0
 33 34  1  0
 33 38  1  0
 34 35  1  0
 35 36  1  0
 35 75  1  0
 35 76  1  0
 36 37  1  0
 36 77  1  0
 36 78  1  0
 38 40  1  0
 38 39  1  0
 38 79  1  6
 39 40  1  0
 40 41  1  6
 40 42  1  0
 41 80  1  0
 41 81  1  0
 41 82  1  0
 42 43  1  0
 42 83  1  6
 43 44  2  0
 43 45  1  1
 45 46  1  1
 46 84  1  0
M  END
>  <i_m_ct_stereo_status>  (99) 
1

>  <s_m_source_file>  (99) 
/var/tmp/pbs.5075288.sched01/tmpjyqx9nt_/132xb3bh5wq.sdf

>  <i_m_source_file_index>  (99) 
56

>  <i_lp_mmshare_version>  (99) 
48012

>  <i_f3d_flags>  (99) 
0

>  <s_epik_input>  (99) 
W0NIMl09QzFbQ0BASF0oW09IXSlbQ0gyXVtDQEBdKE9bQ0gzXSkoW0NASF0yW09IXSlbQ0BAXShbUytdM1tPLV0pKFtPSF0pW0NASF0oQzQoT1tDSDJdW0NIMl1PNClbQ0BIXShPNSlbQ0BAXTUoW0NIM10pW0NAQEhdM1tDQF0xMjYpQz03L0MoPVtDSF1cNilbQ0BAXShbQ0gzXSkoW09IXSlbQ0BAXTgoW0NIMl1bT0hdKVtDQEhdKFtPSF0pW0NAXShbT0hdKShbQ0BASF04W09IXSlDN09DKD1PKVtDSDNd

>  <s_epik_cmdline>  (99) 
J2VwaWtfcHl0aG9uJywgJy1waHQnLCAnMi4wJywgJy1waCcsICc3LjAnLCAnLXRuJywgJzgnLCAnLW1hJywgJzIwMCcsICctaW1hZScsICc8aW5maWxlLm1hZT4nLCAnLW9tYWUnLCAnPG91dGZpbGUubWFlPic=

>  <r_lp_tautomer_probability>  (99) 
1

>  <r_epik_Ionization_Penalty>  (99) 
0.000290831

>  <r_epik_Ionization_Penalty_Charging>  (99) 
0

>  <r_epik_Ionization_Penalty_Neutral>  (99) 
0.000290831

>  <r_epik_State_Penalty>  (99) 
-0

>  <r_epik_Charging_Adjusted_Penalty>  (99) 
0

>  <i_epik_Tot_Q>  (99) 
0

>  <i_epik_Tot_abs_Q>  (99) 
2

>  <s_lp_Force_Field>  (99) 
OPLS3e

>  <r_lp_Energy>  (99) 
200.942

>  <b_lp_Chiralities_Consistent>  (99) 
1

>  <s_lp_Variant>  (99) 
71:0-1

>  <s_i_glide_gridfile>  (99) 
pfpi4k_grid

>  <i_i_glide_lignum>  (99) 
56

>  <i_i_glide_rotatable_bonds>  (99) 
12

>  <r_i_docking_score>  (99) 
-2.52826

>  <r_i_glide_ligand_efficiency>  (99) 
-0.0549622

>  <r_i_glide_ligand_efficiency_sa>  (99) 
-0.196932

>  <r_i_glide_ligand_efficiency_ln>  (99) 
-0.523597

>  <r_i_glide_gscore>  (99) 
-2.52826

>  <r_i_glide_lipo>  (99) 
-0.115749

>  <r_i_glide_hbond>  (99) 
-0.150342

>  <r_i_glide_metal>  (99) 
-0

>  <r_i_glide_rewards>  (99) 
0

>  <r_i_glide_evdw>  (99) 
-22.9357

>  <r_i_glide_ecoul>  (99) 
-8.06561

>  <r_i_glide_erotb>  (99) 
0.0947997

>  <r_i_glide_esite>  (99) 
-0.000344816

>  <r_i_glide_emodel>  (99) 
-32.2875

>  <r_i_glide_energy>  (99) 
-31.0013

>  <r_i_glide_einternal>  (99) 
6.12903

>  <r_i_glide_intrahb_reward>  (99) 
-0

>  <i_i_glide_confnum>  (99) 
4

>  <i_i_glide_posenum>  (99) 
3

>  <r_i_glide_eff_state_penalty>  (99) 
0

>  <ligand_id>  (99) 
71

>  <original_smiles>  (99) 
C=C1C(O)CC2(OC)C(O)C13C=C1C(=C(OC(C)=O)C4(O)C(O)C(CO)(C4O)C1(C)O)C1C4(OCCO4)C4OC4(C)C3[S+]([O-])C12O

>  <smiles>  (99) 
[H]OC([H])([H])C12C([H])(O[H])C(O[H])(C(OC(=O)C([H])([H])[H])=C3C(=C([H])C45C(=C([H])[H])C([H])(O[H])C([H])([H])C(OC([H])([H])[H])(C4([H])O[H])C4(O[H])S(=O)C5([H])C5(C([H])([H])[H])OC5([H])C5(OC([H])([H])C([H])([H])O5)C34[H])C1(O[H])C([H])([H])[H])C2([H])O[H]

$$$$
71:0:2
     RDKit          3D

 84 91  0  0  1  0  0  0  0  0999 V2000
    1.8345    3.1816    2.9491 C   0  0  0  0  0  0  0  0  0  0  0  0
    1.3290    2.3240    3.8506 C   0  0  0  0  0  0  0  0  0  0  0  0
    0.0353    2.5666    4.6742 C   0  0  1  0  0  0  0  0  0  0  0  0
   -0.7812    3.5641    4.0833 O   0  0  0  0  0  0  0  0  0  0  0  0
   -0.8556    1.2771    4.9894 C   0  0  0  0  0  0  0  0  0  0  0  0
   -0.2039   -0.1813    4.9386 C   0  0  1  0  0  0  0  0  0  0  0  0
   -1.1958   -1.1604    4.5651 O   0  0  0  0  0  0  0  0  0  0  0  0
   -2.4566   -1.0950    5.2786 C   0  0  0  0  0  0  0  0  0  0  0  0
    0.6803    0.0087    3.7366 C   0  0  1  0  0  0  0  0  0  0  0  0
    0.0121    0.4774    2.5617 O   0  0  0  0  0  0  0  0  0  0  0  0
    1.9029    0.9503    4.1408 C   0  0  1  0  0  0  0  0  0  0  0  0
    3.0523    0.2984    3.3562 C   0  0  0  0  0  0  0  0  0  0  0  0
    3.3950   -1.0317    3.4874 C   0  0  0  0  0  0  0  0  0  0  0  0
    2.5923   -2.0570    4.2940 C   0  0  0  0  0  0  0  0  0  0  0  0
    2.3519   -3.2624    3.7108 C   0  0  0  0  0  0  0  0  0  0  0  0
    1.5456   -4.1828    4.3638 O   0  0  0  0  0  0  0  0  0  0  0  0
    2.0764   -5.3489    4.8195 C   0  0  0  0  0  0  0  0  0  0  0  0
    1.0491   -6.2038    5.5541 C   0  0  0  0  0  0  0  0  0  0  0  0
    3.2397   -5.7328    4.6958 O   0  0  0  0  0  0  0  0  0  0  0  0
    2.6973   -3.7400    2.2791 C   0  0  2  0  0  0  0  0  0  0  0  0
    1.8551   -4.8012    1.8650 O   0  0  0  0  0  0  0  0  0  0  0  0
    4.1802   -4.0639    2.1840 C   0  0  1  0  0  0  0  0  0  0  0  0
    4.5203   -5.1466    1.3327 O   0  0  0  0  0  0  0  0  0  0  0  0
    4.4607   -2.6101    1.6850 C   0  0  1  0  0  0  0  0  0  0  0  0
    5.5323   -2.5524    0.5644 C   0  0  0  0  0  0  0  0  0  0  0  0
    6.8179   -2.9445    1.0095 O   0  0  0  0  0  0  0  0  0  0  0  0
    2.9807   -2.6515    1.2159 C   0  0  1  0  0  0  0  0  0  0  0  0
    2.7440   -2.9991   -0.1308 O   0  0  0  0  0  0  0  0  0  0  0  0
    4.6972   -1.5317    2.8119 C   0  0  1  0  0  0  0  0  0  0  0  0
    5.6459   -0.3707    2.3815 C   0  0  0  0  0  0  0  0  0  0  0  0
    5.4073   -2.1588    3.8387 O   0  0  0  0  0  0  0  0  0  0  0  0
    2.0321   -1.8494    5.7733 C   0  0  1  0  0  0  0  0  0  0  0  0
    3.2882   -1.6947    6.7571 C   0  0  0  0  0  0  0  0  0  0  0  0
    4.0489   -2.8457    6.5901 O   0  0  0  0  0  0  0  0  0  0  0  0
    4.7262   -3.0715    7.8051 C   0  0  0  0  0  0  0  0  0  0  0  0
    3.6928   -2.5749    8.8153 C   0  0  0  0  0  0  0  0  0  0  0  0
    2.8417   -1.7247    8.0743 O   0  0  0  0  0  0  0  0  0  0  0  0
    4.2730   -0.4669    6.5653 C   0  0  2  0  0  0  0  0  0  0  0  0
    4.0821    0.6268    7.4690 O   0  0  0  0  0  0  0  0  0  0  0  0
    3.8795    0.9553    6.0916 C   0  0  1  0  0  0  0  0  0  0  0  0
    4.8784    1.9645    5.6006 C   0  0  0  0  0  0  0  0  0  0  0  0
    2.4363    1.1905    5.6411 C   0  0  1  0  0  0  0  0  0  0  0  0
    1.3771    0.6281    7.0408 S   0  0  0  0  0  0  0  0  0  0  0  0
    0.2961    1.6155    7.4672 O   0  0  0  0  0  0  0  0  0  0  0  0
    0.7261   -0.8379    6.1104 C   0  0  1  0  0  0  0  0  0  0  0  0
   -0.0970   -1.5767    6.9984 O   0  0  0  0  0  0  0  0  0  0  0  0
    2.7229    2.9595    2.3790 H   0  0  0  0  0  0  0  0  0  0  0  0
    1.3560    4.1288    2.7629 H   0  0  0  0  0  0  0  0  0  0  0  0
    0.3651    2.9970    5.6166 H   0  0  0  0  0  0  0  0  0  0  0  0
   -0.6826    3.5050    3.1414 H   0  0  0  0  0  0  0  0  0  0  0  0
   -1.3947    1.4417    5.9230 H   0  0  0  0  0  0  0  0  0  0  0  0
   -1.6643    1.2926    4.2457 H   0  0  0  0  0  0  0  0  0  0  0  0
   -3.2335   -1.7248    4.9168 H   0  0  0  0  0  0  0  0  0  0  0  0
   -2.9309   -0.1245    5.3173 H   0  0  0  0  0  0  0  0  0  0  0  0
   -2.3545   -1.4322    6.2974 H   0  0  0  0  0  0  0  0  0  0  0  0
    0.8512   -0.9699    3.3270 H   0  0  0  0  0  0  0  0  0  0  0  0
    0.5996    0.4222    1.8242 H   0  0  0  0  0  0  0  0  0  0  0  0
    3.6442    0.9959    2.7903 H   0  0  0  0  0  0  0  0  0  0  0  0
    0.1594   -6.3631    4.9466 H   0  0  0  0  0  0  0  0  0  0  0  0
    0.7568   -5.7319    6.4915 H   0  0  0  0  0  0  0  0  0  0  0  0
    1.4732   -7.1787    5.7904 H   0  0  0  0  0  0  0  0  0  0  0  0
    2.4287   -5.3948    1.3943 H   0  0  0  0  0  0  0  0  0  0  0  0
    4.5991   -4.2774    3.1644 H   0  0  0  0  0  0  0  0  0  0  0  0
    4.1794   -4.9372    0.4751 H   0  0  0  0  0  0  0  0  0  0  0  0
    5.2869   -3.2441   -0.2358 H   0  0  0  0  0  0  0  0  0  0  0  0
    5.5756   -1.5784    0.0766 H   0  0  0  0  0  0  0  0  0  0  0  0
    6.7725   -3.8434    1.3040 H   0  0  0  0  0  0  0  0  0  0  0  0
    2.4422   -1.7210    1.3875 H   0  0  0  0  0  0  0  0  0  0  0  0
    2.1851   -2.3097   -0.4800 H   0  0  0  0  0  0  0  0  0  0  0  0
    5.2470    0.1724    1.5272 H   0  0  0  0  0  0  0  0  0  0  0  0
    6.6467   -0.6992    2.0960 H   0  0  0  0  0  0  0  0  0  0  0  0
    5.8230    0.3314    3.1946 H   0  0  0  0  0  0  0  0  0  0  0  0
    6.2413   -2.4110    3.4696 H   0  0  0  0  0  0  0  0  0  0  0  0
    1.6554   -2.8207    6.0933 H   0  0  0  0  0  0  0  0  0  0  0  0
    4.9938   -4.1185    7.9291 H   0  0  0  0  0  0  0  0  0  0  0  0
    5.6451   -2.4777    7.8526 H   0  0  0  0  0  0  0  0  0  0  0  0
    3.0911   -3.4022    9.1955 H   0  0  0  0  0  0  0  0  0  0  0  0
    4.1547   -2.0406    9.6478 H   0  0  0  0  0  0  0  0  0  0  0  0
    5.3124   -0.7222    6.4103 H   0  0  0  0  0  0  0  0  0  0  0  0
    4.8652    1.9702    4.5144 H   0  0  0  0  0  0  0  0  0  0  0  0
    5.8862    1.6907    5.9331 H   0  0  0  0  0  0  0  0  0  0  0  0
    4.6502    2.9631    5.9768 H   0  0  0  0  0  0  0  0  0  0  0  0
    2.5208    0.2207    5.4489 H   0  0  0  0  0  0  0  0  0  0  0  0
    0.2760   -2.4366    7.1090 H   0  0  0  0  0  0  0  0  0  0  0  0
  1  2  2  0
  1 47  1  0
  1 48  1  0
 11  2  1  6
  2  3  1  0
  3  4  1  0
  3  5  1  0
  3 49  1  1
  4 50  1  0
  5  6  1  0
  5 51  1  0
  5 52  1  0
  6 45  1  0
  6  7  1  6
  6  9  1  0
  7  8  1  0
  8 53  1  0
  8 54  1  0
  8 55  1  0
  9 10  1  0
  9 11  1  0
  9 56  1  6
 10 57  1  0
 11 42  1  0
 11 12  1  0
 12 13  2  3
 12 58  1  0
 13 29  1  0
 13 14  1  0
 14 15  2  0
 14 32  1  0
 15 16  1  0
 15 20  1  0
 16 17  1  0
 17 18  1  0
 17 19  2  0
 18 59  1  0
 18 60  1  0
 18 61  1  0
 20 27  1  0
 20 21  1  6
 20 22  1  0
 21 62  1  0
 22 23  1  0
 22 24  1  0
 22 63  1  1
 23 64  1  0
 24 25  1  6
 24 27  1  0
 24 29  1  0
 25 26  1  0
 25 65  1  0
 25 66  1  0
 26 67  1  0
 27 28  1  0
 27 68  1  1
 28 69  1  0
 29 30  1  0
 29 31  1  1
 30 70  1  0
 30 71  1  0
 30 72  1  0
 31 73  1  0
 32 45  1  0
 32 33  1  0
 32 74  1  1
 33 37  1  0
 33 34  1  0
 33 38  1  0
 34 35  1  0
 35 36  1  0
 35 75  1  0
 35 76  1  0
 36 37  1  0
 36 77  1  0
 36 78  1  0
 38 40  1  0
 38 39  1  0
 38 79  1  6
 39 40  1  0
 40 41  1  6
 40 42  1  0
 41 80  1  0
 41 81  1  0
 41 82  1  0
 42 43  1  0
 42 83  1  1
 43 44  2  0
 43 45  1  6
 45 46  1  1
 46 84  1  0
M  END
>  <i_m_ct_stereo_status>  (100) 
1

>  <s_m_source_file>  (100) 
/var/tmp/pbs.5075288.sched01/tmpjyqx9nt_/132xb3bh5wq.sdf

>  <i_m_source_file_index>  (100) 
56

>  <i_lp_mmshare_version>  (100) 
48012

>  <i_f3d_flags>  (100) 
0

>  <s_epik_input>  (100) 
W0NIMl09QzFbQ0BASF0oW09IXSlbQ0gyXVtDQEBdKE9bQ0gzXSkoW0NASF0yW09IXSlbQ0BAXShbUytdM1tPLV0pKFtPSF0pW0NASF0oQzQoT1tDSDJdW0NIMl1PNClbQ0BIXShPNSlbQ0BAXTUoW0NIM10pW0NAQEhdM1tDQF0xMjYpQz03L0MoPVtDSF1cNilbQ0BAXShbQ0gzXSkoW09IXSlbQ0BAXTgoW0NIMl1bT0hdKVtDQEhdKFtPSF0pW0NAXShbT0hdKShbQ0BASF04W09IXSlDN09DKD1PKVtDSDNd

>  <s_epik_cmdline>  (100) 
J2VwaWtfcHl0aG9uJywgJy1waHQnLCAnMi4wJywgJy1waCcsICc3LjAnLCAnLXRuJywgJzgnLCAnLW1hJywgJzIwMCcsICctaW1hZScsICc8aW5maWxlLm1hZT4nLCAnLW9tYWUnLCAnPG91dGZpbGUubWFlPic=

>  <r_lp_tautomer_probability>  (100) 
1

>  <r_epik_Ionization_Penalty>  (100) 
0.000290831

>  <r_epik_Ionization_Penalty_Charging>  (100) 
0

>  <r_epik_Ionization_Penalty_Neutral>  (100) 
0.000290831

>  <r_epik_State_Penalty>  (100) 
-0

>  <r_epik_Charging_Adjusted_Penalty>  (100) 
0

>  <i_epik_Tot_Q>  (100) 
0

>  <i_epik_Tot_abs_Q>  (100) 
2

>  <s_lp_Force_Field>  (100) 
OPLS3e

>  <r_lp_Energy>  (100) 
200.942

>  <b_lp_Chiralities_Consistent>  (100) 
1

>  <s_lp_Variant>  (100) 
71:0-1

>  <s_i_glide_gridfile>  (100) 
pfpi4k_grid

>  <i_i_glide_lignum>  (100) 
56

>  <i_i_glide_rotatable_bonds>  (100) 
12

>  <r_i_docking_score>  (100) 
-2.00025

>  <r_i_glide_ligand_efficiency>  (100) 
-0.0434837

>  <r_i_glide_ligand_efficiency_sa>  (100) 
-0.155804

>  <r_i_glide_ligand_efficiency_ln>  (100) 
-0.414247

>  <r_i_glide_gscore>  (100) 
-2.00025

>  <r_i_glide_lipo>  (100) 
-0.176453

>  <r_i_glide_hbond>  (100) 
0

>  <r_i_glide_metal>  (100) 
-0

>  <r_i_glide_rewards>  (100) 
0

>  <r_i_glide_evdw>  (100) 
-19.9907

>  <r_i_glide_ecoul>  (100) 
-6.12617

>  <r_i_glide_erotb>  (100) 
0.0947997

>  <r_i_glide_esite>  (100) 
-0.000133545

>  <r_i_glide_emodel>  (100) 
-26.7957

>  <r_i_glide_energy>  (100) 
-26.1169

>  <r_i_glide_einternal>  (100) 
5.9825

>  <r_i_glide_intrahb_reward>  (100) 
-0

>  <i_i_glide_confnum>  (100) 
4

>  <i_i_glide_posenum>  (100) 
27

>  <r_i_glide_eff_state_penalty>  (100) 
0

>  <ligand_id>  (100) 
71

>  <original_smiles>  (100) 
C=C1C(O)CC2(OC)C(O)C13C=C1C(=C(OC(C)=O)C4(O)C(O)C(CO)(C4O)C1(C)O)C1C4(OCCO4)C4OC4(C)C3[S+]([O-])C12O

>  <smiles>  (100) 
[H]OC([H])([H])C12C([H])(O[H])C(O[H])(C(OC(=O)C([H])([H])[H])=C3C(=C([H])C45C(=C([H])[H])C([H])(O[H])C([H])([H])C(OC([H])([H])[H])(C4([H])O[H])C4(O[H])S(=O)C5([H])C5(C([H])([H])[H])OC5([H])C5(OC([H])([H])C([H])([H])O5)C34[H])C1(O[H])C([H])([H])[H])C2([H])O[H]

$$$$
71:1:0
     RDKit          3D

 84 91  0  0  1  0  0  0  0  0999 V2000
    2.6794   -4.2802    2.1260 C   0  0  0  0  0  0  0  0  0  0  0  0
    3.1272   -3.9960    3.3572 C   0  0  0  0  0  0  0  0  0  0  0  0
    3.8381   -5.0464    4.2663 C   0  0  1  0  0  0  0  0  0  0  0  0
    5.1678   -5.2482    3.8391 O   0  0  0  0  0  0  0  0  0  0  0  0
    3.7190   -4.8514    5.8605 C   0  0  0  0  0  0  0  0  0  0  0  0
    3.0363   -3.5148    6.4323 C   0  0  2  0  0  0  0  0  0  0  0  0
    2.2971   -3.7204    7.6610 O   0  0  0  0  0  0  0  0  0  0  0  0
    1.5330   -4.9048    7.8725 C   0  0  0  0  0  0  0  0  0  0  0  0
    2.1045   -3.2455    5.3003 C   0  0  1  0  0  0  0  0  0  0  0  0
    0.7832   -2.8456    5.6295 O   0  0  0  0  0  0  0  0  0  0  0  0
    2.9346   -2.6639    4.0737 C   0  0  2  0  0  0  0  0  0  0  0  0
    2.0869   -1.5310    3.5315 C   0  0  0  0  0  0  0  0  0  0  0  0
    1.6561   -0.4316    4.2532 C   0  0  0  0  0  0  0  0  0  0  0  0
    1.9137   -0.3480    5.7374 C   0  0  0  0  0  0  0  0  0  0  0  0
    0.9055    0.1149    6.5516 C   0  0  0  0  0  0  0  0  0  0  0  0
    1.0893    0.1646    7.9311 O   0  0  0  0  0  0  0  0  0  0  0  0
    1.3628    1.3701    8.5711 C   0  0  0  0  0  0  0  0  0  0  0  0
    1.2048    2.6340    7.6980 C   0  0  0  0  0  0  0  0  0  0  0  0
    1.6309    1.4244    9.7840 O   0  0  0  0  0  0  0  0  0  0  0  0
   -0.5360    0.5138    6.1502 C   0  0  2  0  0  0  0  0  0  0  0  0
   -1.3954    0.5359    7.2804 O   0  0  0  0  0  0  0  0  0  0  0  0
   -1.1471   -0.1153    4.8786 C   0  0  1  0  0  0  0  0  0  0  0  0
   -2.5455   -0.2861    4.8887 O   0  0  0  0  0  0  0  0  0  0  0  0
   -0.5265    1.0792    4.0605 C   0  0  1  0  0  0  0  0  0  0  0  0
   -1.4630    1.7725    2.9833 C   0  0  0  0  0  0  0  0  0  0  0  0
   -1.2410    3.1701    2.7227 O   0  0  0  0  0  0  0  0  0  0  0  0
   -0.4882    1.8369    5.3686 C   0  0  1  0  0  0  0  0  0  0  0  0
   -1.4636    2.8259    5.7015 O   0  0  0  0  0  0  0  0  0  0  0  0
    0.9005    0.7050    3.4718 C   0  0  1  0  0  0  0  0  0  0  0  0
    1.8241    1.9400    3.3140 C   0  0  0  0  0  0  0  0  0  0  0  0
    0.6967    0.3133    2.1245 O   0  0  0  0  0  0  0  0  0  0  0  0
    3.2912   -0.6757    6.4368 C   0  0  2  0  0  0  0  0  0  0  0  0
    4.3219    0.4424    6.0067 C   0  0  0  0  0  0  0  0  0  0  0  0
    5.5172    0.3498    6.7352 O   0  0  0  0  0  0  0  0  0  0  0  0
    5.5051    1.4022    7.6587 C   0  0  0  0  0  0  0  0  0  0  0  0
    4.6899    2.4585    6.9123 C   0  0  0  0  0  0  0  0  0  0  0  0
    3.7219    1.6617    6.2951 O   0  0  0  0  0  0  0  0  0  0  0  0
    4.6613    0.5234    4.5064 C   0  0  1  0  0  0  0  0  0  0  0  0
    5.9172   -0.0438    4.1061 O   0  0  0  0  0  0  0  0  0  0  0  0
    4.7451   -0.6655    3.5621 C   0  0  2  0  0  0  0  0  0  0  0  0
    4.7107   -0.4810    2.0512 C   0  0  0  0  0  0  0  0  0  0  0  0
    4.4676   -2.1143    4.0343 C   0  0  1  0  0  0  0  0  0  0  0  0
    5.3902   -2.2828    5.6150 S   0  0  0  0  0  0  0  0  0  0  0  0
    6.1649   -3.5889    5.7326 O   0  0  0  0  0  0  0  0  0  0  0  0
    3.9052   -2.1858    6.6830 C   0  0  2  0  0  0  0  0  0  0  0  0
    4.3828   -2.2471    8.0223 O   0  0  0  0  0  0  0  0  0  0  0  0
    2.8271   -5.2600    1.7055 H   0  0  0  0  0  0  0  0  0  0  0  0
    2.1708   -3.5518    1.5189 H   0  0  0  0  0  0  0  0  0  0  0  0
    3.3592   -6.0001    4.0368 H   0  0  0  0  0  0  0  0  0  0  0  0
    5.6988   -4.5225    4.1437 H   0  0  0  0  0  0  0  0  0  0  0  0
    3.0811   -5.6882    6.1222 H   0  0  0  0  0  0  0  0  0  0  0  0
    4.6266   -5.1256    6.3938 H   0  0  0  0  0  0  0  0  0  0  0  0
    0.9321   -4.7740    8.7666 H   0  0  0  0  0  0  0  0  0  0  0  0
    2.1561   -5.7788    8.0512 H   0  0  0  0  0  0  0  0  0  0  0  0
    0.8514   -5.1169    7.0532 H   0  0  0  0  0  0  0  0  0  0  0  0
    1.6664   -4.2084    5.0349 H   0  0  0  0  0  0  0  0  0  0  0  0
    0.7937   -1.9464    5.9129 H   0  0  0  0  0  0  0  0  0  0  0  0
    1.9257   -1.6007    2.4695 H   0  0  0  0  0  0  0  0  0  0  0  0
    1.8794    2.5867    6.8257 H   0  0  0  0  0  0  0  0  0  0  0  0
    1.3132    3.5877    8.2275 H   0  0  0  0  0  0  0  0  0  0  0  0
    0.1832    2.5674    7.3057 H   0  0  0  0  0  0  0  0  0  0  0  0
   -1.2192    1.3570    7.7193 H   0  0  0  0  0  0  0  0  0  0  0  0
   -0.7302   -1.0827    4.6062 H   0  0  0  0  0  0  0  0  0  0  0  0
   -2.8942    0.0896    4.0753 H   0  0  0  0  0  0  0  0  0  0  0  0
   -1.4859    1.2986    2.0011 H   0  0  0  0  0  0  0  0  0  0  0  0
   -2.4901    1.7741    3.3476 H   0  0  0  0  0  0  0  0  0  0  0  0
   -0.5676    3.3415    2.1079 H   0  0  0  0  0  0  0  0  0  0  0  0
    0.4731    2.3365    5.5024 H   0  0  0  0  0  0  0  0  0  0  0  0
   -2.3097    2.4725    5.4795 H   0  0  0  0  0  0  0  0  0  0  0  0
    2.2552    2.2917    4.2507 H   0  0  0  0  0  0  0  0  0  0  0  0
    1.3062    2.7941    2.8763 H   0  0  0  0  0  0  0  0  0  0  0  0
    2.6706    1.7345    2.6544 H   0  0  0  0  0  0  0  0  0  0  0  0
    0.4812    1.0798    1.6104 H   0  0  0  0  0  0  0  0  0  0  0  0
    3.1718   -0.3882    7.4693 H   0  0  0  0  0  0  0  0  0  0  0  0
    4.9892    1.0907    8.5747 H   0  0  0  0  0  0  0  0  0  0  0  0
    6.5212    1.7360    7.8874 H   0  0  0  0  0  0  0  0  0  0  0  0
    4.2387    3.2010    7.5763 H   0  0  0  0  0  0  0  0  0  0  0  0
    5.2980    2.9706    6.1595 H   0  0  0  0  0  0  0  0  0  0  0  0
    4.5034    1.5009    4.0656 H   0  0  0  0  0  0  0  0  0  0  0  0
    3.7021   -0.5823    1.6662 H   0  0  0  0  0  0  0  0  0  0  0  0
    5.3711   -1.1959    1.5639 H   0  0  0  0  0  0  0  0  0  0  0  0
    5.0498    0.5207    1.7950 H   0  0  0  0  0  0  0  0  0  0  0  0
    5.0860   -2.7094    3.3638 H   0  0  0  0  0  0  0  0  0  0  0  0
    5.3283   -2.3055    7.9805 H   0  0  0  0  0  0  0  0  0  0  0  0
  1  2  2  0
  1 47  1  0
  1 48  1  0
 11  2  1  6
  2  3  1  0
  3  4  1  0
  3  5  1  0
  3 49  1  1
  4 50  1  0
  5  6  1  0
  5 51  1  0
  5 52  1  0
  6 45  1  0
  6  7  1  1
  6  9  1  0
  7  8  1  0
  8 53  1  0
  8 54  1  0
  8 55  1  0
  9 10  1  0
  9 11  1  0
  9 56  1  6
 10 57  1  0
 11 42  1  0
 11 12  1  0
 12 13  2  3
 12 58  1  0
 13 29  1  0
 13 14  1  0
 14 15  2  0
 14 32  1  0
 15 16  1  0
 15 20  1  0
 16 17  1  0
 17 18  1  0
 17 19  2  0
 18 59  1  0
 18 60  1  0
 18 61  1  0
 20 27  1  0
 20 21  1  1
 20 22  1  0
 21 62  1  0
 22 23  1  0
 22 24  1  0
 22 63  1  6
 23 64  1  0
 24 25  1  6
 24 27  1  0
 24 29  1  0
 25 26  1  0
 25 65  1  0
 25 66  1  0
 26 67  1  0
 27 28  1  0
 27 68  1  6
 28 69  1  0
 29 30  1  0
 29 31  1  6
 30 70  1  0
 30 71  1  0
 30 72  1  0
 31 73  1  0
 32 45  1  0
 32 33  1  0
 32 74  1  1
 33 37  1  0
 33 34  1  0
 33 38  1  0
 34 35  1  0
 35 36  1  0
 35 75  1  0
 35 76  1  0
 36 37  1  0
 36 77  1  0
 36 78  1  0
 38 40  1  0
 38 39  1  0
 38 79  1  6
 39 40  1  0
 40 41  1  6
 40 42  1  0
 41 80  1  0
 41 81  1  0
 41 82  1  0
 42 43  1  0
 42 83  1  6
 43 44  2  0
 43 45  1  1
 45 46  1  1
 46 84  1  0
M  END
>  <i_m_ct_stereo_status>  (101) 
1

>  <s_m_source_file>  (101) 
/var/tmp/pbs.5075288.sched01/tmpjyqx9nt_/132xb3bh5wq.sdf

>  <i_m_source_file_index>  (101) 
57

>  <i_lp_mmshare_version>  (101) 
48012

>  <i_f3d_flags>  (101) 
3

>  <s_epik_input>  (101) 
W0NIMl09QzFbQ0BASF0oW09IXSlbQ0gyXVtDQEBdKE9bQ0gzXSkoW0NASF0yW09IXSlbQ0BAXShbUytdM1tPLV0pKFtPSF0pW0NASF0oQzQoT1tDSDJdW0NIMl1PNClbQ0BIXShPNSlbQ0BAXTUoW0NIM10pW0NAQEhdM1tDQF0xMjYpQz03L0MoPVtDSF1cNilbQ0BAXShbQ0gzXSkoW09IXSlbQ0BAXTgoW0NIMl1bT0hdKVtDQEhdKFtPSF0pW0NAXShbT0hdKShbQ0BASF04W09IXSlDN09DKD1PKVtDSDNd

>  <s_epik_cmdline>  (101) 
J2VwaWtfcHl0aG9uJywgJy1waHQnLCAnMi4wJywgJy1waCcsICc3LjAnLCAnLXRuJywgJzgnLCAnLW1hJywgJzIwMCcsICctaW1hZScsICc8aW5maWxlLm1hZT4nLCAnLW9tYWUnLCAnPG91dGZpbGUubWFlPic=

>  <r_lp_tautomer_probability>  (101) 
1

>  <r_epik_Ionization_Penalty>  (101) 
0.000290831

>  <r_epik_Ionization_Penalty_Charging>  (101) 
0

>  <r_epik_Ionization_Penalty_Neutral>  (101) 
0.000290831

>  <r_epik_State_Penalty>  (101) 
-0

>  <r_epik_Charging_Adjusted_Penalty>  (101) 
0

>  <i_epik_Tot_Q>  (101) 
0

>  <i_epik_Tot_abs_Q>  (101) 
2

>  <s_lp_Force_Field>  (101) 
OPLS3e

>  <r_lp_Energy>  (101) 
155.695

>  <b_lp_Chiralities_Consistent>  (101) 
0

>  <s_lp_Variant>  (101) 
71:0-2

>  <s_i_glide_gridfile>  (101) 
pfpi4k_grid

>  <i_i_glide_lignum>  (101) 
57

>  <i_i_glide_rotatable_bonds>  (101) 
12

>  <r_i_docking_score>  (101) 
-3.51341

>  <r_i_glide_ligand_efficiency>  (101) 
-0.0763785

>  <r_i_glide_ligand_efficiency_sa>  (101) 
-0.273668

>  <r_i_glide_ligand_efficiency_ln>  (101) 
-0.727619

>  <r_i_glide_gscore>  (101) 
-3.51341

>  <r_i_glide_lipo>  (101) 
-0.278919

>  <r_i_glide_hbond>  (101) 
0

>  <r_i_glide_metal>  (101) 
-0

>  <r_i_glide_rewards>  (101) 
-0.532457

>  <r_i_glide_evdw>  (101) 
-15.4227

>  <r_i_glide_ecoul>  (101) 
-13.9968

>  <r_i_glide_erotb>  (101) 
0.0947997

>  <r_i_glide_esite>  (101) 
0

>  <r_i_glide_emodel>  (101) 
-35.8225

>  <r_i_glide_energy>  (101) 
-29.4195

>  <r_i_glide_einternal>  (101) 
10.1555

>  <r_i_glide_intrahb_reward>  (101) 
-0.5

>  <i_i_glide_confnum>  (101) 
6

>  <i_i_glide_posenum>  (101) 
2

>  <r_i_glide_eff_state_penalty>  (101) 
0

>  <ligand_id>  (101) 
71

>  <original_smiles>  (101) 
C=C1C(O)CC2(OC)C(O)C13C=C1C(=C(OC(C)=O)C4(O)C(O)C(CO)(C4O)C1(C)O)C1C4(OCCO4)C4OC4(C)C3[S+]([O-])C12O

>  <smiles>  (101) 
[H]OC([H])([H])C12C([H])(O[H])C(O[H])(C(OC(=O)C([H])([H])[H])=C3C(=C([H])C45C(=C([H])[H])C([H])(O[H])C([H])([H])C(OC([H])([H])[H])(C4([H])O[H])C4(O[H])S(=O)C5([H])C5(C([H])([H])[H])OC5([H])C5(OC([H])([H])C([H])([H])O5)C34[H])C1(O[H])C([H])([H])[H])C2([H])O[H]

$$$$
71:1:1
     RDKit          3D

 84 91  0  0  1  0  0  0  0  0999 V2000
    2.5447   -4.4282    2.0899 C   0  0  0  0  0  0  0  0  0  0  0  0
    3.0188   -4.1430    3.3114 C   0  0  0  0  0  0  0  0  0  0  0  0
    3.7135   -5.2062    4.2177 C   0  0  1  0  0  0  0  0  0  0  0  0
    5.0266   -5.4527    3.7663 O   0  0  0  0  0  0  0  0  0  0  0  0
    3.6300   -4.9873    5.8100 C   0  0  0  0  0  0  0  0  0  0  0  0
    2.9917   -3.6276    6.3789 C   0  0  2  0  0  0  0  0  0  0  0  0
    2.2638   -3.8026    7.6176 O   0  0  0  0  0  0  0  0  0  0  0  0
    1.4784   -4.9703    7.8600 C   0  0  0  0  0  0  0  0  0  0  0  0
    2.0446   -3.3489    5.2628 C   0  0  1  0  0  0  0  0  0  0  0  0
    0.7359   -2.9179    5.6062 O   0  0  0  0  0  0  0  0  0  0  0  0
    2.8712   -2.7988    4.0180 C   0  0  2  0  0  0  0  0  0  0  0  0
    2.0379   -1.6521    3.4777 C   0  0  0  0  0  0  0  0  0  0  0  0
    1.6382   -0.5357    4.1960 C   0  0  0  0  0  0  0  0  0  0  0  0
    1.9157   -0.4436    5.6726 C   0  0  0  0  0  0  0  0  0  0  0  0
    0.9261    0.0554    6.5067 C   0  0  0  0  0  0  0  0  0  0  0  0
    1.1326    0.1075    7.8718 O   0  0  0  0  0  0  0  0  0  0  0  0
    1.4398    1.3163    8.5053 C   0  0  0  0  0  0  0  0  0  0  0  0
    1.3246    2.5725    7.6093 C   0  0  0  0  0  0  0  0  0  0  0  0
    1.6961    1.3828    9.7130 O   0  0  0  0  0  0  0  0  0  0  0  0
   -0.5147    0.5039    6.1141 C   0  0  2  0  0  0  0  0  0  0  0  0
   -1.3762    0.6626    7.2428 O   0  0  0  0  0  0  0  0  0  0  0  0
   -1.1514   -0.1426    4.8601 C   0  0  1  0  0  0  0  0  0  0  0  0
   -2.5411   -0.3098    4.8876 O   0  0  0  0  0  0  0  0  0  0  0  0
   -0.5111    1.0194    4.0161 C   0  0  1  0  0  0  0  0  0  0  0  0
   -1.4415    1.7368    2.9558 C   0  0  0  0  0  0  0  0  0  0  0  0
   -1.2055    3.1448    2.7627 O   0  0  0  0  0  0  0  0  0  0  0  0
   -0.4375    1.8023    5.3072 C   0  0  1  0  0  0  0  0  0  0  0  0
   -1.3970    2.7941    5.6307 O   0  0  0  0  0  0  0  0  0  0  0  0
    0.8972    0.6113    3.4133 C   0  0  1  0  0  0  0  0  0  0  0  0
    1.8450    1.8249    3.2261 C   0  0  0  0  0  0  0  0  0  0  0  0
    0.6681    0.2101    2.0809 O   0  0  0  0  0  0  0  0  0  0  0  0
    3.3089   -0.7947    6.3499 C   0  0  2  0  0  0  0  0  0  0  0  0
    4.3531    0.2912    5.8952 C   0  0  0  0  0  0  0  0  0  0  0  0
    5.5590    0.1810    6.6029 O   0  0  0  0  0  0  0  0  0  0  0  0
    5.5833    1.2424    7.5187 C   0  0  0  0  0  0  0  0  0  0  0  0
    4.7838    2.3085    6.7733 C   0  0  0  0  0  0  0  0  0  0  0  0
    3.7922    1.5268    6.1747 O   0  0  0  0  0  0  0  0  0  0  0  0
    4.6695    0.3484    4.3808 C   0  0  1  0  0  0  0  0  0  0  0  0
    5.8986   -0.2463    3.9703 O   0  0  0  0  0  0  0  0  0  0  0  0
    4.7153   -0.8502    3.4576 C   0  0  2  0  0  0  0  0  0  0  0  0
    4.6570   -0.6778    1.9423 C   0  0  0  0  0  0  0  0  0  0  0  0
    4.4167   -2.2944    3.9490 C   0  0  1  0  0  0  0  0  0  0  0  0
    5.3675   -2.4621    5.5177 S   0  0  0  0  0  0  0  0  0  0  0  0
    6.1340   -3.7718    5.6845 O   0  0  0  0  0  0  0  0  0  0  0  0
    3.8919   -2.3178    6.6004 C   0  0  2  0  0  0  0  0  0  0  0  0
    4.3850   -2.3773    7.9311 O   0  0  0  0  0  0  0  0  0  0  0  0
    2.6587   -5.4146    1.6732 H   0  0  0  0  0  0  0  0  0  0  0  0
    2.0436   -3.6929    1.4860 H   0  0  0  0  0  0  0  0  0  0  0  0
    3.2004   -6.1448    4.0074 H   0  0  0  0  0  0  0  0  0  0  0  0
    5.3238   -6.2791    4.1301 H   0  0  0  0  0  0  0  0  0  0  0  0
    2.9720   -5.8037    6.0924 H   0  0  0  0  0  0  0  0  0  0  0  0
    4.5378   -5.2720    6.3321 H   0  0  0  0  0  0  0  0  0  0  0  0
    0.8916   -4.8196    8.7614 H   0  0  0  0  0  0  0  0  0  0  0  0
    2.0869   -5.8547    8.0420 H   0  0  0  0  0  0  0  0  0  0  0  0
    0.7799   -5.1827    7.0543 H   0  0  0  0  0  0  0  0  0  0  0  0
    1.5762   -4.3031    5.0112 H   0  0  0  0  0  0  0  0  0  0  0  0
    0.7682   -2.0117    5.8844 H   0  0  0  0  0  0  0  0  0  0  0  0
    1.8564   -1.7275    2.4188 H   0  0  0  0  0  0  0  0  0  0  0  0
    1.9967    2.5015    6.7418 H   0  0  0  0  0  0  0  0  0  0  0  0
    1.4419    3.5339    8.1269 H   0  0  0  0  0  0  0  0  0  0  0  0
    0.3095    2.5319    7.2231 H   0  0  0  0  0  0  0  0  0  0  0  0
   -1.1249    1.4288    7.7093 H   0  0  0  0  0  0  0  0  0  0  0  0
   -0.7510   -1.1199    4.5954 H   0  0  0  0  0  0  0  0  0  0  0  0
   -2.9004    0.1256    4.0889 H   0  0  0  0  0  0  0  0  0  0  0  0
   -1.4527    1.2980    1.9543 H   0  0  0  0  0  0  0  0  0  0  0  0
   -2.4715    1.7324    3.3057 H   0  0  0  0  0  0  0  0  0  0  0  0
   -0.5807    3.3365    2.1165 H   0  0  0  0  0  0  0  0  0  0  0  0
    0.5351    2.2785    5.4346 H   0  0  0  0  0  0  0  0  0  0  0  0
   -1.1240    3.5439    5.1267 H   0  0  0  0  0  0  0  0  0  0  0  0
    2.3018    2.1747    4.1508 H   0  0  0  0  0  0  0  0  0  0  0  0
    1.3365    2.6840    2.7877 H   0  0  0  0  0  0  0  0  0  0  0  0
    2.6760    1.5935    2.5550 H   0  0  0  0  0  0  0  0  0  0  0  0
    0.4470    0.9741    1.5533 H   0  0  0  0  0  0  0  0  0  0  0  0
    3.2088   -0.4969    7.3824 H   0  0  0  0  0  0  0  0  0  0  0  0
    5.0758    0.9498    8.4440 H   0  0  0  0  0  0  0  0  0  0  0  0
    6.6117    1.5527    7.7259 H   0  0  0  0  0  0  0  0  0  0  0  0
    4.3587    3.0672    7.4370 H   0  0  0  0  0  0  0  0  0  0  0  0
    5.3909    2.7995    6.0080 H   0  0  0  0  0  0  0  0  0  0  0  0
    4.5251    1.3266    3.9340 H   0  0  0  0  0  0  0  0  0  0  0  0
    3.6413   -0.7566    1.5745 H   0  0  0  0  0  0  0  0  0  0  0  0
    5.2921   -1.4125    1.4517 H   0  0  0  0  0  0  0  0  0  0  0  0
    5.0212    0.3120    1.6696 H   0  0  0  0  0  0  0  0  0  0  0  0
    5.0095   -2.9112    3.2746 H   0  0  0  0  0  0  0  0  0  0  0  0
    5.3279   -2.4813    7.8793 H   0  0  0  0  0  0  0  0  0  0  0  0
  1  2  2  0
  1 47  1  0
  1 48  1  0
 11  2  1  6
  2  3  1  0
  3  4  1  0
  3  5  1  0
  3 49  1  1
  4 50  1  0
  5  6  1  0
  5 51  1  0
  5 52  1  0
  6 45  1  0
  6  7  1  1
  6  9  1  0
  7  8  1  0
  8 53  1  0
  8 54  1  0
  8 55  1  0
  9 10  1  0
  9 11  1  0
  9 56  1  6
 10 57  1  0
 11 42  1  0
 11 12  1  0
 12 13  2  3
 12 58  1  0
 13 29  1  0
 13 14  1  0
 14 15  2  0
 14 32  1  0
 15 16  1  0
 15 20  1  0
 16 17  1  0
 17 18  1  0
 17 19  2  0
 18 59  1  0
 18 60  1  0
 18 61  1  0
 20 27  1  0
 20 21  1  1
 20 22  1  0
 21 62  1  0
 22 23  1  0
 22 24  1  0
 22 63  1  6
 23 64  1  0
 24 25  1  6
 24 27  1  0
 24 29  1  0
 25 26  1  0
 25 65  1  0
 25 66  1  0
 26 67  1  0
 27 28  1  0
 27 68  1  6
 28 69  1  0
 29 30  1  0
 29 31  1  6
 30 70  1  0
 30 71  1  0
 30 72  1  0
 31 73  1  0
 32 45  1  0
 32 33  1  0
 32 74  1  1
 33 37  1  0
 33 34  1  0
 33 38  1  0
 34 35  1  0
 35 36  1  0
 35 75  1  0
 35 76  1  0
 36 37  1  0
 36 77  1  0
 36 78  1  0
 38 40  1  0
 38 39  1  0
 38 79  1  6
 39 40  1  0
 40 41  1  6
 40 42  1  0
 41 80  1  0
 41 81  1  0
 41 82  1  0
 42 43  1  0
 42 83  1  6
 43 44  2  0
 43 45  1  1
 45 46  1  1
 46 84  1  0
M  END
>  <i_m_ct_stereo_status>  (102) 
1

>  <s_m_source_file>  (102) 
/var/tmp/pbs.5075288.sched01/tmpjyqx9nt_/132xb3bh5wq.sdf

>  <i_m_source_file_index>  (102) 
57

>  <i_lp_mmshare_version>  (102) 
48012

>  <i_f3d_flags>  (102) 
3

>  <s_epik_input>  (102) 
W0NIMl09QzFbQ0BASF0oW09IXSlbQ0gyXVtDQEBdKE9bQ0gzXSkoW0NASF0yW09IXSlbQ0BAXShbUytdM1tPLV0pKFtPSF0pW0NASF0oQzQoT1tDSDJdW0NIMl1PNClbQ0BIXShPNSlbQ0BAXTUoW0NIM10pW0NAQEhdM1tDQF0xMjYpQz03L0MoPVtDSF1cNilbQ0BAXShbQ0gzXSkoW09IXSlbQ0BAXTgoW0NIMl1bT0hdKVtDQEhdKFtPSF0pW0NAXShbT0hdKShbQ0BASF04W09IXSlDN09DKD1PKVtDSDNd

>  <s_epik_cmdline>  (102) 
J2VwaWtfcHl0aG9uJywgJy1waHQnLCAnMi4wJywgJy1waCcsICc3LjAnLCAnLXRuJywgJzgnLCAnLW1hJywgJzIwMCcsICctaW1hZScsICc8aW5maWxlLm1hZT4nLCAnLW9tYWUnLCAnPG91dGZpbGUubWFlPic=

>  <r_lp_tautomer_probability>  (102) 
1

>  <r_epik_Ionization_Penalty>  (102) 
0.000290831

>  <r_epik_Ionization_Penalty_Charging>  (102) 
0

>  <r_epik_Ionization_Penalty_Neutral>  (102) 
0.000290831

>  <r_epik_State_Penalty>  (102) 
-0

>  <r_epik_Charging_Adjusted_Penalty>  (102) 
0

>  <i_epik_Tot_Q>  (102) 
0

>  <i_epik_Tot_abs_Q>  (102) 
2

>  <s_lp_Force_Field>  (102) 
OPLS3e

>  <r_lp_Energy>  (102) 
155.695

>  <b_lp_Chiralities_Consistent>  (102) 
0

>  <s_lp_Variant>  (102) 
71:0-2

>  <s_i_glide_gridfile>  (102) 
pfpi4k_grid

>  <i_i_glide_lignum>  (102) 
57

>  <i_i_glide_rotatable_bonds>  (102) 
12

>  <r_i_docking_score>  (102) 
-2.76664

>  <r_i_glide_ligand_efficiency>  (102) 
-0.0601442

>  <r_i_glide_ligand_efficiency_sa>  (102) 
-0.2155

>  <r_i_glide_ligand_efficiency_ln>  (102) 
-0.572964

>  <r_i_glide_gscore>  (102) 
-2.76664

>  <r_i_glide_lipo>  (102) 
-0.256902

>  <r_i_glide_hbond>  (102) 
0

>  <r_i_glide_metal>  (102) 
-0

>  <r_i_glide_rewards>  (102) 
-0.0351662

>  <r_i_glide_evdw>  (102) 
-17.0358

>  <r_i_glide_ecoul>  (102) 
-13.7893

>  <r_i_glide_erotb>  (102) 
0.0947997

>  <r_i_glide_esite>  (102) 
0

>  <r_i_glide_emodel>  (102) 
-28.6046

>  <r_i_glide_energy>  (102) 
-30.8251

>  <r_i_glide_einternal>  (102) 
12.3641

>  <r_i_glide_intrahb_reward>  (102) 
-0

>  <i_i_glide_confnum>  (102) 
6

>  <i_i_glide_posenum>  (102) 
31

>  <r_i_glide_eff_state_penalty>  (102) 
0

>  <ligand_id>  (102) 
71

>  <original_smiles>  (102) 
C=C1C(O)CC2(OC)C(O)C13C=C1C(=C(OC(C)=O)C4(O)C(O)C(CO)(C4O)C1(C)O)C1C4(OCCO4)C4OC4(C)C3[S+]([O-])C12O

>  <smiles>  (102) 
[H]OC([H])([H])C12C([H])(O[H])C(O[H])(C(OC(=O)C([H])([H])[H])=C3C(=C([H])C45C(=C([H])[H])C([H])(O[H])C([H])([H])C(OC([H])([H])[H])(C4([H])O[H])C4(O[H])S(=O)C5([H])C5(C([H])([H])[H])OC5([H])C5(OC([H])([H])C([H])([H])O5)C34[H])C1(O[H])C([H])([H])[H])C2([H])O[H]

$$$$
71:1:2
     RDKit          3D

 84 91  0  0  1  0  0  0  0  0999 V2000
    2.7634   -1.6730    1.8146 C   0  0  0  0  0  0  0  0  0  0  0  0
    2.3156   -1.8710    3.0713 C   0  0  0  0  0  0  0  0  0  0  0  0
    1.9138   -3.2766    3.6104 C   0  0  1  0  0  0  0  0  0  0  0  0
    3.0656   -4.0338    3.9154 O   0  0  0  0  0  0  0  0  0  0  0  0
    0.8234   -3.3272    4.7927 C   0  0  0  0  0  0  0  0  0  0  0  0
    0.3233   -1.9690    5.4718 C   0  0  2  0  0  0  0  0  0  0  0  0
   -1.0907   -2.0324    5.7726 O   0  0  0  0  0  0  0  0  0  0  0  0
   -1.6075   -3.1414    6.5164 C   0  0  0  0  0  0  0  0  0  0  0  0
    0.5020   -1.0691    4.2909 C   0  0  1  0  0  0  0  0  0  0  0  0
   -0.5423   -0.1426    4.0094 O   0  0  0  0  0  0  0  0  0  0  0  0
    2.0533   -0.7722    4.0970 C   0  0  2  0  0  0  0  0  0  0  0  0
    2.1352    0.7015    3.7704 C   0  0  0  0  0  0  0  0  0  0  0  0
    1.6277    1.7394    4.5536 C   0  0  0  0  0  0  0  0  0  0  0  0
    0.8070    1.4222    5.7912 C   0  0  0  0  0  0  0  0  0  0  0  0
   -0.3102    2.1681    6.0297 C   0  0  0  0  0  0  0  0  0  0  0  0
   -1.1188    1.8785    7.1569 O   0  0  0  0  0  0  0  0  0  0  0  0
   -1.1931    2.7553    8.2350 C   0  0  0  0  0  0  0  0  0  0  0  0
   -0.3057    4.0094    8.1379 C   0  0  0  0  0  0  0  0  0  0  0  0
   -1.9505    2.5574    9.1950 O   0  0  0  0  0  0  0  0  0  0  0  0
   -0.9211    3.3110    5.1919 C   0  0  2  0  0  0  0  0  0  0  0  0
   -2.2638    3.5473    5.5249 O   0  0  0  0  0  0  0  0  0  0  0  0
   -0.6387    3.3282    3.6662 C   0  0  1  0  0  0  0  0  0  0  0  0
   -1.6338    3.9511    2.8739 O   0  0  0  0  0  0  0  0  0  0  0  0
    0.6645    4.1379    3.9540 C   0  0  1  0  0  0  0  0  0  0  0  0
    0.9283    5.3939    3.0300 C   0  0  0  0  0  0  0  0  0  0  0  0
    1.5424    6.4906    3.6919 O   0  0  0  0  0  0  0  0  0  0  0  0
    0.0249    4.5301    5.2504 C   0  0  1  0  0  0  0  0  0  0  0  0
   -0.5874    5.8094    5.4141 O   0  0  0  0  0  0  0  0  0  0  0  0
    1.9448    3.2082    4.1146 C   0  0  1  0  0  0  0  0  0  0  0  0
    3.0156    3.8366    5.0468 C   0  0  0  0  0  0  0  0  0  0  0  0
    2.6079    3.2199    2.8665 O   0  0  0  0  0  0  0  0  0  0  0  0
    1.2284    0.3407    6.8568 C   0  0  2  0  0  0  0  0  0  0  0  0
    2.5255    0.8618    7.6139 C   0  0  0  0  0  0  0  0  0  0  0  0
    2.8161    0.0719    8.7302 O   0  0  0  0  0  0  0  0  0  0  0  0
    2.2011    0.6789    9.8559 C   0  0  0  0  0  0  0  0  0  0  0  0
    1.5694    1.9355    9.3062 C   0  0  0  0  0  0  0  0  0  0  0  0
    2.2392    2.1429    8.0829 O   0  0  0  0  0  0  0  0  0  0  0  0
    3.7938    1.0260    6.7733 C   0  0  1  0  0  0  0  0  0  0  0  0
    4.7792   -0.0250    6.9023 O   0  0  0  0  0  0  0  0  0  0  0  0
    4.1799    0.1178    5.5936 C   0  0  2  0  0  0  0  0  0  0  0  0
    5.2211    0.5663    4.5832 C   0  0  0  0  0  0  0  0  0  0  0  0
    3.2816   -1.0574    5.1407 C   0  0  1  0  0  0  0  0  0  0  0  0
    2.8330   -1.9430    6.6832 S   0  0  0  0  0  0  0  0  0  0  0  0
    2.9402   -3.4705    6.5816 O   0  0  0  0  0  0  0  0  0  0  0  0
    1.1151   -1.2984    6.7002 C   0  0  2  0  0  0  0  0  0  0  0  0
    0.5560   -1.7736    7.9182 O   0  0  0  0  0  0  0  0  0  0  0  0
    2.8906   -2.5034    1.1410 H   0  0  0  0  0  0  0  0  0  0  0  0
    3.0094   -0.6956    1.4373 H   0  0  0  0  0  0  0  0  0  0  0  0
    1.4863   -3.8149    2.7645 H   0  0  0  0  0  0  0  0  0  0  0  0
    3.4549   -3.6991    4.7094 H   0  0  0  0  0  0  0  0  0  0  0  0
   -0.0505   -3.7196    4.2759 H   0  0  0  0  0  0  0  0  0  0  0  0
    1.0146   -4.1120    5.5231 H   0  0  0  0  0  0  0  0  0  0  0  0
   -2.6921   -3.0737    6.5415 H   0  0  0  0  0  0  0  0  0  0  0  0
   -1.2957   -3.1861    7.5531 H   0  0  0  0  0  0  0  0  0  0  0  0
   -1.3512   -4.0983    6.0713 H   0  0  0  0  0  0  0  0  0  0  0  0
    0.1091   -1.6122    3.4304 H   0  0  0  0  0  0  0  0  0  0  0  0
   -0.3588    0.6722    4.4371 H   0  0  0  0  0  0  0  0  0  0  0  0
    2.7258    0.9110    2.8998 H   0  0  0  0  0  0  0  0  0  0  0  0
    0.7402    3.7172    7.9736 H   0  0  0  0  0  0  0  0  0  0  0  0
   -0.3954    4.7235    8.9552 H   0  0  0  0  0  0  0  0  0  0  0  0
   -0.6718    4.5174    7.2635 H   0  0  0  0  0  0  0  0  0  0  0  0
   -2.7898    2.9446    5.0247 H   0  0  0  0  0  0  0  0  0  0  0  0
   -0.4627    2.3528    3.2346 H   0  0  0  0  0  0  0  0  0  0  0  0
   -1.2264    4.1353    2.0244 H   0  0  0  0  0  0  0  0  0  0  0  0
    1.5154    5.1909    2.1420 H   0  0  0  0  0  0  0  0  0  0  0  0
   -0.0194    5.7904    2.6577 H   0  0  0  0  0  0  0  0  0  0  0  0
    1.2899    7.2791    3.2181 H   0  0  0  0  0  0  0  0  0  0  0  0
    0.7471    4.4621    6.0743 H   0  0  0  0  0  0  0  0  0  0  0  0
    0.1151    6.3831    5.6620 H   0  0  0  0  0  0  0  0  0  0  0  0
    2.7759    3.7608    6.1057 H   0  0  0  0  0  0  0  0  0  0  0  0
    3.1712    4.8947    4.8384 H   0  0  0  0  0  0  0  0  0  0  0  0
    3.9907    3.3602    4.9228 H   0  0  0  0  0  0  0  0  0  0  0  0
    1.9671    3.3507    2.1861 H   0  0  0  0  0  0  0  0  0  0  0  0
    0.4624    0.4450    7.6031 H   0  0  0  0  0  0  0  0  0  0  0  0
    1.4156    0.0271   10.2700 H   0  0  0  0  0  0  0  0  0  0  0  0
    2.9345    0.9373   10.6285 H   0  0  0  0  0  0  0  0  0  0  0  0
    0.5541    1.6334    9.1629 H   0  0  0  0  0  0  0  0  0  0  0  0
    1.5726    2.8073    9.9624 H   0  0  0  0  0  0  0  0  0  0  0  0
    4.2481    2.0073    6.8072 H   0  0  0  0  0  0  0  0  0  0  0  0
    4.7579    1.0430    3.7213 H   0  0  0  0  0  0  0  0  0  0  0  0
    5.8185   -0.2785    4.2377 H   0  0  0  0  0  0  0  0  0  0  0  0
    5.9013    1.2939    5.0296 H   0  0  0  0  0  0  0  0  0  0  0  0
    4.0019   -1.7515    4.7093 H   0  0  0  0  0  0  0  0  0  0  0  0
    1.2426   -2.2159    8.3995 H   0  0  0  0  0  0  0  0  0  0  0  0
  1  2  2  0
  1 47  1  0
  1 48  1  0
 11  2  1  6
  2  3  1  0
  3  4  1  0
  3  5  1  0
  3 49  1  6
  4 50  1  0
  5  6  1  0
  5 51  1  0
  5 52  1  0
  6 45  1  0
  6  7  1  1
  6  9  1  0
  7  8  1  0
  8 53  1  0
  8 54  1  0
  8 55  1  0
  9 10  1  0
  9 11  1  0
  9 56  1  6
 10 57  1  0
 11 42  1  0
 11 12  1  0
 12 13  2  3
 12 58  1  0
 13 29  1  0
 13 14  1  0
 14 15  2  0
 14 32  1  0
 15 16  1  0
 15 20  1  0
 16 17  1  0
 17 18  1  0
 17 19  2  0
 18 59  1  0
 18 60  1  0
 18 61  1  0
 20 27  1  0
 20 21  1  6
 20 22  1  0
 21 62  1  0
 22 23  1  0
 22 24  1  0
 22 63  1  6
 23 64  1  0
 24 25  1  6
 24 27  1  0
 24 29  1  0
 25 26  1  0
 25 65  1  0
 25 66  1  0
 26 67  1  0
 27 28  1  0
 27 68  1  1
 28 69  1  0
 29 30  1  0
 29 31  1  6
 30 70  1  0
 30 71  1  0
 30 72  1  0
 31 73  1  0
 32 45  1  0
 32 33  1  0
 32 74  1  1
 33 37  1  0
 33 34  1  0
 33 38  1  0
 34 35  1  0
 35 36  1  0
 35 75  1  0
 35 76  1  0
 36 37  1  0
 36 77  1  0
 36 78  1  0
 38 40  1  0
 38 39  1  0
 38 79  1  6
 39 40  1  0
 40 41  1  6
 40 42  1  0
 41 80  1  0
 41 81  1  0
 41 82  1  0
 42 43  1  0
 42 83  1  6
 43 44  2  0
 43 45  1  6
 45 46  1  1
 46 84  1  0
M  END
>  <i_m_ct_stereo_status>  (103) 
1

>  <s_m_source_file>  (103) 
/var/tmp/pbs.5075288.sched01/tmpjyqx9nt_/132xb3bh5wq.sdf

>  <i_m_source_file_index>  (103) 
57

>  <i_lp_mmshare_version>  (103) 
48012

>  <i_f3d_flags>  (103) 
3

>  <s_epik_input>  (103) 
W0NIMl09QzFbQ0BASF0oW09IXSlbQ0gyXVtDQEBdKE9bQ0gzXSkoW0NASF0yW09IXSlbQ0BAXShbUytdM1tPLV0pKFtPSF0pW0NASF0oQzQoT1tDSDJdW0NIMl1PNClbQ0BIXShPNSlbQ0BAXTUoW0NIM10pW0NAQEhdM1tDQF0xMjYpQz03L0MoPVtDSF1cNilbQ0BAXShbQ0gzXSkoW09IXSlbQ0BAXTgoW0NIMl1bT0hdKVtDQEhdKFtPSF0pW0NAXShbT0hdKShbQ0BASF04W09IXSlDN09DKD1PKVtDSDNd

>  <s_epik_cmdline>  (103) 
J2VwaWtfcHl0aG9uJywgJy1waHQnLCAnMi4wJywgJy1waCcsICc3LjAnLCAnLXRuJywgJzgnLCAnLW1hJywgJzIwMCcsICctaW1hZScsICc8aW5maWxlLm1hZT4nLCAnLW9tYWUnLCAnPG91dGZpbGUubWFlPic=

>  <r_lp_tautomer_probability>  (103) 
1

>  <r_epik_Ionization_Penalty>  (103) 
0.000290831

>  <r_epik_Ionization_Penalty_Charging>  (103) 
0

>  <r_epik_Ionization_Penalty_Neutral>  (103) 
0.000290831

>  <r_epik_State_Penalty>  (103) 
-0

>  <r_epik_Charging_Adjusted_Penalty>  (103) 
0

>  <i_epik_Tot_Q>  (103) 
0

>  <i_epik_Tot_abs_Q>  (103) 
2

>  <s_lp_Force_Field>  (103) 
OPLS3e

>  <r_lp_Energy>  (103) 
155.695

>  <b_lp_Chiralities_Consistent>  (103) 
0

>  <s_lp_Variant>  (103) 
71:0-2

>  <s_i_glide_gridfile>  (103) 
pfpi4k_grid

>  <i_i_glide_lignum>  (103) 
57

>  <i_i_glide_rotatable_bonds>  (103) 
12

>  <r_i_docking_score>  (103) 
-2.46848

>  <r_i_glide_ligand_efficiency>  (103) 
-0.0536625

>  <r_i_glide_ligand_efficiency_sa>  (103) 
-0.192275

>  <r_i_glide_ligand_efficiency_ln>  (103) 
-0.511215

>  <r_i_glide_gscore>  (103) 
-2.46848

>  <r_i_glide_lipo>  (103) 
-0.128407

>  <r_i_glide_hbond>  (103) 
0

>  <r_i_glide_metal>  (103) 
-0

>  <r_i_glide_rewards>  (103) 
-0.5

>  <r_i_glide_evdw>  (103) 
-23.9893

>  <r_i_glide_ecoul>  (103) 
-12.0468

>  <r_i_glide_erotb>  (103) 
0.0947997

>  <r_i_glide_esite>  (103) 
-0.00440025

>  <r_i_glide_emodel>  (103) 
-36.9002

>  <r_i_glide_energy>  (103) 
-36.036

>  <r_i_glide_einternal>  (103) 
12.9589

>  <r_i_glide_intrahb_reward>  (103) 
-0.5

>  <i_i_glide_confnum>  (103) 
3

>  <i_i_glide_posenum>  (103) 
6

>  <r_i_glide_eff_state_penalty>  (103) 
0

>  <ligand_id>  (103) 
71

>  <original_smiles>  (103) 
C=C1C(O)CC2(OC)C(O)C13C=C1C(=C(OC(C)=O)C4(O)C(O)C(CO)(C4O)C1(C)O)C1C4(OCCO4)C4OC4(C)C3[S+]([O-])C12O

>  <smiles>  (103) 
[H]OC([H])([H])C12C([H])(O[H])C(O[H])(C(OC(=O)C([H])([H])[H])=C3C(=C([H])C45C(=C([H])[H])C([H])(O[H])C([H])([H])C(OC([H])([H])[H])(C4([H])O[H])C4(O[H])S(=O)C5([H])C5(C([H])([H])[H])OC5([H])C5(OC([H])([H])C([H])([H])O5)C34[H])C1(O[H])C([H])([H])[H])C2([H])O[H]

$$$$
71:2:0
     RDKit          3D

 84 91  0  0  1  0  0  0  0  0999 V2000
   -1.7546    2.5679    3.7487 C   0  0  0  0  0  0  0  0  0  0  0  0
   -1.0688    2.4645    4.8986 C   0  0  0  0  0  0  0  0  0  0  0  0
   -1.5890    2.9377    6.2951 C   0  0  1  0  0  0  0  0  0  0  0  0
   -2.9814    3.1152    6.3021 O   0  0  0  0  0  0  0  0  0  0  0  0
   -1.1428    2.0674    7.5696 C   0  0  0  0  0  0  0  0  0  0  0  0
    0.1182    1.0947    7.4477 C   0  0  1  0  0  0  0  0  0  0  0  0
   -0.1733    0.0368    8.3857 O   0  0  0  0  0  0  0  0  0  0  0  0
    0.6210   -1.1436    8.4335 C   0  0  0  0  0  0  0  0  0  0  0  0
   -0.0571    0.6217    6.0329 C   0  0  1  0  0  0  0  0  0  0  0  0
   -1.3182   -0.0155    5.7987 O   0  0  0  0  0  0  0  0  0  0  0  0
    0.2972    1.8116    5.0265 C   0  0  1  0  0  0  0  0  0  0  0  0
    1.0538    1.0587    3.9200 C   0  0  0  0  0  0  0  0  0  0  0  0
    2.1861    0.2868    4.1501 C   0  0  0  0  0  0  0  0  0  0  0  0
    2.7071   -0.0445    5.5498 C   0  0  0  0  0  0  0  0  0  0  0  0
    3.0247   -1.3484    5.8098 C   0  0  0  0  0  0  0  0  0  0  0  0
    3.4291   -1.7254    7.0785 O   0  0  0  0  0  0  0  0  0  0  0  0
    4.7158   -2.1234    7.2996 C   0  0  0  0  0  0  0  0  0  0  0  0
    4.9828   -2.4174    8.7720 C   0  0  0  0  0  0  0  0  0  0  0  0
    5.6158   -2.2155    6.4640 O   0  0  0  0  0  0  0  0  0  0  0  0
    2.8262   -2.5814    4.9012 C   0  0  2  0  0  0  0  0  0  0  0  0
    2.6799   -3.7562    5.6758 O   0  0  0  0  0  0  0  0  0  0  0  0
    3.9090   -2.6047    3.8264 C   0  0  1  0  0  0  0  0  0  0  0  0
    4.3887   -3.8934    3.4759 O   0  0  0  0  0  0  0  0  0  0  0  0
    2.9387   -1.8558    2.8547 C   0  0  1  0  0  0  0  0  0  0  0  0
    2.9876   -2.3919    1.3982 C   0  0  0  0  0  0  0  0  0  0  0  0
    4.1777   -2.0656    0.7121 O   0  0  0  0  0  0  0  0  0  0  0  0
    1.8175   -2.4778    3.7385 C   0  0  1  0  0  0  0  0  0  0  0  0
    1.2788   -3.7002    3.2832 O   0  0  0  0  0  0  0  0  0  0  0  0
    2.9599   -0.2725    2.9191 C   0  0  1  0  0  0  0  0  0  0  0  0
    2.5396    0.4250    1.5925 C   0  0  0  0  0  0  0  0  0  0  0  0
    4.3059    0.1349    3.0246 O   0  0  0  0  0  0  0  0  0  0  0  0
    2.9209    0.9839    6.7496 C   0  0  1  0  0  0  0  0  0  0  0  0
    4.0673    1.9960    6.2796 C   0  0  0  0  0  0  0  0  0  0  0  0
    5.1662    1.2124    5.9169 O   0  0  0  0  0  0  0  0  0  0  0  0
    6.0234    1.1583    7.0322 C   0  0  0  0  0  0  0  0  0  0  0  0
    5.8313    2.5560    7.5861 C   0  0  0  0  0  0  0  0  0  0  0  0
    4.4603    2.7698    7.3660 O   0  0  0  0  0  0  0  0  0  0  0  0
    3.8203    2.9253    5.0321 C   0  0  2  0  0  0  0  0  0  0  0  0
    3.4640    4.2902    5.2968 O   0  0  0  0  0  0  0  0  0  0  0  0
    2.4631    3.5411    4.6015 C   0  0  1  0  0  0  0  0  0  0  0  0
    2.1921    4.1011    3.2160 C   0  0  0  0  0  0  0  0  0  0  0  0
    1.2047    3.0967    5.3748 C   0  0  1  0  0  0  0  0  0  0  0  0
    1.3371    3.4444    7.1877 S   0  0  0  0  0  0  0  0  0  0  0  0
    2.4658    4.3689    7.6314 O   0  0  0  0  0  0  0  0  0  0  0  0
    1.6340    1.6516    7.6098 C   0  0  1  0  0  0  0  0  0  0  0  0
    1.9534    1.5569    8.9860 O   0  0  0  0  0  0  0  0  0  0  0  0
   -1.3494    2.2121    2.8126 H   0  0  0  0  0  0  0  0  0  0  0  0
   -2.7356    3.0162    3.7227 H   0  0  0  0  0  0  0  0  0  0  0  0
   -1.2020    3.9474    6.4268 H   0  0  0  0  0  0  0  0  0  0  0  0
   -3.3983    2.2764    6.1578 H   0  0  0  0  0  0  0  0  0  0  0  0
   -1.0476    2.7078    8.4488 H   0  0  0  0  0  0  0  0  0  0  0  0
   -1.9920    1.4332    7.8356 H   0  0  0  0  0  0  0  0  0  0  0  0
    0.2288   -1.7806    9.2235 H   0  0  0  0  0  0  0  0  0  0  0  0
    1.6583   -0.9427    8.6885 H   0  0  0  0  0  0  0  0  0  0  0  0
    0.5808   -1.7245    7.5145 H   0  0  0  0  0  0  0  0  0  0  0  0
    0.4780   -0.2947    5.9198 H   0  0  0  0  0  0  0  0  0  0  0  0
   -1.9009    0.6158    5.4040 H   0  0  0  0  0  0  0  0  0  0  0  0
    0.6821    1.2759    2.9320 H   0  0  0  0  0  0  0  0  0  0  0  0
    4.7654   -1.5463    9.3882 H   0  0  0  0  0  0  0  0  0  0  0  0
    6.0303   -2.6727    8.9172 H   0  0  0  0  0  0  0  0  0  0  0  0
    4.3809   -3.2549    9.1206 H   0  0  0  0  0  0  0  0  0  0  0  0
    2.9401   -4.4746    5.1197 H   0  0  0  0  0  0  0  0  0  0  0  0
    4.7667   -1.9942    4.0978 H   0  0  0  0  0  0  0  0  0  0  0  0
    3.6453   -4.3943    3.1717 H   0  0  0  0  0  0  0  0  0  0  0  0
    2.9531   -3.4816    1.3834 H   0  0  0  0  0  0  0  0  0  0  0  0
    2.1183   -2.0797    0.8229 H   0  0  0  0  0  0  0  0  0  0  0  0
    4.1848   -1.1309    0.5709 H   0  0  0  0  0  0  0  0  0  0  0  0
    0.9739   -1.8293    3.9547 H   0  0  0  0  0  0  0  0  0  0  0  0
    0.6691   -3.4679    2.5996 H   0  0  0  0  0  0  0  0  0  0  0  0
    1.5320    0.1459    1.2814 H   0  0  0  0  0  0  0  0  0  0  0  0
    3.2075    0.2049    0.7624 H   0  0  0  0  0  0  0  0  0  0  0  0
    2.5815    1.5092    1.6838 H   0  0  0  0  0  0  0  0  0  0  0  0
    4.3393    1.0808    2.9663 H   0  0  0  0  0  0  0  0  0  0  0  0
    3.4192    0.4345    7.5357 H   0  0  0  0  0  0  0  0  0  0  0  0
    5.6614    0.4253    7.7530 H   0  0  0  0  0  0  0  0  0  0  0  0
    7.0511    0.9048    6.7677 H   0  0  0  0  0  0  0  0  0  0  0  0
    6.0667    2.6369    8.6484 H   0  0  0  0  0  0  0  0  0  0  0  0
    6.4151    3.2816    7.0139 H   0  0  0  0  0  0  0  0  0  0  0  0
    4.5680    2.8191    4.2511 H   0  0  0  0  0  0  0  0  0  0  0  0
    1.6361    3.3946    2.6007 H   0  0  0  0  0  0  0  0  0  0  0  0
    3.1328    4.3255    2.7063 H   0  0  0  0  0  0  0  0  0  0  0  0
    1.6144    5.0248    3.2781 H   0  0  0  0  0  0  0  0  0  0  0  0
    1.7965    2.3267    5.5293 H   0  0  0  0  0  0  0  0  0  0  0  0
    2.8451    1.2573    9.0746 H   0  0  0  0  0  0  0  0  0  0  0  0
  1  2  2  0
  1 47  1  0
  1 48  1  0
 11  2  1  6
  2  3  1  0
  3  4  1  0
  3  5  1  0
  3 49  1  1
  4 50  1  0
  5  6  1  0
  5 51  1  0
  5 52  1  0
  6 45  1  0
  6  7  1  1
  6  9  1  0
  7  8  1  0
  8 53  1  0
  8 54  1  0
  8 55  1  0
  9 10  1  0
  9 11  1  0
  9 56  1  6
 10 57  1  0
 11 42  1  0
 11 12  1  0
 12 13  2  3
 12 58  1  0
 13 29  1  0
 13 14  1  0
 14 15  2  0
 14 32  1  0
 15 16  1  0
 15 20  1  0
 16 17  1  0
 17 18  1  0
 17 19  2  0
 18 59  1  0
 18 60  1  0
 18 61  1  0
 20 27  1  0
 20 21  1  1
 20 22  1  0
 21 62  1  0
 22 23  1  0
 22 24  1  0
 22 63  1  1
 23 64  1  0
 24 25  1  6
 24 27  1  0
 24 29  1  0
 25 26  1  0
 25 65  1  0
 25 66  1  0
 26 67  1  0
 27 28  1  0
 27 68  1  1
 28 69  1  0
 29 30  1  0
 29 31  1  1
 30 70  1  0
 30 71  1  0
 30 72  1  0
 31 73  1  0
 32 45  1  0
 32 33  1  0
 32 74  1  1
 33 37  1  0
 33 34  1  0
 33 38  1  0
 34 35  1  0
 35 36  1  0
 35 75  1  0
 35 76  1  0
 36 37  1  0
 36 77  1  0
 36 78  1  0
 38 40  1  0
 38 39  1  0
 38 79  1  6
 39 40  1  0
 40 41  1  6
 40 42  1  0
 41 80  1  0
 41 81  1  0
 41 82  1  0
 42 43  1  0
 42 83  1  6
 43 44  2  0
 43 45  1  1
 45 46  1  1
 46 84  1  0
M  END
>  <i_m_ct_stereo_status>  (104) 
1

>  <s_m_source_file>  (104) 
/var/tmp/pbs.5075288.sched01/tmpjyqx9nt_/132xb3bh5wq.sdf

>  <i_m_source_file_index>  (104) 
58

>  <i_lp_mmshare_version>  (104) 
48012

>  <i_f3d_flags>  (104) 
0

>  <s_epik_input>  (104) 
W0NIMl09QzFbQ0BASF0oW09IXSlbQ0gyXVtDQEBdKE9bQ0gzXSkoW0NASF0yW09IXSlbQ0BAXShbUytdM1tPLV0pKFtPSF0pW0NASF0oQzQoT1tDSDJdW0NIMl1PNClbQ0BIXShPNSlbQ0BAXTUoW0NIM10pW0NAQEhdM1tDQF0xMjYpQz03L0MoPVtDSF1cNilbQ0BAXShbQ0gzXSkoW09IXSlbQ0BAXTgoW0NIMl1bT0hdKVtDQEhdKFtPSF0pW0NAXShbT0hdKShbQ0BASF04W09IXSlDN09DKD1PKVtDSDNd

>  <s_epik_cmdline>  (104) 
J2VwaWtfcHl0aG9uJywgJy1waHQnLCAnMi4wJywgJy1waCcsICc3LjAnLCAnLXRuJywgJzgnLCAnLW1hJywgJzIwMCcsICctaW1hZScsICc8aW5maWxlLm1hZT4nLCAnLW9tYWUnLCAnPG91dGZpbGUubWFlPic=

>  <r_lp_tautomer_probability>  (104) 
1

>  <r_epik_Ionization_Penalty>  (104) 
0.000290831

>  <r_epik_Ionization_Penalty_Charging>  (104) 
0

>  <r_epik_Ionization_Penalty_Neutral>  (104) 
0.000290831

>  <r_epik_State_Penalty>  (104) 
-0

>  <r_epik_Charging_Adjusted_Penalty>  (104) 
0

>  <i_epik_Tot_Q>  (104) 
0

>  <i_epik_Tot_abs_Q>  (104) 
2

>  <s_lp_Force_Field>  (104) 
OPLS3e

>  <r_lp_Energy>  (104) 
202.626

>  <b_lp_Chiralities_Consistent>  (104) 
1

>  <s_lp_Variant>  (104) 
71:0-3

>  <s_i_glide_gridfile>  (104) 
pfpi4k_grid

>  <i_i_glide_lignum>  (104) 
58

>  <i_i_glide_rotatable_bonds>  (104) 
12

>  <r_i_docking_score>  (104) 
-2.65872

>  <r_i_glide_ligand_efficiency>  (104) 
-0.0577982

>  <r_i_glide_ligand_efficiency_sa>  (104) 
-0.207094

>  <r_i_glide_ligand_efficiency_ln>  (104) 
-0.550614

>  <r_i_glide_gscore>  (104) 
-2.65872

>  <r_i_glide_lipo>  (104) 
-0.079951

>  <r_i_glide_hbond>  (104) 
0

>  <r_i_glide_metal>  (104) 
-0

>  <r_i_glide_rewards>  (104) 
0

>  <r_i_glide_evdw>  (104) 
-24.3365

>  <r_i_glide_ecoul>  (104) 
-9.71163

>  <r_i_glide_erotb>  (104) 
0.0947997

>  <r_i_glide_esite>  (104) 
0

>  <r_i_glide_emodel>  (104) 
-38.0937

>  <r_i_glide_energy>  (104) 
-34.0481

>  <r_i_glide_einternal>  (104) 
2.31728

>  <r_i_glide_intrahb_reward>  (104) 
-0

>  <i_i_glide_confnum>  (104) 
3

>  <i_i_glide_posenum>  (104) 
3

>  <r_i_glide_eff_state_penalty>  (104) 
0

>  <ligand_id>  (104) 
71

>  <original_smiles>  (104) 
C=C1C(O)CC2(OC)C(O)C13C=C1C(=C(OC(C)=O)C4(O)C(O)C(CO)(C4O)C1(C)O)C1C4(OCCO4)C4OC4(C)C3[S+]([O-])C12O

>  <smiles>  (104) 
[H]OC([H])([H])C12C([H])(O[H])C(O[H])(C(OC(=O)C([H])([H])[H])=C3C(=C([H])C45C(=C([H])[H])C([H])(O[H])C([H])([H])C(OC([H])([H])[H])(C4([H])O[H])C4(O[H])S(=O)C5([H])C5(C([H])([H])[H])OC5([H])C5(OC([H])([H])C([H])([H])O5)C34[H])C1(O[H])C([H])([H])[H])C2([H])O[H]

$$$$
71:2:1
     RDKit          3D

 84 91  0  0  1  0  0  0  0  0999 V2000
    2.5225    2.2803    2.8315 C   0  0  0  0  0  0  0  0  0  0  0  0
    2.1211    1.3926    3.7525 C   0  0  0  0  0  0  0  0  0  0  0  0
    1.0260    1.6754    4.8226 C   0  0  1  0  0  0  0  0  0  0  0  0
    0.2209    2.7835    4.4707 O   0  0  0  0  0  0  0  0  0  0  0  0
    0.0841    0.4520    5.2216 C   0  0  0  0  0  0  0  0  0  0  0  0
    0.5431   -1.0567    4.9229 C   0  0  1  0  0  0  0  0  0  0  0  0
   -0.6196   -1.8821    4.6939 O   0  0  0  0  0  0  0  0  0  0  0  0
   -1.7052   -1.7576    5.6381 C   0  0  0  0  0  0  0  0  0  0  0  0
    1.2276   -0.8383    3.5922 C   0  0  1  0  0  0  0  0  0  0  0  0
    0.4137   -0.2164    2.5991 O   0  0  0  0  0  0  0  0  0  0  0  0
    2.6039   -0.0537    3.8207 C   0  0  1  0  0  0  0  0  0  0  0  0
    3.5257   -0.7521    2.8071 C   0  0  0  0  0  0  0  0  0  0  0  0
    3.7633   -2.1198    2.7919 C   0  0  0  0  0  0  0  0  0  0  0  0
    2.9906   -3.1127    3.6629 C   0  0  0  0  0  0  0  0  0  0  0  0
    2.4912   -4.2343    3.0558 C   0  0  0  0  0  0  0  0  0  0  0  0
    1.7293   -5.1296    3.7896 O   0  0  0  0  0  0  0  0  0  0  0  0
    2.2017   -6.3892    4.0329 C   0  0  0  0  0  0  0  0  0  0  0  0
    1.2492   -7.1985    4.9046 C   0  0  0  0  0  0  0  0  0  0  0  0
    3.2564   -6.8724    3.6233 O   0  0  0  0  0  0  0  0  0  0  0  0
    2.5307   -4.6112    1.5510 C   0  0  2  0  0  0  0  0  0  0  0  0
    1.4933   -5.5159    1.2208 O   0  0  0  0  0  0  0  0  0  0  0  0
    3.9359   -5.0707    1.1593 C   0  0  1  0  0  0  0  0  0  0  0  0
    4.0020   -6.1180    0.2048 O   0  0  0  0  0  0  0  0  0  0  0  0
    4.2936   -3.6186    0.7143 C   0  0  1  0  0  0  0  0  0  0  0  0
    5.1179   -3.5646   -0.6012 C   0  0  0  0  0  0  0  0  0  0  0  0
    6.4814   -3.8997   -0.4373 O   0  0  0  0  0  0  0  0  0  0  0  0
    2.7535   -3.4656    0.5267 C   0  0  1  0  0  0  0  0  0  0  0  0
    2.2467   -3.6622   -0.7774 O   0  0  0  0  0  0  0  0  0  0  0  0
    4.8722   -2.6678    1.8405 C   0  0  1  0  0  0  0  0  0  0  0  0
    5.7973   -1.5268    1.3072 C   0  0  0  0  0  0  0  0  0  0  0  0
    5.7862   -3.4214    2.6094 O   0  0  0  0  0  0  0  0  0  0  0  0
    2.7181   -2.9774    5.2253 C   0  0  1  0  0  0  0  0  0  0  0  0
    4.1471   -3.0386    5.9463 C   0  0  0  0  0  0  0  0  0  0  0  0
    4.7441   -4.2183    5.5129 O   0  0  0  0  0  0  0  0  0  0  0  0
    5.6030   -4.6450    6.5506 C   0  0  0  0  0  0  0  0  0  0  0  0
    4.8462   -4.1742    7.7885 C   0  0  0  0  0  0  0  0  0  0  0  0
    3.9513   -3.1901    7.3124 O   0  0  0  0  0  0  0  0  0  0  0  0
    5.2124   -1.8998    5.6792 C   0  0  2  0  0  0  0  0  0  0  0  0
    5.3155   -0.8635    6.6670 O   0  0  0  0  0  0  0  0  0  0  0  0
    4.8942   -0.4166    5.3814 C   0  0  1  0  0  0  0  0  0  0  0  0
    5.8871    0.5430    4.7637 C   0  0  0  0  0  0  0  0  0  0  0  0
    3.4189   -0.0136    5.2020 C   0  0  1  0  0  0  0  0  0  0  0  0
    2.3947   -0.4169    6.6863 S   0  0  0  0  0  0  0  0  0  0  0  0
    3.1444   -0.8028    7.9536 O   0  0  0  0  0  0  0  0  0  0  0  0
    1.6006   -1.8794    5.8562 C   0  0  1  0  0  0  0  0  0  0  0  0
    0.8795   -2.6041    6.8315 O   0  0  0  0  0  0  0  0  0  0  0  0
    3.2540    2.0179    2.0832 H   0  0  0  0  0  0  0  0  0  0  0  0
    2.1027    3.2756    2.7945 H   0  0  0  0  0  0  0  0  0  0  0  0
    1.5549    1.9884    5.7207 H   0  0  0  0  0  0  0  0  0  0  0  0
    0.0587    2.7472    3.5357 H   0  0  0  0  0  0  0  0  0  0  0  0
   -0.2146    0.5619    6.2669 H   0  0  0  0  0  0  0  0  0  0  0  0
   -0.8427    0.6091    4.6589 H   0  0  0  0  0  0  0  0  0  0  0  0
   -2.5738   -2.3210    5.3193 H   0  0  0  0  0  0  0  0  0  0  0  0
   -2.0885   -0.7446    5.7628 H   0  0  0  0  0  0  0  0  0  0  0  0
   -1.4447   -2.1320    6.6258 H   0  0  0  0  0  0  0  0  0  0  0  0
    1.2224   -1.7886    3.0877 H   0  0  0  0  0  0  0  0  0  0  0  0
    0.8546   -0.2721    1.7638 H   0  0  0  0  0  0  0  0  0  0  0  0
    4.0577   -0.0569    2.1778 H   0  0  0  0  0  0  0  0  0  0  0  0
    1.0840   -6.7047    5.8604 H   0  0  0  0  0  0  0  0  0  0  0  0
    1.6718   -8.1807    5.1007 H   0  0  0  0  0  0  0  0  0  0  0  0
    0.2916   -7.3405    4.4074 H   0  0  0  0  0  0  0  0  0  0  0  0
    1.9017   -6.3719    1.1663 H   0  0  0  0  0  0  0  0  0  0  0  0
    4.4966   -5.3975    2.0288 H   0  0  0  0  0  0  0  0  0  0  0  0
    3.5771   -5.8085   -0.5904 H   0  0  0  0  0  0  0  0  0  0  0  0
    4.7273   -4.2773   -1.3303 H   0  0  0  0  0  0  0  0  0  0  0  0
    5.0250   -2.5927   -1.0873 H   0  0  0  0  0  0  0  0  0  0  0  0
    6.5376   -4.7161    0.0401 H   0  0  0  0  0  0  0  0  0  0  0  0
    2.3412   -2.5208    0.8663 H   0  0  0  0  0  0  0  0  0  0  0  0
    1.9761   -2.8078   -1.0946 H   0  0  0  0  0  0  0  0  0  0  0  0
    5.2922   -0.8867    0.5825 H   0  0  0  0  0  0  0  0  0  0  0  0
    6.7115   -1.8910    0.8415 H   0  0  0  0  0  0  0  0  0  0  0  0
    6.1653   -0.9090    2.1262 H   0  0  0  0  0  0  0  0  0  0  0  0
    5.3324   -4.1423    3.0243 H   0  0  0  0  0  0  0  0  0  0  0  0
    2.3047   -3.9230    5.5486 H   0  0  0  0  0  0  0  0  0  0  0  0
    5.7704   -5.7210    6.5216 H   0  0  0  0  0  0  0  0  0  0  0  0
    6.5757   -4.1540    6.4664 H   0  0  0  0  0  0  0  0  0  0  0  0
    4.2648   -4.9865    8.2260 H   0  0  0  0  0  0  0  0  0  0  0  0
    5.5154   -3.7665    8.5480 H   0  0  0  0  0  0  0  0  0  0  0  0
    6.1753   -2.2520    5.3137 H   0  0  0  0  0  0  0  0  0  0  0  0
    5.7003    0.6839    3.6984 H   0  0  0  0  0  0  0  0  0  0  0  0
    6.9041    0.1527    4.8764 H   0  0  0  0  0  0  0  0  0  0  0  0
    5.8422    1.5058    5.2750 H   0  0  0  0  0  0  0  0  0  0  0  0
    3.3796   -0.9674    4.9685 H   0  0  0  0  0  0  0  0  0  0  0  0
    1.3828   -3.3673    7.0740 H   0  0  0  0  0  0  0  0  0  0  0  0
  1  2  2  0
  1 47  1  0
  1 48  1  0
 11  2  1  6
  2  3  1  0
  3  4  1  0
  3  5  1  0
  3 49  1  1
  4 50  1  0
  5  6  1  0
  5 51  1  0
  5 52  1  0
  6 45  1  0
  6  7  1  6
  6  9  1  0
  7  8  1  0
  8 53  1  0
  8 54  1  0
  8 55  1  0
  9 10  1  0
  9 11  1  0
  9 56  1  6
 10 57  1  0
 11 42  1  0
 11 12  1  0
 12 13  2  3
 12 58  1  0
 13 29  1  0
 13 14  1  0
 14 15  2  0
 14 32  1  0
 15 16  1  0
 15 20  1  0
 16 17  1  0
 17 18  1  0
 17 19  2  0
 18 59  1  0
 18 60  1  0
 18 61  1  0
 20 27  1  0
 20 21  1  6
 20 22  1  0
 21 62  1  0
 22 23  1  0
 22 24  1  0
 22 63  1  1
 23 64  1  0
 24 25  1  6
 24 27  1  0
 24 29  1  0
 25 26  1  0
 25 65  1  0
 25 66  1  0
 26 67  1  0
 27 28  1  0
 27 68  1  1
 28 69  1  0
 29 30  1  0
 29 31  1  1
 30 70  1  0
 30 71  1  0
 30 72  1  0
 31 73  1  0
 32 45  1  0
 32 33  1  0
 32 74  1  1
 33 37  1  0
 33 34  1  0
 33 38  1  0
 34 35  1  0
 35 36  1  0
 35 75  1  0
 35 76  1  0
 36 37  1  0
 36 77  1  0
 36 78  1  0
 38 40  1  0
 38 39  1  0
 38 79  1  6
 39 40  1  0
 40 41  1  6
 40 42  1  0
 41 80  1  0
 41 81  1  0
 41 82  1  0
 42 43  1  0
 42 83  1  1
 43 44  2  0
 43 45  1  6
 45 46  1  1
 46 84  1  0
M  END
>  <i_m_ct_stereo_status>  (105) 
1

>  <s_m_source_file>  (105) 
/var/tmp/pbs.5075288.sched01/tmpjyqx9nt_/132xb3bh5wq.sdf

>  <i_m_source_file_index>  (105) 
58

>  <i_lp_mmshare_version>  (105) 
48012

>  <i_f3d_flags>  (105) 
0

>  <s_epik_input>  (105) 
W0NIMl09QzFbQ0BASF0oW09IXSlbQ0gyXVtDQEBdKE9bQ0gzXSkoW0NASF0yW09IXSlbQ0BAXShbUytdM1tPLV0pKFtPSF0pW0NASF0oQzQoT1tDSDJdW0NIMl1PNClbQ0BIXShPNSlbQ0BAXTUoW0NIM10pW0NAQEhdM1tDQF0xMjYpQz03L0MoPVtDSF1cNilbQ0BAXShbQ0gzXSkoW09IXSlbQ0BAXTgoW0NIMl1bT0hdKVtDQEhdKFtPSF0pW0NAXShbT0hdKShbQ0BASF04W09IXSlDN09DKD1PKVtDSDNd

>  <s_epik_cmdline>  (105) 
J2VwaWtfcHl0aG9uJywgJy1waHQnLCAnMi4wJywgJy1waCcsICc3LjAnLCAnLXRuJywgJzgnLCAnLW1hJywgJzIwMCcsICctaW1hZScsICc8aW5maWxlLm1hZT4nLCAnLW9tYWUnLCAnPG91dGZpbGUubWFlPic=

>  <r_lp_tautomer_probability>  (105) 
1

>  <r_epik_Ionization_Penalty>  (105) 
0.000290831

>  <r_epik_Ionization_Penalty_Charging>  (105) 
0

>  <r_epik_Ionization_Penalty_Neutral>  (105) 
0.000290831

>  <r_epik_State_Penalty>  (105) 
-0

>  <r_epik_Charging_Adjusted_Penalty>  (105) 
0

>  <i_epik_Tot_Q>  (105) 
0

>  <i_epik_Tot_abs_Q>  (105) 
2

>  <s_lp_Force_Field>  (105) 
OPLS3e

>  <r_lp_Energy>  (105) 
202.626

>  <b_lp_Chiralities_Consistent>  (105) 
1

>  <s_lp_Variant>  (105) 
71:0-3

>  <s_i_glide_gridfile>  (105) 
pfpi4k_grid

>  <i_i_glide_lignum>  (105) 
58

>  <i_i_glide_rotatable_bonds>  (105) 
12

>  <r_i_docking_score>  (105) 
-2.59533

>  <r_i_glide_ligand_efficiency>  (105) 
-0.0564203

>  <r_i_glide_ligand_efficiency_sa>  (105) 
-0.202157

>  <r_i_glide_ligand_efficiency_ln>  (105) 
-0.537487

>  <r_i_glide_gscore>  (105) 
-2.59533

>  <r_i_glide_lipo>  (105) 
-0.498802

>  <r_i_glide_hbond>  (105) 
0

>  <r_i_glide_metal>  (105) 
-0

>  <r_i_glide_rewards>  (105) 
-0.000389749

>  <r_i_glide_evdw>  (105) 
-21.9065

>  <r_i_glide_ecoul>  (105) 
-7.30094

>  <r_i_glide_erotb>  (105) 
0.0947997

>  <r_i_glide_esite>  (105) 
-0.000472215

>  <r_i_glide_emodel>  (105) 
-30.2955

>  <r_i_glide_energy>  (105) 
-29.2075

>  <r_i_glide_einternal>  (105) 
6.62649

>  <r_i_glide_intrahb_reward>  (105) 
-0

>  <i_i_glide_confnum>  (105) 
1

>  <i_i_glide_posenum>  (105) 
35

>  <r_i_glide_eff_state_penalty>  (105) 
0

>  <ligand_id>  (105) 
71

>  <original_smiles>  (105) 
C=C1C(O)CC2(OC)C(O)C13C=C1C(=C(OC(C)=O)C4(O)C(O)C(CO)(C4O)C1(C)O)C1C4(OCCO4)C4OC4(C)C3[S+]([O-])C12O

>  <smiles>  (105) 
[H]OC([H])([H])C12C([H])(O[H])C(O[H])(C(OC(=O)C([H])([H])[H])=C3C(=C([H])C45C(=C([H])[H])C([H])(O[H])C([H])([H])C(OC([H])([H])[H])(C4([H])O[H])C4(O[H])S(=O)C5([H])C5(C([H])([H])[H])OC5([H])C5(OC([H])([H])C([H])([H])O5)C34[H])C1(O[H])C([H])([H])[H])C2([H])O[H]

$$$$
71:2:2
     RDKit          3D

 84 91  0  0  1  0  0  0  0  0999 V2000
    2.2148    2.7806    2.6246 C   0  0  0  0  0  0  0  0  0  0  0  0
    1.6471    2.0344    3.5780 C   0  0  0  0  0  0  0  0  0  0  0  0
    0.3757    2.4546    4.3722 C   0  0  1  0  0  0  0  0  0  0  0  0
   -0.3495    3.4832    3.7168 O   0  0  0  0  0  0  0  0  0  0  0  0
   -0.6274    1.2844    4.7933 C   0  0  0  0  0  0  0  0  0  0  0  0
   -0.1244   -0.2434    4.8163 C   0  0  1  0  0  0  0  0  0  0  0  0
   -1.2138   -1.1415    4.5132 O   0  0  0  0  0  0  0  0  0  0  0  0
   -2.4475   -0.9023    5.2172 C   0  0  0  0  0  0  0  0  0  0  0  0
    0.7859   -0.2135    3.6135 C   0  0  1  0  0  0  0  0  0  0  0  0
    0.1591    0.2293    2.4078 O   0  0  0  0  0  0  0  0  0  0  0  0
    2.0997    0.6290    3.9594 C   0  0  1  0  0  0  0  0  0  0  0  0
    3.1846   -0.1935    3.2439 C   0  0  0  0  0  0  0  0  0  0  0  0
    3.4084   -1.5457    3.4857 C   0  0  0  0  0  0  0  0  0  0  0  0
    2.4874   -2.4089    4.3487 C   0  0  0  0  0  0  0  0  0  0  0  0
    2.1015   -3.6207    3.8434 C   0  0  0  0  0  0  0  0  0  0  0  0
    1.2131   -4.4055    4.5609 O   0  0  0  0  0  0  0  0  0  0  0  0
    1.6243   -5.5985    5.0813 C   0  0  0  0  0  0  0  0  0  0  0  0
    0.5300   -6.2805    5.8953 C   0  0  0  0  0  0  0  0  0  0  0  0
    2.7330   -6.1174    4.9521 O   0  0  0  0  0  0  0  0  0  0  0  0
    2.4008   -4.2256    2.4432 C   0  0  2  0  0  0  0  0  0  0  0  0
    1.4439   -5.2089    2.0787 O   0  0  0  0  0  0  0  0  0  0  0  0
    3.8498   -4.7070    2.3870 C   0  0  1  0  0  0  0  0  0  0  0  0
    4.0660   -5.8828    1.6201 O   0  0  0  0  0  0  0  0  0  0  0  0
    4.2977   -3.3334    1.8034 C   0  0  1  0  0  0  0  0  0  0  0  0
    5.3470   -3.4690    0.6655 C   0  0  0  0  0  0  0  0  0  0  0  0
    6.6114   -3.9202    1.1130 O   0  0  0  0  0  0  0  0  0  0  0  0
    2.8177   -3.2462    1.3148 C   0  0  1  0  0  0  0  0  0  0  0  0
    2.5736   -3.6526   -0.0155 O   0  0  0  0  0  0  0  0  0  0  0  0
    4.6665   -2.2136    2.8597 C   0  0  1  0  0  0  0  0  0  0  0  0
    5.6831   -1.1674    2.3152 C   0  0  0  0  0  0  0  0  0  0  0  0
    5.4097   -2.8019    3.9125 O   0  0  0  0  0  0  0  0  0  0  0  0
    1.9454   -2.0387    5.8015 C   0  0  1  0  0  0  0  0  0  0  0  0
    3.2216   -1.9593    6.7616 C   0  0  0  0  0  0  0  0  0  0  0  0
    3.8764   -3.1820    6.6292 O   0  0  0  0  0  0  0  0  0  0  0  0
    4.5343   -3.4235    7.8564 C   0  0  0  0  0  0  0  0  0  0  0  0
    3.5715   -2.7845    8.8525 C   0  0  0  0  0  0  0  0  0  0  0  0
    2.7835   -1.9057    8.0762 O   0  0  0  0  0  0  0  0  0  0  0  0
    4.3267   -0.8531    6.5146 C   0  0  2  0  0  0  0  0  0  0  0  0
    4.2588    0.3225    7.3406 O   0  0  0  0  0  0  0  0  0  0  0  0
    4.0729    0.5602    5.9455 C   0  0  1  0  0  0  0  0  0  0  0  0
    5.1713    1.4193    5.3632 C   0  0  0  0  0  0  0  0  0  0  0  0
    2.6580    0.8986    5.4424 C   0  0  1  0  0  0  0  0  0  0  0  0
    1.3785    0.7112    6.7635 S   0  0  0  0  0  0  0  0  0  0  0  0
    1.8849    0.5320    8.1894 O   0  0  0  0  0  0  0  0  0  0  0  0
    0.7399   -0.8808    6.0445 C   0  0  1  0  0  0  0  0  0  0  0  0
   -0.1397   -1.4665    6.9859 O   0  0  0  0  0  0  0  0  0  0  0  0
    3.0745    2.4227    2.0798 H   0  0  0  0  0  0  0  0  0  0  0  0
    1.8258    3.7504    2.3610 H   0  0  0  0  0  0  0  0  0  0  0  0
    0.7395    2.9127    5.2915 H   0  0  0  0  0  0  0  0  0  0  0  0
   -0.1794    3.4474    2.7801 H   0  0  0  0  0  0  0  0  0  0  0  0
   -1.1042    1.5484    5.7392 H   0  0  0  0  0  0  0  0  0  0  0  0
   -1.4424    1.3311    4.0624 H   0  0  0  0  0  0  0  0  0  0  0  0
   -3.2828   -1.4641    4.8388 H   0  0  0  0  0  0  0  0  0  0  0  0
   -2.7928    0.1205    5.1571 H   0  0  0  0  0  0  0  0  0  0  0  0
   -2.3949   -1.1528    6.2671 H   0  0  0  0  0  0  0  0  0  0  0  0
    0.8691   -1.2278    3.2680 H   0  0  0  0  0  0  0  0  0  0  0  0
    0.7404    0.0873    1.6731 H   0  0  0  0  0  0  0  0  0  0  0  0
    3.8295    0.4036    2.6229 H   0  0  0  0  0  0  0  0  0  0  0  0
    0.2053   -5.6427    6.7156 H   0  0  0  0  0  0  0  0  0  0  0  0
    0.9061   -7.2091    6.3176 H   0  0  0  0  0  0  0  0  0  0  0  0
   -0.3279   -6.5209    5.2708 H   0  0  0  0  0  0  0  0  0  0  0  0
    1.9373   -6.0184    2.0103 H   0  0  0  0  0  0  0  0  0  0  0  0
    4.2541   -4.8901    3.3836 H   0  0  0  0  0  0  0  0  0  0  0  0
    3.7606   -5.6962    0.7407 H   0  0  0  0  0  0  0  0  0  0  0  0
    5.0312   -4.2113   -0.0670 H   0  0  0  0  0  0  0  0  0  0  0  0
    5.4458   -2.5503    0.0899 H   0  0  0  0  0  0  0  0  0  0  0  0
    6.4940   -4.7406    1.5708 H   0  0  0  0  0  0  0  0  0  0  0  0
    2.3558   -2.2649    1.4168 H   0  0  0  0  0  0  0  0  0  0  0  0
    2.3090   -2.8760   -0.4925 H   0  0  0  0  0  0  0  0  0  0  0  0
    5.3219   -0.6443    1.4263 H   0  0  0  0  0  0  0  0  0  0  0  0
    6.6354   -1.6171    2.0504 H   0  0  0  0  0  0  0  0  0  0  0  0
    5.9365   -0.4273    3.0716 H   0  0  0  0  0  0  0  0  0  0  0  0
    4.8902   -3.4918    4.3077 H   0  0  0  0  0  0  0  0  0  0  0  0
    1.4739   -2.9349    6.1871 H   0  0  0  0  0  0  0  0  0  0  0  0
    4.6969   -4.4875    8.0263 H   0  0  0  0  0  0  0  0  0  0  0  0
    5.5086   -2.9275    7.8702 H   0  0  0  0  0  0  0  0  0  0  0  0
    2.9091   -3.5291    9.2944 H   0  0  0  0  0  0  0  0  0  0  0  0
    4.0948   -2.2498    9.6457 H   0  0  0  0  0  0  0  0  0  0  0  0
    5.3435   -1.2269    6.3701 H   0  0  0  0  0  0  0  0  0  0  0  0
    5.1722    1.3484    4.2771 H   0  0  0  0  0  0  0  0  0  0  0  0
    6.1455    1.0796    5.7239 H   0  0  0  0  0  0  0  0  0  0  0  0
    5.0438    2.4609    5.6660 H   0  0  0  0  0  0  0  0  0  0  0  0
    2.6572   -0.0801    5.3556 H   0  0  0  0  0  0  0  0  0  0  0  0
    0.2913   -2.2227    7.3550 H   0  0  0  0  0  0  0  0  0  0  0  0
  1  2  2  0
  1 47  1  0
  1 48  1  0
 11  2  1  6
  2  3  1  0
  3  4  1  0
  3  5  1  0
  3 49  1  1
  4 50  1  0
  5  6  1  0
  5 51  1  0
  5 52  1  0
  6 45  1  0
  6  7  1  6
  6  9  1  0
  7  8  1  0
  8 53  1  0
  8 54  1  0
  8 55  1  0
  9 10  1  0
  9 11  1  0
  9 56  1  6
 10 57  1  0
 11 42  1  0
 11 12  1  0
 12 13  2  3
 12 58  1  0
 13 29  1  0
 13 14  1  0
 14 15  2  0
 14 32  1  0
 15 16  1  0
 15 20  1  0
 16 17  1  0
 17 18  1  0
 17 19  2  0
 18 59  1  0
 18 60  1  0
 18 61  1  0
 20 27  1  0
 20 21  1  6
 20 22  1  0
 21 62  1  0
 22 23  1  0
 22 24  1  0
 22 63  1  1
 23 64  1  0
 24 25  1  6
 24 27  1  0
 24 29  1  0
 25 26  1  0
 25 65  1  0
 25 66  1  0
 26 67  1  0
 27 28  1  0
 27 68  1  1
 28 69  1  0
 29 30  1  0
 29 31  1  1
 30 70  1  0
 30 71  1  0
 30 72  1  0
 31 73  1  0
 32 45  1  0
 32 33  1  0
 32 74  1  1
 33 37  1  0
 33 34  1  0
 33 38  1  0
 34 35  1  0
 35 36  1  0
 35 75  1  0
 35 76  1  0
 36 37  1  0
 36 77  1  0
 36 78  1  0
 38 40  1  0
 38 39  1  0
 38 79  1  6
 39 40  1  0
 40 41  1  6
 40 42  1  0
 41 80  1  0
 41 81  1  0
 41 82  1  0
 42 43  1  0
 42 83  1  6
 43 44  2  0
 43 45  1  6
 45 46  1  1
 46 84  1  0
M  END
>  <i_m_ct_stereo_status>  (106) 
1

>  <s_m_source_file>  (106) 
/var/tmp/pbs.5075288.sched01/tmpjyqx9nt_/132xb3bh5wq.sdf

>  <i_m_source_file_index>  (106) 
58

>  <i_lp_mmshare_version>  (106) 
48012

>  <i_f3d_flags>  (106) 
0

>  <s_epik_input>  (106) 
W0NIMl09QzFbQ0BASF0oW09IXSlbQ0gyXVtDQEBdKE9bQ0gzXSkoW0NASF0yW09IXSlbQ0BAXShbUytdM1tPLV0pKFtPSF0pW0NASF0oQzQoT1tDSDJdW0NIMl1PNClbQ0BIXShPNSlbQ0BAXTUoW0NIM10pW0NAQEhdM1tDQF0xMjYpQz03L0MoPVtDSF1cNilbQ0BAXShbQ0gzXSkoW09IXSlbQ0BAXTgoW0NIMl1bT0hdKVtDQEhdKFtPSF0pW0NAXShbT0hdKShbQ0BASF04W09IXSlDN09DKD1PKVtDSDNd

>  <s_epik_cmdline>  (106) 
J2VwaWtfcHl0aG9uJywgJy1waHQnLCAnMi4wJywgJy1waCcsICc3LjAnLCAnLXRuJywgJzgnLCAnLW1hJywgJzIwMCcsICctaW1hZScsICc8aW5maWxlLm1hZT4nLCAnLW9tYWUnLCAnPG91dGZpbGUubWFlPic=

>  <r_lp_tautomer_probability>  (106) 
1

>  <r_epik_Ionization_Penalty>  (106) 
0.000290831

>  <r_epik_Ionization_Penalty_Charging>  (106) 
0

>  <r_epik_Ionization_Penalty_Neutral>  (106) 
0.000290831

>  <r_epik_State_Penalty>  (106) 
-0

>  <r_epik_Charging_Adjusted_Penalty>  (106) 
0

>  <i_epik_Tot_Q>  (106) 
0

>  <i_epik_Tot_abs_Q>  (106) 
2

>  <s_lp_Force_Field>  (106) 
OPLS3e

>  <r_lp_Energy>  (106) 
202.626

>  <b_lp_Chiralities_Consistent>  (106) 
1

>  <s_lp_Variant>  (106) 
71:0-3

>  <s_i_glide_gridfile>  (106) 
pfpi4k_grid

>  <i_i_glide_lignum>  (106) 
58

>  <i_i_glide_rotatable_bonds>  (106) 
12

>  <r_i_docking_score>  (106) 
-2.25774

>  <r_i_glide_ligand_efficiency>  (106) 
-0.0490813

>  <r_i_glide_ligand_efficiency_sa>  (106) 
-0.175861

>  <r_i_glide_ligand_efficiency_ln>  (106) 
-0.467572

>  <r_i_glide_gscore>  (106) 
-2.25774

>  <r_i_glide_lipo>  (106) 
-0.227775

>  <r_i_glide_hbond>  (106) 
-0.0824813

>  <r_i_glide_metal>  (106) 
-0

>  <r_i_glide_rewards>  (106) 
0

>  <r_i_glide_evdw>  (106) 
-22.0477

>  <r_i_glide_ecoul>  (106) 
-6.26027

>  <r_i_glide_erotb>  (106) 
0.0947997

>  <r_i_glide_esite>  (106) 
-0.000857976

>  <r_i_glide_emodel>  (106) 
-28.9249

>  <r_i_glide_energy>  (106) 
-28.3079

>  <r_i_glide_einternal>  (106) 
6.20002

>  <r_i_glide_intrahb_reward>  (106) 
-0

>  <i_i_glide_confnum>  (106) 
6

>  <i_i_glide_posenum>  (106) 
6

>  <r_i_glide_eff_state_penalty>  (106) 
0

>  <ligand_id>  (106) 
71

>  <original_smiles>  (106) 
C=C1C(O)CC2(OC)C(O)C13C=C1C(=C(OC(C)=O)C4(O)C(O)C(CO)(C4O)C1(C)O)C1C4(OCCO4)C4OC4(C)C3[S+]([O-])C12O

>  <smiles>  (106) 
[H]OC([H])([H])C12C([H])(O[H])C(O[H])(C(OC(=O)C([H])([H])[H])=C3C(=C([H])C45C(=C([H])[H])C([H])(O[H])C([H])([H])C(OC([H])([H])[H])(C4([H])O[H])C4(O[H])S(=O)C5([H])C5(C([H])([H])[H])OC5([H])C5(OC([H])([H])C([H])([H])O5)C34[H])C1(O[H])C([H])([H])[H])C2([H])O[H]

$$$$
72:0:0
     RDKit          3D

 32 35  0  0  1  0  0  0  0  0999 V2000
    4.6304   -4.0060   -2.1181 C   0  0  0  0  0  0  0  0  0  0  0  0
    5.3069   -3.4345   -0.9345 N   0  0  0  0  0  0  0  0  0  0  0  0
    6.6031   -3.0109   -1.1312 C   0  0  0  0  0  0  0  0  0  0  0  0
    7.1383   -3.0139   -2.2281 O   0  0  0  0  0  0  0  0  0  0  0  0
    7.6285   -2.4351    0.1793 S   0  0  0  0  0  0  0  0  0  0  0  0
    8.1386   -3.7226    0.8257 O   0  0  0  0  0  0  0  0  0  0  0  0
    6.3437   -1.7303    1.3077 C   0  0  1  0  0  0  0  0  0  0  0  0
    5.2160   -0.7426    0.7227 C   0  0  1  0  0  0  0  0  0  0  0  0
    3.9149   -1.1550   -0.1281 C   0  0  1  0  0  0  0  0  0  0  0  0
    4.2202   -0.8213   -2.0855 Br  0  0  0  0  0  0  0  0  0  0  0  0
    3.3391   -2.6432    0.2140 C   0  0  2  0  0  0  0  0  0  0  0  0
    2.5932   -3.0810    1.8817 S   0  0  0  0  0  0  0  0  0  0  0  0
    4.3111   -3.3167    3.0602 S   0  0  0  0  0  0  0  0  0  0  0  0
    5.1255   -2.5751    1.6646 C   0  0  1  0  0  0  0  0  0  0  0  0
    4.7178   -1.0007    2.1068 C   0  0  2  0  0  0  0  0  0  0  0  0
    3.3696   -0.3321    2.5662 C   0  0  0  0  0  0  0  0  0  0  0  0
    5.7532   -0.1894    3.6578 Br  0  0  0  0  0  0  0  0  0  0  0  0
    4.5986   -3.4343    0.3765 C   0  0  2  0  0  0  0  0  0  0  0  0
    4.4657   -4.9924    0.6098 C   0  0  0  0  0  0  0  0  0  0  0  0
    4.8046   -3.4287   -3.0255 H   0  0  0  0  0  0  0  0  0  0  0  0
    3.5559   -4.0797   -2.0134 H   0  0  0  0  0  0  0  0  0  0  0  0
    5.0048   -5.0135   -2.3074 H   0  0  0  0  0  0  0  0  0  0  0  0
    7.0068   -1.4148    2.0817 H   0  0  0  0  0  0  0  0  0  0  0  0
    5.5556    0.2777    0.5774 H   0  0  0  0  0  0  0  0  0  0  0  0
    3.1049   -0.4515    0.0550 H   0  0  0  0  0  0  0  0  0  0  0  0
    2.6212   -2.9683   -0.5445 H   0  0  0  0  0  0  0  0  0  0  0  0
    2.4761   -0.5130    1.9750 H   0  0  0  0  0  0  0  0  0  0  0  0
    3.4621    0.7548    2.5801 H   0  0  0  0  0  0  0  0  0  0  0  0
    3.1078   -0.6340    3.5812 H   0  0  0  0  0  0  0  0  0  0  0  0
    3.9694   -5.3405    1.5131 H   0  0  0  0  0  0  0  0  0  0  0  0
    5.4527   -5.4649    0.5962 H   0  0  0  0  0  0  0  0  0  0  0  0
    3.8799   -5.4574   -0.1879 H   0  0  0  0  0  0  0  0  0  0  0  0
  1  2  1  0
  1 20  1  0
  1 21  1  0
  1 22  1  0
  2 18  1  0
  2  3  1  0
  3  4  2  0
  5  3  1  6
  5  6  2  0
  5  7  1  0
  7 14  1  0
  7  8  1  0
  7 23  1  1
  8 15  1  0
  8  9  1  0
  8 24  1  1
  9 10  1  0
  9 11  1  0
  9 25  1  1
 11 18  1  0
 11 12  1  0
 11 26  1  6
 12 13  1  0
 14 13  1  1
 14 15  1  0
 14 18  1  0
 15 16  1  0
 15 17  1  1
 16 27  1  0
 16 28  1  0
 16 29  1  0
 18 19  1  1
 19 30  1  0
 19 31  1  0
 19 32  1  0
M  END
>  <i_m_ct_stereo_status>  (107) 
1

>  <s_m_source_file>  (107) 
/var/tmp/pbs.5075288.sched01/tmpjyqx9nt_/132xb3bh5wq.sdf

>  <i_m_source_file_index>  (107) 
59

>  <i_lp_mmshare_version>  (107) 
48012

>  <i_f3d_flags>  (107) 
0

>  <s_epik_input>  (107) 
W08tXVtTK10xQyg9TylOKFtDSDNdKVtDQF0yKFtDSDNdKVtDQEBIXShTUzMpW0NASF0oQnIpW0NASF0oW0NASF0xW0NAQF0yMzQpW0NAQF00KEJyKVtDSDNd

>  <s_epik_cmdline>  (107) 
J2VwaWtfcHl0aG9uJywgJy1waHQnLCAnMi4wJywgJy1waCcsICc3LjAnLCAnLXRuJywgJzgnLCAnLW1hJywgJzIwMCcsICctaW1hZScsICc8aW5maWxlLm1hZT4nLCAnLW9tYWUnLCAnPG91dGZpbGUubWFlPic=

>  <r_lp_tautomer_probability>  (107) 
1

>  <r_epik_Ionization_Penalty>  (107) 
8.06435e-09

>  <r_epik_Ionization_Penalty_Charging>  (107) 
0

>  <r_epik_Ionization_Penalty_Neutral>  (107) 
8.06435e-09

>  <r_epik_State_Penalty>  (107) 
-0

>  <r_epik_Charging_Adjusted_Penalty>  (107) 
0

>  <i_epik_Tot_Q>  (107) 
0

>  <i_epik_Tot_abs_Q>  (107) 
2

>  <s_lp_Force_Field>  (107) 
OPLS3e

>  <r_lp_Energy>  (107) 
189.718

>  <b_lp_Chiralities_Consistent>  (107) 
1

>  <s_lp_Variant>  (107) 
72:0-1

>  <s_i_glide_gridfile>  (107) 
pfpi4k_grid

>  <i_i_glide_lignum>  (107) 
59

>  <i_i_glide_rotatable_bonds>  (107) 
0

>  <r_i_docking_score>  (107) 
-2.61147

>  <r_i_glide_ligand_efficiency>  (107) 
-0.137446

>  <r_i_glide_ligand_efficiency_sa>  (107) 
-0.366761

>  <r_i_glide_ligand_efficiency_ln>  (107) 
-0.662064

>  <r_i_glide_gscore>  (107) 
-2.61147

>  <r_i_glide_lipo>  (107) 
-0.5993

>  <r_i_glide_hbond>  (107) 
0

>  <r_i_glide_metal>  (107) 
-0

>  <r_i_glide_rewards>  (107) 
-0.666838

>  <r_i_glide_evdw>  (107) 
-22.9678

>  <r_i_glide_ecoul>  (107) 
-1.31295

>  <r_i_glide_erotb>  (107) 
0

>  <r_i_glide_esite>  (107) 
0

>  <r_i_glide_emodel>  (107) 
-27.926

>  <r_i_glide_energy>  (107) 
-24.2808

>  <r_i_glide_einternal>  (107) 
0

>  <r_i_glide_intrahb_reward>  (107) 
-0

>  <i_i_glide_confnum>  (107) 
1

>  <i_i_glide_posenum>  (107) 
3

>  <r_i_glide_eff_state_penalty>  (107) 
0

>  <ligand_id>  (107) 
72

>  <original_smiles>  (107) 
CN1C(=O)[S+]([O-])C2C3C(Br)C4SSC2(C3(C)Br)C41C

>  <smiles>  (107) 
[H]C([H])([H])N1C(=O)S(=O)C2([H])C3([H])C([H])(Br)C4([H])SSC2(C3(Br)C([H])([H])[H])C14C([H])([H])[H]

$$$$
72:0:1
     RDKit          3D

 32 35  0  0  1  0  0  0  0  0999 V2000
    3.5758   -4.9486    4.0015 C   0  0  0  0  0  0  0  0  0  0  0  0
    4.5101   -4.7614    2.8735 N   0  0  0  0  0  0  0  0  0  0  0  0
    5.3399   -5.8145    2.5669 C   0  0  0  0  0  0  0  0  0  0  0  0
    5.2707   -6.9035    3.1399 O   0  0  0  0  0  0  0  0  0  0  0  0
    6.5829   -5.7276    1.3261 S   0  0  0  0  0  0  0  0  0  0  0  0
    7.7588   -5.0756    2.0698 O   0  0  0  0  0  0  0  0  0  0  0  0
    5.9067   -4.4153    0.2257 C   0  0  1  0  0  0  0  0  0  0  0  0
    4.3872   -4.5326   -0.2764 C   0  0  1  0  0  0  0  0  0  0  0  0
    3.0485   -4.1964    0.5512 C   0  0  1  0  0  0  0  0  0  0  0  0
    2.1632   -5.8763    1.1742 Br  0  0  0  0  0  0  0  0  0  0  0  0
    3.2461   -3.0586    1.6975 C   0  0  2  0  0  0  0  0  0  0  0  0
    3.5927   -1.2516    1.2689 S   0  0  0  0  0  0  0  0  0  0  0  0
    5.6287   -1.3480    0.8047 S   0  0  0  0  0  0  0  0  0  0  0  0
    5.3839   -3.1286    0.8390 C   0  0  1  0  0  0  0  0  0  0  0  0
    4.7633   -3.1722   -0.7310 C   0  0  2  0  0  0  0  0  0  0  0  0
    3.6909   -2.2997   -1.4812 C   0  0  0  0  0  0  0  0  0  0  0  0
    6.0824   -3.0583   -2.2790 Br  0  0  0  0  0  0  0  0  0  0  0  0
    4.5966   -3.4024    2.2390 C   0  0  2  0  0  0  0  0  0  0  0  0
    5.0960   -2.5497    3.4715 C   0  0  0  0  0  0  0  0  0  0  0  0
    3.0620   -5.9129    3.9511 H   0  0  0  0  0  0  0  0  0  0  0  0
    2.7886   -4.1994    4.0867 H   0  0  0  0  0  0  0  0  0  0  0  0
    4.1199   -4.9304    4.9500 H   0  0  0  0  0  0  0  0  0  0  0  0
    6.7700   -4.3448   -0.4240 H   0  0  0  0  0  0  0  0  0  0  0  0
    4.2669   -5.2305   -1.1007 H   0  0  0  0  0  0  0  0  0  0  0  0
    2.2786   -3.8632   -0.1282 H   0  0  0  0  0  0  0  0  0  0  0  0
    2.4055   -3.0447    2.3923 H   0  0  0  0  0  0  0  0  0  0  0  0
    2.7402   -2.1191   -0.9926 H   0  0  0  0  0  0  0  0  0  0  0  0
    3.4064   -2.7629   -2.4276 H   0  0  0  0  0  0  0  0  0  0  0  0
    4.0758   -1.3088   -1.7233 H   0  0  0  0  0  0  0  0  0  0  0  0
    5.2856   -1.4802    3.3368 H   0  0  0  0  0  0  0  0  0  0  0  0
    6.0141   -2.9734    3.8681 H   0  0  0  0  0  0  0  0  0  0  0  0
    4.3834   -2.5698    4.2966 H   0  0  0  0  0  0  0  0  0  0  0  0
  1  2  1  0
  1 20  1  0
  1 21  1  0
  1 22  1  0
  2 18  1  0
  2  3  1  0
  3  4  2  0
  5  3  1  1
  5  6  2  0
  5  7  1  0
  7 14  1  0
  7  8  1  0
  7 23  1  6
  8 15  1  0
  8  9  1  0
  8 24  1  6
  9 10  1  0
  9 11  1  0
  9 25  1  6
 11 18  1  0
 11 12  1  0
 11 26  1  1
 12 13  1  0
 14 13  1  1
 14 15  1  0
 14 18  1  0
 15 16  1  0
 15 17  1  6
 16 27  1  0
 16 28  1  0
 16 29  1  0
 18 19  1  1
 19 30  1  0
 19 31  1  0
 19 32  1  0
M  END
>  <i_m_ct_stereo_status>  (108) 
1

>  <s_m_source_file>  (108) 
/var/tmp/pbs.5075288.sched01/tmpjyqx9nt_/132xb3bh5wq.sdf

>  <i_m_source_file_index>  (108) 
59

>  <i_lp_mmshare_version>  (108) 
48012

>  <i_f3d_flags>  (108) 
0

>  <s_epik_input>  (108) 
W08tXVtTK10xQyg9TylOKFtDSDNdKVtDQF0yKFtDSDNdKVtDQEBIXShTUzMpW0NASF0oQnIpW0NASF0oW0NASF0xW0NAQF0yMzQpW0NAQF00KEJyKVtDSDNd

>  <s_epik_cmdline>  (108) 
J2VwaWtfcHl0aG9uJywgJy1waHQnLCAnMi4wJywgJy1waCcsICc3LjAnLCAnLXRuJywgJzgnLCAnLW1hJywgJzIwMCcsICctaW1hZScsICc8aW5maWxlLm1hZT4nLCAnLW9tYWUnLCAnPG91dGZpbGUubWFlPic=

>  <r_lp_tautomer_probability>  (108) 
1

>  <r_epik_Ionization_Penalty>  (108) 
8.06435e-09

>  <r_epik_Ionization_Penalty_Charging>  (108) 
0

>  <r_epik_Ionization_Penalty_Neutral>  (108) 
8.06435e-09

>  <r_epik_State_Penalty>  (108) 
-0

>  <r_epik_Charging_Adjusted_Penalty>  (108) 
0

>  <i_epik_Tot_Q>  (108) 
0

>  <i_epik_Tot_abs_Q>  (108) 
2

>  <s_lp_Force_Field>  (108) 
OPLS3e

>  <r_lp_Energy>  (108) 
189.718

>  <b_lp_Chiralities_Consistent>  (108) 
1

>  <s_lp_Variant>  (108) 
72:0-1

>  <s_i_glide_gridfile>  (108) 
pfpi4k_grid

>  <i_i_glide_lignum>  (108) 
59

>  <i_i_glide_rotatable_bonds>  (108) 
0

>  <r_i_docking_score>  (108) 
-2.38189

>  <r_i_glide_ligand_efficiency>  (108) 
-0.125363

>  <r_i_glide_ligand_efficiency_sa>  (108) 
-0.334518

>  <r_i_glide_ligand_efficiency_ln>  (108) 
-0.60386

>  <r_i_glide_gscore>  (108) 
-2.38189

>  <r_i_glide_lipo>  (108) 
-0.529175

>  <r_i_glide_hbond>  (108) 
0

>  <r_i_glide_metal>  (108) 
-0

>  <r_i_glide_rewards>  (108) 
-0.497526

>  <r_i_glide_evdw>  (108) 
-21.6233

>  <r_i_glide_ecoul>  (108) 
-1.82683

>  <r_i_glide_erotb>  (108) 
0

>  <r_i_glide_esite>  (108) 
0

>  <r_i_glide_emodel>  (108) 
-26.8011

>  <r_i_glide_energy>  (108) 
-23.4501

>  <r_i_glide_einternal>  (108) 
0

>  <r_i_glide_intrahb_reward>  (108) 
-0

>  <i_i_glide_confnum>  (108) 
1

>  <i_i_glide_posenum>  (108) 
1

>  <r_i_glide_eff_state_penalty>  (108) 
0

>  <ligand_id>  (108) 
72

>  <original_smiles>  (108) 
CN1C(=O)[S+]([O-])C2C3C(Br)C4SSC2(C3(C)Br)C41C

>  <smiles>  (108) 
[H]C([H])([H])N1C(=O)S(=O)C2([H])C3([H])C([H])(Br)C4([H])SSC2(C3(Br)C([H])([H])[H])C14C([H])([H])[H]

$$$$
72:0:2
     RDKit          3D

 32 35  0  0  1  0  0  0  0  0999 V2000
    6.0441   -0.3823    2.6424 C   0  0  0  0  0  0  0  0  0  0  0  0
    5.4141   -1.7122    2.4915 N   0  0  0  0  0  0  0  0  0  0  0  0
    4.9458   -2.3103    3.6454 C   0  0  0  0  0  0  0  0  0  0  0  0
    5.0142   -1.7737    4.7641 O   0  0  0  0  0  0  0  0  0  0  0  0
    4.2766   -3.9437    3.6644 S   0  0  0  0  0  0  0  0  0  0  0  0
    5.5353   -4.8166    3.6661 O   0  0  0  0  0  0  0  0  0  0  0  0
    3.6134   -4.0452    1.9350 C   0  0  1  0  0  0  0  0  0  0  0  0
    2.7074   -2.8315    1.3787 C   0  0  1  0  0  0  0  0  0  0  0  0
    3.2161   -1.3957    0.8522 C   0  0  1  0  0  0  0  0  0  0  0  0
    2.8557    0.0273    2.2286 Br  0  0  0  0  0  0  0  0  0  0  0  0
    4.7089   -1.3987    0.2158 C   0  0  2  0  0  0  0  0  0  0  0  0
    5.0922   -2.2457   -1.4095 S   0  0  0  0  0  0  0  0  0  0  0  0
    5.1794   -4.2593   -0.7551 S   0  0  0  0  0  0  0  0  0  0  0  0
    4.4892   -3.6404    0.7677 C   0  0  1  0  0  0  0  0  0  0  0  0
    2.9186   -3.6682    0.1636 C   0  0  2  0  0  0  0  0  0  0  0  0
    2.3000   -3.2100   -1.2021 C   0  0  0  0  0  0  0  0  0  0  0  0
    1.9432   -5.4574    0.1217 Br  0  0  0  0  0  0  0  0  0  0  0  0
    5.4224   -2.3385    1.1249 C   0  0  2  0  0  0  0  0  0  0  0  0
    6.9637   -2.5350    0.8874 C   0  0  0  0  0  0  0  0  0  0  0  0
    5.4964    0.2829    3.3171 H   0  0  0  0  0  0  0  0  0  0  0  0
    6.1738    0.1456    1.7094 H   0  0  0  0  0  0  0  0  0  0  0  0
    7.0356   -0.4927    3.0517 H   0  0  0  0  0  0  0  0  0  0  0  0
    3.2827   -5.0763    2.0227 H   0  0  0  0  0  0  0  0  0  0  0  0
    1.6755   -2.8478    1.7415 H   0  0  0  0  0  0  0  0  0  0  0  0
    2.6365   -1.0011    0.0389 H   0  0  0  0  0  0  0  0  0  0  0  0
    5.0773   -0.3810    0.0973 H   0  0  0  0  0  0  0  0  0  0  0  0
    2.5551   -2.2137   -1.5570 H   0  0  0  0  0  0  0  0  0  0  0  0
    1.2155   -3.2064   -1.1737 H   0  0  0  0  0  0  0  0  0  0  0  0
    2.5700   -3.8698   -2.0199 H   0  0  0  0  0  0  0  0  0  0  0  0
    7.2792   -2.9687   -0.0525 H   0  0  0  0  0  0  0  0  0  0  0  0
    7.3784   -3.1507    1.6779 H   0  0  0  0  0  0  0  0  0  0  0  0
    7.4726   -1.5669    0.8978 H   0  0  0  0  0  0  0  0  0  0  0  0
  1  2  1  0
  1 20  1  0
  1 21  1  0
  1 22  1  0
  2 18  1  0
  2  3  1  0
  3  4  2  0
  5  3  1  6
  5  6  2  0
  5  7  1  0
  7 14  1  0
  7  8  1  0
  7 23  1  6
  8 15  1  0
  8  9  1  0
  8 24  1  1
  9 10  1  0
  9 11  1  0
  9 25  1  6
 11 18  1  0
 11 12  1  0
 11 26  1  6
 12 13  1  0
 14 13  1  6
 14 15  1  0
 14 18  1  0
 15 16  1  0
 15 17  1  1
 16 27  1  0
 16 28  1  0
 16 29  1  0
 18 19  1  6
 19 30  1  0
 19 31  1  0
 19 32  1  0
M  END
>  <i_m_ct_stereo_status>  (109) 
1

>  <s_m_source_file>  (109) 
/var/tmp/pbs.5075288.sched01/tmpjyqx9nt_/132xb3bh5wq.sdf

>  <i_m_source_file_index>  (109) 
59

>  <i_lp_mmshare_version>  (109) 
48012

>  <i_f3d_flags>  (109) 
0

>  <s_epik_input>  (109) 
W08tXVtTK10xQyg9TylOKFtDSDNdKVtDQF0yKFtDSDNdKVtDQEBIXShTUzMpW0NASF0oQnIpW0NASF0oW0NASF0xW0NAQF0yMzQpW0NAQF00KEJyKVtDSDNd

>  <s_epik_cmdline>  (109) 
J2VwaWtfcHl0aG9uJywgJy1waHQnLCAnMi4wJywgJy1waCcsICc3LjAnLCAnLXRuJywgJzgnLCAnLW1hJywgJzIwMCcsICctaW1hZScsICc8aW5maWxlLm1hZT4nLCAnLW9tYWUnLCAnPG91dGZpbGUubWFlPic=

>  <r_lp_tautomer_probability>  (109) 
1

>  <r_epik_Ionization_Penalty>  (109) 
8.06435e-09

>  <r_epik_Ionization_Penalty_Charging>  (109) 
0

>  <r_epik_Ionization_Penalty_Neutral>  (109) 
8.06435e-09

>  <r_epik_State_Penalty>  (109) 
-0

>  <r_epik_Charging_Adjusted_Penalty>  (109) 
0

>  <i_epik_Tot_Q>  (109) 
0

>  <i_epik_Tot_abs_Q>  (109) 
2

>  <s_lp_Force_Field>  (109) 
OPLS3e

>  <r_lp_Energy>  (109) 
189.718

>  <b_lp_Chiralities_Consistent>  (109) 
1

>  <s_lp_Variant>  (109) 
72:0-1

>  <s_i_glide_gridfile>  (109) 
pfpi4k_grid

>  <i_i_glide_lignum>  (109) 
59

>  <i_i_glide_rotatable_bonds>  (109) 
0

>  <r_i_docking_score>  (109) 
-2.21708

>  <r_i_glide_ligand_efficiency>  (109) 
-0.116689

>  <r_i_glide_ligand_efficiency_sa>  (109) 
-0.311372

>  <r_i_glide_ligand_efficiency_ln>  (109) 
-0.562078

>  <r_i_glide_gscore>  (109) 
-2.21708

>  <r_i_glide_lipo>  (109) 
-0.230955

>  <r_i_glide_hbond>  (109) 
0

>  <r_i_glide_metal>  (109) 
-0

>  <r_i_glide_rewards>  (109) 
-0.55351

>  <r_i_glide_evdw>  (109) 
-17.5064

>  <r_i_glide_ecoul>  (109) 
-3.71533

>  <r_i_glide_erotb>  (109) 
0

>  <r_i_glide_esite>  (109) 
0

>  <r_i_glide_emodel>  (109) 
-23.9381

>  <r_i_glide_energy>  (109) 
-21.2217

>  <r_i_glide_einternal>  (109) 
0

>  <r_i_glide_intrahb_reward>  (109) 
-0

>  <i_i_glide_confnum>  (109) 
1

>  <i_i_glide_posenum>  (109) 
2

>  <r_i_glide_eff_state_penalty>  (109) 
0

>  <ligand_id>  (109) 
72

>  <original_smiles>  (109) 
CN1C(=O)[S+]([O-])C2C3C(Br)C4SSC2(C3(C)Br)C41C

>  <smiles>  (109) 
[H]C([H])([H])N1C(=O)S(=O)C2([H])C3([H])C([H])(Br)C4([H])SSC2(C3(Br)C([H])([H])[H])C14C([H])([H])[H]

$$$$
79:0:0
     RDKit          3D

 99108  0  0  1  0  0  0  0  0999 V2000
   -2.4009    2.6986    6.7303 C   0  0  0  0  0  0  0  0  0  0  0  0
   -2.1673    1.3171    6.4869 O   0  0  0  0  0  0  0  0  0  0  0  0
   -1.8093    1.0152    5.1700 C   0  0  2  0  0  0  0  0  0  0  0  0
   -1.9298   -0.5545    5.0206 C   0  0  0  0  0  0  0  0  0  0  0  0
   -0.9945   -1.1474    4.0940 O   0  0  0  0  0  0  0  0  0  0  0  0
    0.3156   -0.5859    4.1148 C   0  0  2  0  0  0  0  0  0  0  0  0
   -0.0550    0.8488    3.7104 C   0  0  1  0  0  0  0  0  0  0  0  0
   -0.5145    1.5093    4.8691 O   0  0  0  0  0  0  0  0  0  0  0  0
    1.3029    0.9900    2.9915 C   0  0  1  0  0  0  0  0  0  0  0  0
    1.2414    1.7560    1.8080 O   0  0  0  0  0  0  0  0  0  0  0  0
    2.6095    1.3313    3.7088 C   0  0  0  0  0  0  0  0  0  0  0  0
    3.1903    0.1596    4.2854 O   0  0  0  0  0  0  0  0  0  0  0  0
    3.2927   -1.0104    3.5128 C   0  0  2  0  0  0  0  0  0  0  0  0
    4.5900   -0.7925    2.6903 C   0  0  0  0  0  0  0  0  0  0  0  0
    2.2722   -1.2084    2.5832 O   0  0  0  0  0  0  0  0  0  0  0  0
    1.0551   -0.5104    2.7501 C   0  0  1  0  0  0  0  0  0  0  0  0
    3.2528   -2.2830    4.4705 C   0  0  2  0  0  0  0  0  0  0  0  0
    3.8089   -3.5528    3.6856 C   0  0  1  0  0  0  0  0  0  0  0  0
    5.2260   -3.4085    3.7128 O   0  0  0  0  0  0  0  0  0  0  0  0
    3.4136   -5.0825    4.0947 C   0  0  2  0  0  0  0  0  0  0  0  0
    3.8844   -4.9583    5.4434 O   0  0  0  0  0  0  0  0  0  0  0  0
    4.1880   -6.2320    3.5244 C   0  0  2  0  0  0  0  0  0  0  0  0
    5.5957   -6.0046    3.6313 O   0  0  0  0  0  0  0  0  0  0  0  0
    6.4366   -6.7486    2.7580 C   0  0  0  0  0  0  0  0  0  0  0  0
    3.6647   -5.9260    2.0966 C   0  0  0  0  0  0  0  0  0  0  0  0
    2.4534   -5.3253    2.1220 C   0  0  0  0  0  0  0  0  0  0  0  0
    1.9270   -5.5987    3.4951 C   0  0  2  0  0  0  0  0  0  0  0  0
    0.9917   -4.9625    4.4933 C   0  0  2  0  0  0  0  0  0  0  0  0
    0.8604   -3.4291    4.7028 C   0  0  0  0  0  0  0  0  0  0  0  0
    1.8805   -2.3997    5.3012 C   0  0  1  0  0  0  0  0  0  0  0  0
    2.1947   -2.8085    6.7815 C   0  0  0  0  0  0  0  0  0  0  0  0
    1.1112   -1.0115    5.4074 C   0  0  1  0  0  0  0  0  0  0  0  0
    1.5383    0.0377    6.4379 C   0  0  0  0  0  0  0  0  0  0  0  0
    0.4039   -0.7968    6.6525 O   0  0  0  0  0  0  0  0  0  0  0  0
    1.4317   -6.0642    5.9925 S   0  0  0  0  0  0  0  0  0  0  0  0
    0.3092   -6.3706    6.9873 O   0  0  0  0  0  0  0  0  0  0  0  0
    2.2499   -7.6404    5.2613 C   0  0  2  0  0  0  0  0  0  0  0  0
    3.7415   -7.4364    4.5462 C   0  0  1  0  0  0  0  0  0  0  0  0
    4.4405   -8.6303    4.2538 O   0  0  0  0  0  0  0  0  0  0  0  0
    1.1246   -8.5746    4.6043 C   0  0  2  0  0  0  0  0  0  0  0  0
    0.5376   -9.5514    5.6498 C   0  0  0  0  0  0  0  0  0  0  0  0
    1.7524   -9.3550    3.4453 C   0  0  0  0  0  0  0  0  0  0  0  0
    1.8711   -8.2596    2.3613 C   0  0  0  0  0  0  0  0  0  0  0  0
    1.0672   -6.9697    2.9086 C   0  0  2  0  0  0  0  0  0  0  0  0
    0.1371   -6.3760    1.9647 O   0  0  0  0  0  0  0  0  0  0  0  0
    0.0569   -6.8274    0.6159 C   0  0  0  0  0  0  0  0  0  0  0  0
    0.0318   -7.7971    3.7929 C   0  0  0  0  0  0  0  0  0  0  0  0
   -0.8932   -8.7577    2.9151 C   0  0  0  0  0  0  0  0  0  0  0  0
   -1.1966   -7.1595    4.5425 C   0  0  0  0  0  0  0  0  0  0  0  0
   -2.6933    2.8490    7.7702 H   0  0  0  0  0  0  0  0  0  0  0  0
   -3.2086    3.0799    6.1062 H   0  0  0  0  0  0  0  0  0  0  0  0
   -1.5061    3.2921    6.5480 H   0  0  0  0  0  0  0  0  0  0  0  0
   -2.5168    1.5008    4.4855 H   0  0  0  0  0  0  0  0  0  0  0  0
   -1.8176   -1.0131    5.9972 H   0  0  0  0  0  0  0  0  0  0  0  0
   -2.9516   -0.7818    4.7177 H   0  0  0  0  0  0  0  0  0  0  0  0
   -0.8408    0.8953    2.9368 H   0  0  0  0  0  0  0  0  0  0  0  0
    0.8337    2.5875    2.0039 H   0  0  0  0  0  0  0  0  0  0  0  0
    3.3262    1.7881    3.0305 H   0  0  0  0  0  0  0  0  0  0  0  0
    2.4527    2.0738    4.4902 H   0  0  0  0  0  0  0  0  0  0  0  0
    4.5279    0.1298    2.1159 H   0  0  0  0  0  0  0  0  0  0  0  0
    4.7528   -1.5905    1.9698 H   0  0  0  0  0  0  0  0  0  0  0  0
    5.4565   -0.7231    3.3511 H   0  0  0  0  0  0  0  0  0  0  0  0
    0.4023   -0.6720    1.8892 H   0  0  0  0  0  0  0  0  0  0  0  0
    4.0107   -2.0580    5.2230 H   0  0  0  0  0  0  0  0  0  0  0  0
    3.6019   -3.3507    2.6377 H   0  0  0  0  0  0  0  0  0  0  0  0
    5.6080   -4.1271    3.2293 H   0  0  0  0  0  0  0  0  0  0  0  0
    3.8334   -5.7865    5.8846 H   0  0  0  0  0  0  0  0  0  0  0  0
    7.4527   -6.7388    3.1539 H   0  0  0  0  0  0  0  0  0  0  0  0
    6.4630   -6.2927    1.7683 H   0  0  0  0  0  0  0  0  0  0  0  0
    6.1403   -7.7912    2.6446 H   0  0  0  0  0  0  0  0  0  0  0  0
    4.2848   -5.9764    1.2164 H   0  0  0  0  0  0  0  0  0  0  0  0
    1.9156   -4.8735    1.3057 H   0  0  0  0  0  0  0  0  0  0  0  0
    0.0042   -5.1420    4.1051 H   0  0  0  0  0  0  0  0  0  0  0  0
    0.5972   -3.0753    3.7067 H   0  0  0  0  0  0  0  0  0  0  0  0
   -0.0433   -3.3184    5.3034 H   0  0  0  0  0  0  0  0  0  0  0  0
    1.3112   -2.7861    7.4157 H   0  0  0  0  0  0  0  0  0  0  0  0
    2.9404   -2.1613    7.2359 H   0  0  0  0  0  0  0  0  0  0  0  0
    2.5661   -3.8050    6.9268 H   0  0  0  0  0  0  0  0  0  0  0  0
    2.4059   -0.1378    7.0693 H   0  0  0  0  0  0  0  0  0  0  0  0
    1.3012    1.0826    6.2743 H   0  0  0  0  0  0  0  0  0  0  0  0
    2.5233   -8.1919    6.1592 H   0  0  0  0  0  0  0  0  0  0  0  0
    4.3377   -7.2398    5.4365 H   0  0  0  0  0  0  0  0  0  0  0  0
    4.0066   -9.0763    3.5440 H   0  0  0  0  0  0  0  0  0  0  0  0
   -0.1795  -10.2452    5.2126 H   0  0  0  0  0  0  0  0  0  0  0  0
    0.0296   -9.0220    6.4544 H   0  0  0  0  0  0  0  0  0  0  0  0
    1.3192  -10.1635    6.1026 H   0  0  0  0  0  0  0  0  0  0  0  0
    2.6466   -9.9134    3.6827 H   0  0  0  0  0  0  0  0  0  0  0  0
    1.1237  -10.1815    3.1160 H   0  0  0  0  0  0  0  0  0  0  0  0
    2.9126   -8.1543    2.0986 H   0  0  0  0  0  0  0  0  0  0  0  0
    1.4636   -8.6803    1.4452 H   0  0  0  0  0  0  0  0  0  0  0  0
   -0.5686   -6.1190    0.0871 H   0  0  0  0  0  0  0  0  0  0  0  0
   -0.4376   -7.7900    0.5145 H   0  0  0  0  0  0  0  0  0  0  0  0
    1.0227   -6.8690    0.1150 H   0  0  0  0  0  0  0  0  0  0  0  0
   -1.6838   -8.2139    2.3979 H   0  0  0  0  0  0  0  0  0  0  0  0
   -1.4022   -9.4960    3.5318 H   0  0  0  0  0  0  0  0  0  0  0  0
   -0.4377   -9.3289    2.1129 H   0  0  0  0  0  0  0  0  0  0  0  0
   -1.8855   -6.6854    3.8449 H   0  0  0  0  0  0  0  0  0  0  0  0
   -1.0720   -6.4060    5.2936 H   0  0  0  0  0  0  0  0  0  0  0  0
   -1.7616   -7.9445    5.0424 H   0  0  0  0  0  0  0  0  0  0  0  0
  1  2  1  0
  1 50  1  0
  1 51  1  0
  1 52  1  0
  2  3  1  0
  3  8  1  0
  3  4  1  0
  3 53  1  6
  4  5  1  0
  4 54  1  0
  4 55  1  0
  6  5  1  6
  6 16  1  0
  6 32  1  0
  6  7  1  0
  7  8  1  0
  7  9  1  0
  7 56  1  6
  9 16  1  0
  9 10  1  6
  9 11  1  0
 10 57  1  0
 11 12  1  0
 11 58  1  0
 11 59  1  0
 12 13  1  0
 13 14  1  6
 13 15  1  0
 13 17  1  0
 14 60  1  0
 14 61  1  0
 14 62  1  0
 15 16  1  0
 16 63  1  6
 17 30  1  0
 17 18  1  0
 17 64  1  1
 18 19  1  0
 18 20  1  0
 18 65  1  6
 19 66  1  0
 20 27  1  0
 20 21  1  1
 20 22  1  0
 21 67  1  0
 22 38  1  0
 22 23  1  6
 22 25  1  0
 23 24  1  0
 24 68  1  0
 24 69  1  0
 24 70  1  0
 25 26  2  0
 25 71  1  0
 27 26  1  6
 26 72  1  0
 27 44  1  0
 27 28  1  0
 28 29  1  0
 35 28  1  6
 28 73  1  6
 29 30  1  0
 29 74  1  0
 29 75  1  0
 30 31  1  1
 30 32  1  0
 31 76  1  0
 31 77  1  0
 31 78  1  0
 32 34  1  1
 32 33  1  0
 33 34  1  0
 33 79  1  0
 33 80  1  0
 35 36  2  0
 35 37  1  0
 37 38  1  0
 37 40  1  0
 37 81  1  1
 38 39  1  0
 38 82  1  1
 39 83  1  0
 40 47  1  0
 40 41  1  1
 40 42  1  0
 41 84  1  0
 41 85  1  0
 41 86  1  0
 42 43  1  0
 42 87  1  0
 42 88  1  0
 43 44  1  0
 43 89  1  0
 43 90  1  0
 44 45  1  6
 44 47  1  0
 45 46  1  0
 46 91  1  0
 46 92  1  0
 46 93  1  0
 47 48  1  0
 47 49  1  0
 48 94  1  0
 48 95  1  0
 48 96  1  0
 49 97  1  0
 49 98  1  0
 49 99  1  0
M  END
>  <i_m_ct_stereo_status>  (110) 
1

>  <s_m_source_file>  (110) 
/var/tmp/pbs.5075288.sched01/tmpd529dnjr/198klec4xt1.sdf

>  <i_m_source_file_index>  (110) 
9

>  <i_lp_mmshare_version>  (110) 
48012

>  <i_f3d_flags>  (110) 
0

>  <s_epik_input>  (110) 
W0NIM11PW0NASF0oW0NIMl1PMSlPW0NASF0yW0NAXShbT0hdKShbQ0BIXTNPNClbQ0gyXU9bQ0BAXTQoW0NIM10pW0NAQEhdKFtDQEBdNShbQ0gzXSlbQ0BdNihbQ0BAXTEyMylbQ0gyXU82KVtDQEBIXShbT0hdKVtDQEBdNyhbT0hdKVtDQEBdODlbQ0BIXShbQ0gyXTUpW1MrXShbTy1dKVtDQEhdKFtDQEBIXShbT0hdKVtDQEBdNyhPW0NIM10pW0NIXT1bQ0hdOClbQ0BdMShbQ0gzXSlbQ0gyXVtDSDJdW0NAQF05KE9bQ0gzXSlDMShbQ0gzXSlbQ0gzXQ==

>  <s_epik_cmdline>  (110) 
J2VwaWtfcHl0aG9uJywgJy1waHQnLCAnMi4wJywgJy1waCcsICc3LjAnLCAnLXRuJywgJzgnLCAnLW1hJywgJzIwMCcsICctaW1hZScsICc8aW5maWxlLm1hZT4nLCAnLW9tYWUnLCAnPG91dGZpbGUubWFlPic=

>  <r_lp_tautomer_probability>  (110) 
1

>  <r_epik_Ionization_Penalty>  (110) 
5.99612e-06

>  <r_epik_Ionization_Penalty_Charging>  (110) 
0

>  <r_epik_Ionization_Penalty_Neutral>  (110) 
5.99612e-06

>  <r_epik_State_Penalty>  (110) 
-0

>  <r_epik_Charging_Adjusted_Penalty>  (110) 
0

>  <i_epik_Tot_Q>  (110) 
0

>  <i_epik_Tot_abs_Q>  (110) 
2

>  <s_epik_Chemistry_Notes>  (110) 
This compound contains an acetal/aminal-like group ( X-CH(R)-Y where X, Y are N, S, or O) that may be acid/base labile, releasing an aldehyde.

>  <s_lp_Force_Field>  (110) 
OPLS3e

>  <r_lp_Energy>  (110) 
368.02

>  <b_lp_Chiralities_Consistent>  (110) 
1

>  <s_lp_Variant>  (110) 
79:0-1

>  <s_i_glide_gridfile>  (110) 
pfpi4k_grid

>  <i_i_glide_lignum>  (110) 
9

>  <i_i_glide_rotatable_bonds>  (110) 
7

>  <r_i_docking_score>  (110) 
-3.76449

>  <r_i_glide_ligand_efficiency>  (110) 
-0.0768264

>  <r_i_glide_ligand_efficiency_sa>  (110) 
-0.281131

>  <r_i_glide_ligand_efficiency_ln>  (110) 
-0.769548

>  <r_i_glide_gscore>  (110) 
-3.76449

>  <r_i_glide_lipo>  (110) 
-0.249297

>  <r_i_glide_hbond>  (110) 
-0.276048

>  <r_i_glide_metal>  (110) 
-0

>  <r_i_glide_rewards>  (110) 
-0.502239

>  <r_i_glide_evdw>  (110) 
-33.0407

>  <r_i_glide_ecoul>  (110) 
-6.99811

>  <r_i_glide_erotb>  (110) 
0

>  <r_i_glide_esite>  (110) 
-0.0351555

>  <r_i_glide_emodel>  (110) 
-54.2131

>  <r_i_glide_energy>  (110) 
-40.0388

>  <r_i_glide_einternal>  (110) 
1.49117

>  <r_i_glide_intrahb_reward>  (110) 
-0.5

>  <i_i_glide_confnum>  (110) 
1

>  <i_i_glide_posenum>  (110) 
36

>  <r_i_glide_eff_state_penalty>  (110) 
0

>  <ligand_id>  (110) 
79

>  <original_smiles>  (110) 
COC1COC23C(O1)C1(O)COC(C)(OC12)C1C(O)C2(O)C4(OC)C=CC25C(CC1(C)C31CO1)[S+]([O-])C(C4O)C1(C)CCC5(OC)C1(C)C

>  <smiles>  (110) 
[H]OC1([H])C2(OC([H])([H])[H])C([H])=C([H])C34C([H])(S(=O)C1([H])C1(C([H])([H])[H])C([H])([H])C([H])([H])C3(OC([H])([H])[H])C1(C([H])([H])[H])C([H])([H])[H])C([H])([H])C1(C([H])([H])[H])C([H])(C([H])(O[H])C24O[H])C2(C([H])([H])[H])OC([H])([H])C3(O[H])C4([H])OC([H])(OC([H])([H])[H])C([H])([H])OC4(C3([H])O2)C12OC2([H])[H]

$$$$
79:0:1
     RDKit          3D

 99108  0  0  1  0  0  0  0  0999 V2000
    2.7467    3.0745    4.0319 C   0  0  0  0  0  0  0  0  0  0  0  0
    2.3706    1.7140    4.1880 O   0  0  0  0  0  0  0  0  0  0  0  0
    2.2064    1.0076    2.9931 C   0  0  2  0  0  0  0  0  0  0  0  0
    1.4066   -0.3231    3.3423 C   0  0  0  0  0  0  0  0  0  0  0  0
    1.7507   -1.4679    2.5388 O   0  0  0  0  0  0  0  0  0  0  0  0
    3.1419   -1.5891    2.2393 C   0  0  2  0  0  0  0  0  0  0  0  0
    3.3009   -0.2907    1.4310 C   0  0  1  0  0  0  0  0  0  0  0  0
    3.4501    0.7380    2.3822 O   0  0  0  0  0  0  0  0  0  0  0  0
    4.3983   -1.0082    0.5951 C   0  0  1  0  0  0  0  0  0  0  0  0
    4.4199   -0.7131   -0.7834 O   0  0  0  0  0  0  0  0  0  0  0  0
    5.8598   -1.1174    0.9957 C   0  0  0  0  0  0  0  0  0  0  0  0
    6.0170   -2.2580    1.8361 O   0  0  0  0  0  0  0  0  0  0  0  0
    5.4411   -3.4740    1.4531 C   0  0  2  0  0  0  0  0  0  0  0  0
    6.4775   -4.0666    0.4548 C   0  0  0  0  0  0  0  0  0  0  0  0
    4.2281   -3.3863    0.7720 O   0  0  0  0  0  0  0  0  0  0  0  0
    3.4715   -2.1992    0.8545 C   0  0  1  0  0  0  0  0  0  0  0  0
    5.1295   -4.3407    2.7519 C   0  0  2  0  0  0  0  0  0  0  0  0
    4.9017   -5.8482    2.3243 C   0  0  1  0  0  0  0  0  0  0  0  0
    6.2096   -6.3754    2.1310 O   0  0  0  0  0  0  0  0  0  0  0  0
    4.0485   -6.8805    3.2549 C   0  0  2  0  0  0  0  0  0  0  0  0
    4.8346   -6.7149    4.4305 O   0  0  0  0  0  0  0  0  0  0  0  0
    4.1068   -8.3611    2.9577 C   0  0  2  0  0  0  0  0  0  0  0  0
    5.4601   -8.7825    2.7924 O   0  0  0  0  0  0  0  0  0  0  0  0
    5.6547  -10.0142    2.1069 C   0  0  0  0  0  0  0  0  0  0  0  0
    3.4170   -8.1637    1.5975 C   0  0  0  0  0  0  0  0  0  0  0  0
    2.6216   -7.0594    1.5977 C   0  0  0  0  0  0  0  0  0  0  0  0
    2.3863   -6.7559    3.0291 C   0  0  2  0  0  0  0  0  0  0  0  0
    2.0535   -5.5569    3.8619 C   0  0  2  0  0  0  0  0  0  0  0  0
    2.6165   -4.1450    3.6053 C   0  0  0  0  0  0  0  0  0  0  0  0
    4.0754   -3.5980    3.7213 C   0  0  1  0  0  0  0  0  0  0  0  0
    4.5525   -3.7719    5.2086 C   0  0  0  0  0  0  0  0  0  0  0  0
    3.9951   -2.0455    3.5077 C   0  0  1  0  0  0  0  0  0  0  0  0
    5.0389   -1.1227    4.1356 C   0  0  0  0  0  0  0  0  0  0  0  0
    3.7443   -1.2421    4.6888 O   0  0  0  0  0  0  0  0  0  0  0  0
    2.3452   -6.3949    5.5462 S   0  0  0  0  0  0  0  0  0  0  0  0
    1.5011   -5.9165    6.7396 O   0  0  0  0  0  0  0  0  0  0  0  0
    2.2430   -8.2884    5.2520 C   0  0  2  0  0  0  0  0  0  0  0  0
    3.4693   -8.9559    4.3438 C   0  0  1  0  0  0  0  0  0  0  0  0
    3.5048  -10.3706    4.3409 O   0  0  0  0  0  0  0  0  0  0  0  0
    0.7141   -8.7073    5.0570 C   0  0  2  0  0  0  0  0  0  0  0  0
    0.0456   -9.0470    6.4123 C   0  0  0  0  0  0  0  0  0  0  0  0
    0.6617   -9.9086    4.1124 C   0  0  0  0  0  0  0  0  0  0  0  0
    0.9427   -9.2409    2.7471 C   0  0  0  0  0  0  0  0  0  0  0  0
    0.9210   -7.6441    2.9836 C   0  0  2  0  0  0  0  0  0  0  0  0
    0.1014   -6.8705    2.0667 O   0  0  0  0  0  0  0  0  0  0  0  0
   -0.2667   -7.3820    0.8080 C   0  0  0  0  0  0  0  0  0  0  0  0
   -0.1097   -7.7054    4.1904 C   0  0  0  0  0  0  0  0  0  0  0  0
   -1.5294   -8.2890    3.7425 C   0  0  0  0  0  0  0  0  0  0  0  0
   -0.7254   -6.4318    4.8559 C   0  0  0  0  0  0  0  0  0  0  0  0
    2.8068    3.5641    5.0053 H   0  0  0  0  0  0  0  0  0  0  0  0
    2.0173    3.6266    3.4439 H   0  0  0  0  0  0  0  0  0  0  0  0
    3.7209    3.1736    3.5680 H   0  0  0  0  0  0  0  0  0  0  0  0
    1.5937    1.6106    2.3134 H   0  0  0  0  0  0  0  0  0  0  0  0
    1.5680   -0.5579    4.3907 H   0  0  0  0  0  0  0  0  0  0  0  0
    0.3418   -0.1052    3.2661 H   0  0  0  0  0  0  0  0  0  0  0  0
    2.4451   -0.0690    0.7840 H   0  0  0  0  0  0  0  0  0  0  0  0
    3.5302   -0.5635   -1.0269 H   0  0  0  0  0  0  0  0  0  0  0  0
    6.5176   -1.1920    0.1320 H   0  0  0  0  0  0  0  0  0  0  0  0
    6.2042   -0.2350    1.5285 H   0  0  0  0  0  0  0  0  0  0  0  0
    6.6659   -3.3723   -0.3628 H   0  0  0  0  0  0  0  0  0  0  0  0
    6.1139   -4.9826   -0.0007 H   0  0  0  0  0  0  0  0  0  0  0  0
    7.4240   -4.2594    0.9613 H   0  0  0  0  0  0  0  0  0  0  0  0
    2.6118   -2.1922    0.1875 H   0  0  0  0  0  0  0  0  0  0  0  0
    6.0668   -4.3379    3.2979 H   0  0  0  0  0  0  0  0  0  0  0  0
    4.5498   -5.8013    1.3005 H   0  0  0  0  0  0  0  0  0  0  0  0
    6.1327   -7.3021    1.9732 H   0  0  0  0  0  0  0  0  0  0  0  0
    4.5642   -7.3135    5.0896 H   0  0  0  0  0  0  0  0  0  0  0  0
    6.6473  -10.3949    2.3541 H   0  0  0  0  0  0  0  0  0  0  0  0
    5.6121   -9.8748    1.0257 H   0  0  0  0  0  0  0  0  0  0  0  0
    4.9370  -10.7901    2.3729 H   0  0  0  0  0  0  0  0  0  0  0  0
    3.7381   -8.6619    0.7026 H   0  0  0  0  0  0  0  0  0  0  0  0
    2.2060   -6.5434    0.7575 H   0  0  0  0  0  0  0  0  0  0  0  0
    1.0250   -5.3348    3.6445 H   0  0  0  0  0  0  0  0  0  0  0  0
    2.2806   -3.9328    2.5895 H   0  0  0  0  0  0  0  0  0  0  0  0
    2.0239   -3.4984    4.2559 H   0  0  0  0  0  0  0  0  0  0  0  0
    3.9458   -3.2078    5.9069 H   0  0  0  0  0  0  0  0  0  0  0  0
    5.5841   -3.4772    5.3489 H   0  0  0  0  0  0  0  0  0  0  0  0
    4.5022   -4.7687    5.6047 H   0  0  0  0  0  0  0  0  0  0  0  0
    5.7954   -1.5273    4.7592 H   0  0  0  0  0  0  0  0  0  0  0  0
    5.2750   -0.1500    3.7185 H   0  0  0  0  0  0  0  0  0  0  0  0
    2.4696   -8.6975    6.2363 H   0  0  0  0  0  0  0  0  0  0  0  0
    4.2873   -8.8791    5.0559 H   0  0  0  0  0  0  0  0  0  0  0  0
    2.8026  -10.7045    3.8135 H   0  0  0  0  0  0  0  0  0  0  0  0
   -0.9761   -9.4121    6.3034 H   0  0  0  0  0  0  0  0  0  0  0  0
    0.0216   -8.1815    7.0722 H   0  0  0  0  0  0  0  0  0  0  0  0
    0.5908   -9.8382    6.9294 H   0  0  0  0  0  0  0  0  0  0  0  0
    1.2641  -10.7575    4.4047 H   0  0  0  0  0  0  0  0  0  0  0  0
   -0.3063  -10.3931    4.0850 H   0  0  0  0  0  0  0  0  0  0  0  0
    1.8162   -9.7140    2.3214 H   0  0  0  0  0  0  0  0  0  0  0  0
    0.1633   -9.5789    2.0710 H   0  0  0  0  0  0  0  0  0  0  0  0
   -0.5935   -6.5980    0.1503 H   0  0  0  0  0  0  0  0  0  0  0  0
   -1.0705   -8.1097    0.9143 H   0  0  0  0  0  0  0  0  0  0  0  0
    0.5737   -7.8472    0.2833 H   0  0  0  0  0  0  0  0  0  0  0  0
   -2.1346   -7.5788    3.1807 H   0  0  0  0  0  0  0  0  0  0  0  0
   -2.1121   -8.5749    4.6144 H   0  0  0  0  0  0  0  0  0  0  0  0
   -1.5736   -9.1520    3.0878 H   0  0  0  0  0  0  0  0  0  0  0  0
   -1.3163   -5.9413    4.1059 H   0  0  0  0  0  0  0  0  0  0  0  0
   -0.1273   -5.6391    5.2643 H   0  0  0  0  0  0  0  0  0  0  0  0
   -1.3854   -6.6658    5.6761 H   0  0  0  0  0  0  0  0  0  0  0  0
  1  2  1  0
  1 50  1  0
  1 51  1  0
  1 52  1  0
  2  3  1  0
  3  8  1  0
  3  4  1  0
  3 53  1  6
  4  5  1  0
  4 54  1  0
  4 55  1  0
  6  5  1  1
  6 16  1  0
  6 32  1  0
  6  7  1  0
  7  8  1  0
  7  9  1  0
  7 56  1  6
  9 16  1  0
  9 10  1  6
  9 11  1  0
 10 57  1  0
 11 12  1  0
 11 58  1  0
 11 59  1  0
 12 13  1  0
 13 14  1  6
 13 15  1  0
 13 17  1  0
 14 60  1  0
 14 61  1  0
 14 62  1  0
 15 16  1  0
 16 63  1  6
 17 30  1  0
 17 18  1  0
 17 64  1  1
 18 19  1  0
 18 20  1  0
 18 65  1  6
 19 66  1  0
 20 27  1  0
 20 21  1  1
 20 22  1  0
 21 67  1  0
 22 38  1  0
 22 23  1  6
 22 25  1  0
 23 24  1  0
 24 68  1  0
 24 69  1  0
 24 70  1  0
 25 26  2  0
 25 71  1  0
 27 26  1  6
 26 72  1  0
 27 44  1  0
 27 28  1  0
 28 29  1  0
 35 28  1  6
 28 73  1  1
 29 30  1  0
 29 74  1  0
 29 75  1  0
 30 31  1  1
 30 32  1  0
 31 76  1  0
 31 77  1  0
 31 78  1  0
 32 34  1  1
 32 33  1  0
 33 34  1  0
 33 79  1  0
 33 80  1  0
 35 36  2  0
 35 37  1  0
 37 38  1  0
 37 40  1  0
 37 81  1  1
 38 39  1  0
 38 82  1  1
 39 83  1  0
 40 47  1  0
 40 41  1  1
 40 42  1  0
 41 84  1  0
 41 85  1  0
 41 86  1  0
 42 43  1  0
 42 87  1  0
 42 88  1  0
 43 44  1  0
 43 89  1  0
 43 90  1  0
 44 45  1  6
 44 47  1  0
 45 46  1  0
 46 91  1  0
 46 92  1  0
 46 93  1  0
 47 48  1  0
 47 49  1  0
 48 94  1  0
 48 95  1  0
 48 96  1  0
 49 97  1  0
 49 98  1  0
 49 99  1  0
M  END
>  <i_m_ct_stereo_status>  (111) 
1

>  <s_m_source_file>  (111) 
/var/tmp/pbs.5075288.sched01/tmpd529dnjr/198klec4xt1.sdf

>  <i_m_source_file_index>  (111) 
9

>  <i_lp_mmshare_version>  (111) 
48012

>  <i_f3d_flags>  (111) 
0

>  <s_epik_input>  (111) 
W0NIM11PW0NASF0oW0NIMl1PMSlPW0NASF0yW0NAXShbT0hdKShbQ0BIXTNPNClbQ0gyXU9bQ0BAXTQoW0NIM10pW0NAQEhdKFtDQEBdNShbQ0gzXSlbQ0BdNihbQ0BAXTEyMylbQ0gyXU82KVtDQEBIXShbT0hdKVtDQEBdNyhbT0hdKVtDQEBdODlbQ0BIXShbQ0gyXTUpW1MrXShbTy1dKVtDQEhdKFtDQEBIXShbT0hdKVtDQEBdNyhPW0NIM10pW0NIXT1bQ0hdOClbQ0BdMShbQ0gzXSlbQ0gyXVtDSDJdW0NAQF05KE9bQ0gzXSlDMShbQ0gzXSlbQ0gzXQ==

>  <s_epik_cmdline>  (111) 
J2VwaWtfcHl0aG9uJywgJy1waHQnLCAnMi4wJywgJy1waCcsICc3LjAnLCAnLXRuJywgJzgnLCAnLW1hJywgJzIwMCcsICctaW1hZScsICc8aW5maWxlLm1hZT4nLCAnLW9tYWUnLCAnPG91dGZpbGUubWFlPic=

>  <r_lp_tautomer_probability>  (111) 
1

>  <r_epik_Ionization_Penalty>  (111) 
5.99612e-06

>  <r_epik_Ionization_Penalty_Charging>  (111) 
0

>  <r_epik_Ionization_Penalty_Neutral>  (111) 
5.99612e-06

>  <r_epik_State_Penalty>  (111) 
-0

>  <r_epik_Charging_Adjusted_Penalty>  (111) 
0

>  <i_epik_Tot_Q>  (111) 
0

>  <i_epik_Tot_abs_Q>  (111) 
2

>  <s_epik_Chemistry_Notes>  (111) 
This compound contains an acetal/aminal-like group ( X-CH(R)-Y where X, Y are N, S, or O) that may be acid/base labile, releasing an aldehyde.

>  <s_lp_Force_Field>  (111) 
OPLS3e

>  <r_lp_Energy>  (111) 
368.02

>  <b_lp_Chiralities_Consistent>  (111) 
1

>  <s_lp_Variant>  (111) 
79:0-1

>  <s_i_glide_gridfile>  (111) 
pfpi4k_grid

>  <i_i_glide_lignum>  (111) 
9

>  <i_i_glide_rotatable_bonds>  (111) 
7

>  <r_i_docking_score>  (111) 
-3.10152

>  <r_i_glide_ligand_efficiency>  (111) 
-0.0632963

>  <r_i_glide_ligand_efficiency_sa>  (111) 
-0.23162

>  <r_i_glide_ligand_efficiency_ln>  (111) 
-0.634021

>  <r_i_glide_gscore>  (111) 
-3.10152

>  <r_i_glide_lipo>  (111) 
-0.373893

>  <r_i_glide_hbond>  (111) 
-0.0439918

>  <r_i_glide_metal>  (111) 
-0

>  <r_i_glide_rewards>  (111) 
-0.571842

>  <r_i_glide_evdw>  (111) 
-33.1777

>  <r_i_glide_ecoul>  (111) 
-2.99654

>  <r_i_glide_erotb>  (111) 
0

>  <r_i_glide_esite>  (111) 
-0.00342634

>  <r_i_glide_emodel>  (111) 
-47.6385

>  <r_i_glide_energy>  (111) 
-36.1742

>  <r_i_glide_einternal>  (111) 
0.698912

>  <r_i_glide_intrahb_reward>  (111) 
-0.5

>  <i_i_glide_confnum>  (111) 
1

>  <i_i_glide_posenum>  (111) 
2

>  <r_i_glide_eff_state_penalty>  (111) 
0

>  <ligand_id>  (111) 
79

>  <original_smiles>  (111) 
COC1COC23C(O1)C1(O)COC(C)(OC12)C1C(O)C2(O)C4(OC)C=CC25C(CC1(C)C31CO1)[S+]([O-])C(C4O)C1(C)CCC5(OC)C1(C)C

>  <smiles>  (111) 
[H]OC1([H])C2(OC([H])([H])[H])C([H])=C([H])C34C([H])(S(=O)C1([H])C1(C([H])([H])[H])C([H])([H])C([H])([H])C3(OC([H])([H])[H])C1(C([H])([H])[H])C([H])([H])[H])C([H])([H])C1(C([H])([H])[H])C([H])(C([H])(O[H])C24O[H])C2(C([H])([H])[H])OC([H])([H])C3(O[H])C4([H])OC([H])(OC([H])([H])[H])C([H])([H])OC4(C3([H])O2)C12OC2([H])[H]

$$$$
79:0:2
     RDKit          3D

 99108  0  0  1  0  0  0  0  0999 V2000
    2.5063    3.3171    3.1139 C   0  0  0  0  0  0  0  0  0  0  0  0
    2.3293    1.9478    3.4467 O   0  0  0  0  0  0  0  0  0  0  0  0
    2.1360    1.1021    2.3545 C   0  0  2  0  0  0  0  0  0  0  0  0
    1.4326   -0.2093    2.9014 C   0  0  0  0  0  0  0  0  0  0  0  0
    1.7636   -1.4250    2.1893 O   0  0  0  0  0  0  0  0  0  0  0  0
    3.1353   -1.5262    1.7975 C   0  0  2  0  0  0  0  0  0  0  0  0
    3.1955   -0.2931    0.8858 C   0  0  1  0  0  0  0  0  0  0  0  0
    3.3654    0.8370    1.7016 O   0  0  0  0  0  0  0  0  0  0  0  0
    4.2328   -1.0215   -0.0017 C   0  0  1  0  0  0  0  0  0  0  0  0
    4.1509   -0.7528   -1.3847 O   0  0  0  0  0  0  0  0  0  0  0  0
    5.7245   -1.0770    0.3188 C   0  0  0  0  0  0  0  0  0  0  0  0
    6.0017   -2.1262    1.2443 O   0  0  0  0  0  0  0  0  0  0  0  0
    5.4430   -3.3986    1.0300 C   0  0  2  0  0  0  0  0  0  0  0  0
    6.4252   -4.0592    0.0307 C   0  0  0  0  0  0  0  0  0  0  0  0
    4.1948   -3.4122    0.4071 O   0  0  0  0  0  0  0  0  0  0  0  0
    3.4074   -2.2403    0.4423 C   0  0  1  0  0  0  0  0  0  0  0  0
    5.2429   -4.1222    2.4332 C   0  0  2  0  0  0  0  0  0  0  0  0
    5.0795   -5.6865    2.2065 C   0  0  1  0  0  0  0  0  0  0  0  0
    6.4030   -6.1808    2.0270 O   0  0  0  0  0  0  0  0  0  0  0  0
    4.3041   -6.6563    3.2610 C   0  0  2  0  0  0  0  0  0  0  0  0
    5.1857   -6.3375    4.3343 O   0  0  0  0  0  0  0  0  0  0  0  0
    4.4133   -8.1472    3.1381 C   0  0  2  0  0  0  0  0  0  0  0  0
    5.7765   -8.5418    2.9476 O   0  0  0  0  0  0  0  0  0  0  0  0
    5.9945   -9.8127    2.3473 C   0  0  0  0  0  0  0  0  0  0  0  0
    3.6261   -8.1162    1.8031 C   0  0  0  0  0  0  0  0  0  0  0  0
    2.8017   -7.0454    1.7417 C   0  0  0  0  0  0  0  0  0  0  0  0
    2.6335   -6.6129    3.1578 C   0  0  2  0  0  0  0  0  0  0  0  0
    2.3309   -5.3480    3.9145 C   0  0  2  0  0  0  0  0  0  0  0  0
    2.8027   -3.9394    3.4642 C   0  0  0  0  0  0  0  0  0  0  0  0
    4.2455   -3.3373    3.4152 C   0  0  1  0  0  0  0  0  0  0  0  0
    4.8325   -3.3401    4.8656 C   0  0  0  0  0  0  0  0  0  0  0  0
    4.0825   -1.8066    3.0262 C   0  0  1  0  0  0  0  0  0  0  0  0
    5.1365   -0.7747    3.4291 C   0  0  0  0  0  0  0  0  0  0  0  0
    3.9115   -0.9021    4.1395 O   0  0  0  0  0  0  0  0  0  0  0  0
    2.7994   -5.9781    5.6570 S   0  0  0  0  0  0  0  0  0  0  0  0
    1.9891   -5.4165    6.8355 O   0  0  0  0  0  0  0  0  0  0  0  0
    2.7341   -7.8924    5.5556 C   0  0  2  0  0  0  0  0  0  0  0  0
    3.9088   -8.6180    4.6273 C   0  0  1  0  0  0  0  0  0  0  0  0
    4.0217  -10.0203    4.7663 O   0  0  0  0  0  0  0  0  0  0  0  0
    1.2088   -8.3897    5.5153 C   0  0  2  0  0  0  0  0  0  0  0  0
    0.6570   -8.6037    6.9453 C   0  0  0  0  0  0  0  0  0  0  0  0
    1.1371   -9.6957    4.7152 C   0  0  0  0  0  0  0  0  0  0  0  0
    1.2989   -9.1788    3.2621 C   0  0  0  0  0  0  0  0  0  0  0  0
    1.2115   -7.5663    3.3230 C   0  0  2  0  0  0  0  0  0  0  0  0
    0.2799   -6.9604    2.3839 O   0  0  0  0  0  0  0  0  0  0  0  0
   -0.1041   -7.6330    1.1882 C   0  0  0  0  0  0  0  0  0  0  0  0
    0.2745   -7.5204    4.6126 C   0  0  0  0  0  0  0  0  0  0  0  0
   -1.1463   -8.1977    4.3334 C   0  0  0  0  0  0  0  0  0  0  0  0
   -0.3504   -6.1980    5.1919 C   0  0  0  0  0  0  0  0  0  0  0  0
    2.6308    3.9054    4.0231 H   0  0  0  0  0  0  0  0  0  0  0  0
    1.6362    3.7133    2.5927 H   0  0  0  0  0  0  0  0  0  0  0  0
    3.3852    3.4820    2.4948 H   0  0  0  0  0  0  0  0  0  0  0  0
    1.4637    1.5916    1.6423 H   0  0  0  0  0  0  0  0  0  0  0  0
    1.6733   -0.3328    3.9540 H   0  0  0  0  0  0  0  0  0  0  0  0
    0.3537   -0.0479    2.8716 H   0  0  0  0  0  0  0  0  0  0  0  0
    2.2753   -0.1519    0.3130 H   0  0  0  0  0  0  0  0  0  0  0  0
    3.2289   -0.6928   -1.5874 H   0  0  0  0  0  0  0  0  0  0  0  0
    6.3147   -1.2334   -0.5826 H   0  0  0  0  0  0  0  0  0  0  0  0
    6.0689   -0.1226    0.7156 H   0  0  0  0  0  0  0  0  0  0  0  0
    6.5212   -3.4521   -0.8692 H   0  0  0  0  0  0  0  0  0  0  0  0
    6.0717   -5.0339   -0.2960 H   0  0  0  0  0  0  0  0  0  0  0  0
    7.4148   -4.1603    0.4774 H   0  0  0  0  0  0  0  0  0  0  0  0
    2.5027   -2.3772   -0.1541 H   0  0  0  0  0  0  0  0  0  0  0  0
    6.2110   -4.0140    2.9092 H   0  0  0  0  0  0  0  0  0  0  0  0
    4.6795   -5.7754    1.2005 H   0  0  0  0  0  0  0  0  0  0  0  0
    6.3426   -7.0947    1.7806 H   0  0  0  0  0  0  0  0  0  0  0  0
    6.0627   -6.5464    4.0322 H   0  0  0  0  0  0  0  0  0  0  0  0
    7.0171  -10.1295    2.5557 H   0  0  0  0  0  0  0  0  0  0  0  0
    5.8789   -9.7614    1.2638 H   0  0  0  0  0  0  0  0  0  0  0  0
    5.3271  -10.5876    2.7231 H   0  0  0  0  0  0  0  0  0  0  0  0
    3.9059   -8.7156    0.9515 H   0  0  0  0  0  0  0  0  0  0  0  0
    2.2981   -6.6270    0.8875 H   0  0  0  0  0  0  0  0  0  0  0  0
    1.2766   -5.1890    3.7707 H   0  0  0  0  0  0  0  0  0  0  0  0
    2.3924   -3.8574    2.4579 H   0  0  0  0  0  0  0  0  0  0  0  0
    2.2232   -3.2484    4.0783 H   0  0  0  0  0  0  0  0  0  0  0  0
    4.2527   -2.7257    5.5502 H   0  0  0  0  0  0  0  0  0  0  0  0
    5.8541   -2.9747    4.8977 H   0  0  0  0  0  0  0  0  0  0  0  0
    4.8641   -4.2969    5.3581 H   0  0  0  0  0  0  0  0  0  0  0  0
    6.0261   -1.0740    3.9610 H   0  0  0  0  0  0  0  0  0  0  0  0
    5.2391    0.1521    2.8844 H   0  0  0  0  0  0  0  0  0  0  0  0
    3.0562   -8.1791    6.5570 H   0  0  0  0  0  0  0  0  0  0  0  0
    4.7709   -8.4272    5.2666 H   0  0  0  0  0  0  0  0  0  0  0  0
    3.2819  -10.4335    4.3511 H   0  0  0  0  0  0  0  0  0  0  0  0
   -0.3543   -9.0109    6.9483 H   0  0  0  0  0  0  0  0  0  0  0  0
    0.6419   -7.6720    7.5097 H   0  0  0  0  0  0  0  0  0  0  0  0
    1.2721   -9.3137    7.5002 H   0  0  0  0  0  0  0  0  0  0  0  0
    1.8089  -10.4791    5.0421 H   0  0  0  0  0  0  0  0  0  0  0  0
    0.1895  -10.2153    4.8597 H   0  0  0  0  0  0  0  0  0  0  0  0
    2.1758   -9.6443    2.8373 H   0  0  0  0  0  0  0  0  0  0  0  0
    0.5119   -9.6200    2.6557 H   0  0  0  0  0  0  0  0  0  0  0  0
   -0.5922   -6.9314    0.5171 H   0  0  0  0  0  0  0  0  0  0  0  0
   -0.8038   -8.4482    1.3660 H   0  0  0  0  0  0  0  0  0  0  0  0
    0.7568   -8.0148    0.6475 H   0  0  0  0  0  0  0  0  0  0  0  0
   -1.8054   -7.5578    3.7480 H   0  0  0  0  0  0  0  0  0  0  0  0
   -1.6712   -8.4214    5.2615 H   0  0  0  0  0  0  0  0  0  0  0  0
   -1.1822   -9.1231    3.7674 H   0  0  0  0  0  0  0  0  0  0  0  0
   -0.9847   -5.7382    4.4399 H   0  0  0  0  0  0  0  0  0  0  0  0
    0.2565   -5.3783    5.5164 H   0  0  0  0  0  0  0  0  0  0  0  0
   -0.9818   -6.3986    6.0535 H   0  0  0  0  0  0  0  0  0  0  0  0
  1  2  1  0
  1 50  1  0
  1 51  1  0
  1 52  1  0
  2  3  1  0
  3  8  1  0
  3  4  1  0
  3 53  1  6
  4  5  1  0
  4 54  1  0
  4 55  1  0
  6  5  1  1
  6 16  1  0
  6 32  1  0
  6  7  1  0
  7  8  1  0
  7  9  1  0
  7 56  1  6
  9 16  1  0
  9 10  1  6
  9 11  1  0
 10 57  1  0
 11 12  1  0
 11 58  1  0
 11 59  1  0
 12 13  1  0
 13 14  1  6
 13 15  1  0
 13 17  1  0
 14 60  1  0
 14 61  1  0
 14 62  1  0
 15 16  1  0
 16 63  1  6
 17 30  1  0
 17 18  1  0
 17 64  1  1
 18 19  1  0
 18 20  1  0
 18 65  1  6
 19 66  1  0
 20 27  1  0
 20 21  1  1
 20 22  1  0
 21 67  1  0
 22 38  1  0
 22 23  1  6
 22 25  1  0
 23 24  1  0
 24 68  1  0
 24 69  1  0
 24 70  1  0
 25 26  2  0
 25 71  1  0
 27 26  1  6
 26 72  1  0
 27 44  1  0
 27 28  1  0
 28 29  1  0
 35 28  1  6
 28 73  1  1
 29 30  1  0
 29 74  1  0
 29 75  1  0
 30 31  1  1
 30 32  1  0
 31 76  1  0
 31 77  1  0
 31 78  1  0
 32 34  1  1
 32 33  1  0
 33 34  1  0
 33 79  1  0
 33 80  1  0
 35 36  2  0
 35 37  1  0
 37 38  1  0
 37 40  1  0
 37 81  1  1
 38 39  1  0
 38 82  1  1
 39 83  1  0
 40 47  1  0
 40 41  1  1
 40 42  1  0
 41 84  1  0
 41 85  1  0
 41 86  1  0
 42 43  1  0
 42 87  1  0
 42 88  1  0
 43 44  1  0
 43 89  1  0
 43 90  1  0
 44 45  1  6
 44 47  1  0
 45 46  1  0
 46 91  1  0
 46 92  1  0
 46 93  1  0
 47 48  1  0
 47 49  1  0
 48 94  1  0
 48 95  1  0
 48 96  1  0
 49 97  1  0
 49 98  1  0
 49 99  1  0
M  END
>  <i_m_ct_stereo_status>  (112) 
1

>  <s_m_source_file>  (112) 
/var/tmp/pbs.5075288.sched01/tmpd529dnjr/198klec4xt1.sdf

>  <i_m_source_file_index>  (112) 
9

>  <i_lp_mmshare_version>  (112) 
48012

>  <i_f3d_flags>  (112) 
0

>  <s_epik_input>  (112) 
W0NIM11PW0NASF0oW0NIMl1PMSlPW0NASF0yW0NAXShbT0hdKShbQ0BIXTNPNClbQ0gyXU9bQ0BAXTQoW0NIM10pW0NAQEhdKFtDQEBdNShbQ0gzXSlbQ0BdNihbQ0BAXTEyMylbQ0gyXU82KVtDQEBIXShbT0hdKVtDQEBdNyhbT0hdKVtDQEBdODlbQ0BIXShbQ0gyXTUpW1MrXShbTy1dKVtDQEhdKFtDQEBIXShbT0hdKVtDQEBdNyhPW0NIM10pW0NIXT1bQ0hdOClbQ0BdMShbQ0gzXSlbQ0gyXVtDSDJdW0NAQF05KE9bQ0gzXSlDMShbQ0gzXSlbQ0gzXQ==

>  <s_epik_cmdline>  (112) 
J2VwaWtfcHl0aG9uJywgJy1waHQnLCAnMi4wJywgJy1waCcsICc3LjAnLCAnLXRuJywgJzgnLCAnLW1hJywgJzIwMCcsICctaW1hZScsICc8aW5maWxlLm1hZT4nLCAnLW9tYWUnLCAnPG91dGZpbGUubWFlPic=

>  <r_lp_tautomer_probability>  (112) 
1

>  <r_epik_Ionization_Penalty>  (112) 
5.99612e-06

>  <r_epik_Ionization_Penalty_Charging>  (112) 
0

>  <r_epik_Ionization_Penalty_Neutral>  (112) 
5.99612e-06

>  <r_epik_State_Penalty>  (112) 
-0

>  <r_epik_Charging_Adjusted_Penalty>  (112) 
0

>  <i_epik_Tot_Q>  (112) 
0

>  <i_epik_Tot_abs_Q>  (112) 
2

>  <s_epik_Chemistry_Notes>  (112) 
This compound contains an acetal/aminal-like group ( X-CH(R)-Y where X, Y are N, S, or O) that may be acid/base labile, releasing an aldehyde.

>  <s_lp_Force_Field>  (112) 
OPLS3e

>  <r_lp_Energy>  (112) 
368.02

>  <b_lp_Chiralities_Consistent>  (112) 
1

>  <s_lp_Variant>  (112) 
79:0-1

>  <s_i_glide_gridfile>  (112) 
pfpi4k_grid

>  <i_i_glide_lignum>  (112) 
9

>  <i_i_glide_rotatable_bonds>  (112) 
7

>  <r_i_docking_score>  (112) 
-3.0102

>  <r_i_glide_ligand_efficiency>  (112) 
-0.0614327

>  <r_i_glide_ligand_efficiency_sa>  (112) 
-0.224801

>  <r_i_glide_ligand_efficiency_ln>  (112) 
-0.615354

>  <r_i_glide_gscore>  (112) 
-3.0102

>  <r_i_glide_lipo>  (112) 
-0.374004

>  <r_i_glide_hbond>  (112) 
0

>  <r_i_glide_metal>  (112) 
-0

>  <r_i_glide_rewards>  (112) 
-0.590751

>  <r_i_glide_evdw>  (112) 
-31.2963

>  <r_i_glide_ecoul>  (112) 
-3.20419

>  <r_i_glide_erotb>  (112) 
0

>  <r_i_glide_esite>  (112) 
0

>  <r_i_glide_emodel>  (112) 
-46.594

>  <r_i_glide_energy>  (112) 
-34.5005

>  <r_i_glide_einternal>  (112) 
1.08962

>  <r_i_glide_intrahb_reward>  (112) 
-0.5

>  <i_i_glide_confnum>  (112) 
1

>  <i_i_glide_posenum>  (112) 
8

>  <r_i_glide_eff_state_penalty>  (112) 
0

>  <ligand_id>  (112) 
79

>  <original_smiles>  (112) 
COC1COC23C(O1)C1(O)COC(C)(OC12)C1C(O)C2(O)C4(OC)C=CC25C(CC1(C)C31CO1)[S+]([O-])C(C4O)C1(C)CCC5(OC)C1(C)C

>  <smiles>  (112) 
[H]OC1([H])C2(OC([H])([H])[H])C([H])=C([H])C34C([H])(S(=O)C1([H])C1(C([H])([H])[H])C([H])([H])C([H])([H])C3(OC([H])([H])[H])C1(C([H])([H])[H])C([H])([H])[H])C([H])([H])C1(C([H])([H])[H])C([H])(C([H])(O[H])C24O[H])C2(C([H])([H])[H])OC([H])([H])C3(O[H])C4([H])OC([H])(OC([H])([H])[H])C([H])([H])OC4(C3([H])O2)C12OC2([H])[H]

$$$$
83:0:0
     RDKit          3D

147157  0  0  1  0  0  0  0  0999 V2000
    4.2364   -2.8994    9.6343 C   0  0  0  0  0  0  0  0  0  0  0  0
    5.1667   -1.9135    9.5202 C   0  0  0  0  0  0  0  0  0  0  0  0
    5.6236   -1.2166    8.2095 C   0  0  1  0  0  0  0  0  0  0  0  0
    7.0904   -0.7494    8.3572 C   0  0  0  0  0  0  0  0  0  0  0  0
    5.4294   -2.0834    6.9424 C   0  0  0  0  0  0  0  0  0  0  0  0
    4.1812   -1.5174    6.1308 C   0  0  2  0  0  0  0  0  0  0  0  0
    2.8555   -2.0269    6.8457 C   0  0  0  0  0  0  0  0  0  0  0  0
    4.3451   -1.9837    4.6170 C   0  0  1  0  0  0  0  0  0  0  0  0
    3.6904   -3.2397    4.3734 O   0  0  0  0  0  0  0  0  0  0  0  0
    4.4690   -4.3927    4.0690 C   0  0  2  0  0  0  0  0  0  0  0  0
    4.9106   -4.2249    2.8016 O   0  0  0  0  0  0  0  0  0  0  0  0
    4.7654   -5.5233    2.4204 C   0  0  1  0  0  0  0  0  0  0  0  0
    6.2155   -6.1281    3.2325 C   0  0  1  0  0  0  0  0  0  0  0  0
    7.3070   -5.5194    2.5765 O   0  0  0  0  0  0  0  0  0  0  0  0
    6.4160   -6.2516    4.8402 C   0  0  0  0  0  0  0  0  0  0  0  0
    7.5990   -5.7615    5.3584 C   0  0  0  0  0  0  0  0  0  0  0  0
    5.4317   -6.9578    5.9449 C   0  0  1  0  0  0  0  0  0  0  0  0
    4.9742   -6.0377    7.0764 C   0  0  0  0  0  0  0  0  0  0  0  0
    3.8806   -5.1115    6.6823 C   0  0  0  0  0  0  0  0  0  0  0  0
    2.8399   -5.5930    5.6318 C   0  0  2  0  0  0  0  0  0  0  0  0
    1.9033   -4.5759    5.3876 O   0  0  0  0  0  0  0  0  0  0  0  0
    1.8647   -6.4848    6.5227 C   0  0  1  0  0  0  0  0  0  0  0  0
    1.4087   -5.8228    7.7316 O   0  0  0  0  0  0  0  0  0  0  0  0
    1.4808   -6.3985    8.9667 C   0  0  0  0  0  0  0  0  0  0  0  0
    0.9570   -5.4976   10.0844 C   0  0  0  0  0  0  0  0  0  0  0  0
    1.9009   -7.5237    9.2173 O   0  0  0  0  0  0  0  0  0  0  0  0
    0.6880   -7.1036    5.7546 C   0  0  1  0  0  0  0  0  0  0  0  0
    0.2382   -8.1411    6.6262 O   0  0  0  0  0  0  0  0  0  0  0  0
   -0.5783   -6.1561    5.4850 C   0  0  0  0  0  0  0  0  0  0  0  0
   -1.1622   -5.4141    6.7297 C   0  0  0  0  0  0  0  0  0  0  0  0
   -1.7459   -6.8253    4.7380 C   0  0  0  0  0  0  0  0  0  0  0  0
    1.4248   -7.7643    4.5257 C   0  0  2  0  0  0  0  0  0  0  0  0
    0.5058   -8.9012    3.9482 C   0  0  0  0  0  0  0  0  0  0  0  0
    2.8191   -8.4864    5.0048 C   0  0  1  0  0  0  0  0  0  0  0  0
    3.1119   -8.5365    3.6891 O   0  0  0  0  0  0  0  0  0  0  0  0
    4.1361   -7.6674    3.5484 C   0  0  2  0  0  0  0  0  0  0  0  0
    4.3525   -8.2059    1.9792 C   0  0  0  0  0  0  0  0  0  0  0  0
    3.9780   -9.6985    1.6492 C   0  0  0  0  0  0  0  0  0  0  0  0
    5.7653   -8.1854    1.2624 C   0  0  0  0  0  0  0  0  0  0  0  0
    4.9565   -8.5243    4.4701 C   0  0  0  0  0  0  0  0  0  0  0  0
    5.9095   -9.2964    4.2338 O   0  0  0  0  0  0  0  0  0  0  0  0
    4.3382   -8.1995    5.7182 C   0  0  1  0  0  0  0  0  0  0  0  0
    4.5216   -9.3028    6.7821 C   0  0  0  0  0  0  0  0  0  0  0  0
    4.7414   -9.0408    7.9632 O   0  0  0  0  0  0  0  0  0  0  0  0
    3.6376   -5.9147    4.1748 C   0  0  2  0  0  0  0  0  0  0  0  0
    3.1320   -5.5178    2.9084 C   0  0  2  0  0  0  0  0  0  0  0  0
    1.5530   -6.5853    2.9696 S   0  0  0  0  0  0  0  0  0  0  0  0
    1.0249   -7.1136    1.6349 O   0  0  0  0  0  0  0  0  0  0  0  0
    4.0578   -0.9295    3.5127 C   0  0  0  0  0  0  0  0  0  0  0  0
    5.0515   -0.5965    2.6707 C   0  0  0  0  0  0  0  0  0  0  0  0
    2.7033   -0.1672    3.5047 C   0  0  1  0  0  0  0  0  0  0  0  0
    2.3882    0.2199    2.0289 C   0  0  0  0  0  0  0  0  0  0  0  0
    1.5136   -1.0830    3.9319 C   0  0  0  0  0  0  0  0  0  0  0  0
    0.3771   -0.4095    4.7320 C   0  0  1  0  0  0  0  0  0  0  0  0
   -0.2962   -1.4118    5.4817 O   0  0  0  0  0  0  0  0  0  0  0  0
    0.7626    0.9026    5.5262 C   0  0  2  0  0  0  0  0  0  0  0  0
   -0.4660    1.5554    6.2951 C   0  0  0  0  0  0  0  0  0  0  0  0
   -0.1134    2.7974    7.1356 C   0  0  0  0  0  0  0  0  0  0  0  0
   -1.6486    1.8992    5.3707 C   0  0  0  0  0  0  0  0  0  0  0  0
   -0.9710    0.6594    7.2727 O   0  0  0  0  0  0  0  0  0  0  0  0
    1.4045    1.7943    4.4432 C   0  0  0  0  0  0  0  0  0  0  0  0
    2.8069    1.1580    4.3765 C   0  0  1  0  0  0  0  0  0  0  0  0
    3.1923    1.0892    5.9137 C   0  0  1  0  0  0  0  0  0  0  0  0
    3.5882    2.5360    6.5175 C   0  0  2  0  0  0  0  0  0  0  0  0
    2.6091    3.5252    6.4180 O   0  0  0  0  0  0  0  0  0  0  0  0
    4.8002    3.2281    5.9214 C   0  0  2  0  0  0  0  0  0  0  0  0
    6.1993    2.9393    6.3989 C   0  0  0  0  0  0  0  0  0  0  0  0
    5.5010    4.1184    6.8023 O   0  0  0  0  0  0  0  0  0  0  0  0
    1.8856    0.7397    6.4525 O   0  0  0  0  0  0  0  0  0  0  0  0
    4.3515    0.0376    6.3497 C   0  0  2  0  0  0  0  0  0  0  0  0
    5.5318    0.3994    5.6261 O   0  0  0  0  0  0  0  0  0  0  0  0
    4.7499   -0.0062    7.8634 C   0  0  0  0  0  0  0  0  0  0  0  0
    4.3129    0.7278    8.7648 O   0  0  0  0  0  0  0  0  0  0  0  0
    3.7099   -3.2524    8.7579 H   0  0  0  0  0  0  0  0  0  0  0  0
    4.0239   -3.3387   10.6167 H   0  0  0  0  0  0  0  0  0  0  0  0
    5.6596   -1.5603   10.4299 H   0  0  0  0  0  0  0  0  0  0  0  0
    7.2185   -0.1267    9.2481 H   0  0  0  0  0  0  0  0  0  0  0  0
    7.4289   -0.1668    7.4969 H   0  0  0  0  0  0  0  0  0  0  0  0
    7.7537   -1.6116    8.4532 H   0  0  0  0  0  0  0  0  0  0  0  0
    6.3664   -2.0210    6.3564 H   0  0  0  0  0  0  0  0  0  0  0  0
    5.3946   -3.0809    7.2669 H   0  0  0  0  0  0  0  0  0  0  0  0
    1.9711   -1.5405    6.4224 H   0  0  0  0  0  0  0  0  0  0  0  0
    2.8603   -1.7606    7.9119 H   0  0  0  0  0  0  0  0  0  0  0  0
    2.7706   -3.0743    6.7699 H   0  0  0  0  0  0  0  0  0  0  0  0
    5.4093   -2.1665    4.4474 H   0  0  0  0  0  0  0  0  0  0  0  0
    5.3338   -4.2254    4.6873 H   0  0  0  0  0  0  0  0  0  0  0  0
    4.8038   -5.5442    1.3382 H   0  0  0  0  0  0  0  0  0  0  0  0
    6.5017   -7.0893    3.0504 H   0  0  0  0  0  0  0  0  0  0  0  0
    7.5173   -6.0284    1.8236 H   0  0  0  0  0  0  0  0  0  0  0  0
    8.3336   -5.3142    4.7199 H   0  0  0  0  0  0  0  0  0  0  0  0
    7.8440   -5.8657    6.3970 H   0  0  0  0  0  0  0  0  0  0  0  0
    6.2223   -7.4945    6.4781 H   0  0  0  0  0  0  0  0  0  0  0  0
    4.6859   -6.6197    7.9575 H   0  0  0  0  0  0  0  0  0  0  0  0
    5.8150   -5.4418    7.4234 H   0  0  0  0  0  0  0  0  0  0  0  0
    3.4165   -4.8345    7.6220 H   0  0  0  0  0  0  0  0  0  0  0  0
    4.2652   -4.1915    6.4419 H   0  0  0  0  0  0  0  0  0  0  0  0
    2.4025   -3.8222    5.0388 H   0  0  0  0  0  0  0  0  0  0  0  0
    2.4716   -7.2780    6.9461 H   0  0  0  0  0  0  0  0  0  0  0  0
   -0.0376   -5.1256    9.8439 H   0  0  0  0  0  0  0  0  0  0  0  0
    1.6223   -4.6491   10.2352 H   0  0  0  0  0  0  0  0  0  0  0  0
    0.8948   -6.0460   11.0266 H   0  0  0  0  0  0  0  0  0  0  0  0
   -0.2305   -8.7705    6.1036 H   0  0  0  0  0  0  0  0  0  0  0  0
   -0.2949   -5.3495    4.8105 H   0  0  0  0  0  0  0  0  0  0  0  0
   -1.3047   -6.0579    7.5994 H   0  0  0  0  0  0  0  0  0  0  0  0
   -2.1229   -4.9432    6.5139 H   0  0  0  0  0  0  0  0  0  0  0  0
   -0.5193   -4.5979    7.0570 H   0  0  0  0  0  0  0  0  0  0  0  0
   -1.9150   -7.8470    5.0709 H   0  0  0  0  0  0  0  0  0  0  0  0
   -1.5679   -6.8508    3.6655 H   0  0  0  0  0  0  0  0  0  0  0  0
   -2.6744   -6.2708    4.8705 H   0  0  0  0  0  0  0  0  0  0  0  0
    0.1421   -9.6239    4.6812 H   0  0  0  0  0  0  0  0  0  0  0  0
    1.0229   -9.4810    3.1905 H   0  0  0  0  0  0  0  0  0  0  0  0
   -0.3558   -8.5169    3.4189 H   0  0  0  0  0  0  0  0  0  0  0  0
    2.4905   -9.4722    5.3511 H   0  0  0  0  0  0  0  0  0  0  0  0
    3.6583   -7.6449    1.3478 H   0  0  0  0  0  0  0  0  0  0  0  0
    4.6683  -10.4204    2.0913 H   0  0  0  0  0  0  0  0  0  0  0  0
    4.0237   -9.8611    0.5738 H   0  0  0  0  0  0  0  0  0  0  0  0
    2.9708  -10.0041    1.9122 H   0  0  0  0  0  0  0  0  0  0  0  0
    6.5772   -8.5404    1.9371 H   0  0  0  0  0  0  0  0  0  0  0  0
    6.0625   -7.1804    0.9156 H   0  0  0  0  0  0  0  0  0  0  0  0
    5.7917   -8.8245    0.4001 H   0  0  0  0  0  0  0  0  0  0  0  0
    4.4149  -10.3302    6.4278 H   0  0  0  0  0  0  0  0  0  0  0  0
    2.6605   -4.5336    2.7597 H   0  0  0  0  0  0  0  0  0  0  0  0
    6.0337   -1.0587    2.7168 H   0  0  0  0  0  0  0  0  0  0  0  0
    4.9546    0.1924    1.9370 H   0  0  0  0  0  0  0  0  0  0  0  0
    1.3468    0.4989    1.8825 H   0  0  0  0  0  0  0  0  0  0  0  0
    2.5542   -0.6212    1.3573 H   0  0  0  0  0  0  0  0  0  0  0  0
    2.9887    1.0548    1.6718 H   0  0  0  0  0  0  0  0  0  0  0  0
    1.0677   -1.5542    3.0568 H   0  0  0  0  0  0  0  0  0  0  0  0
    1.8263   -1.9633    4.4603 H   0  0  0  0  0  0  0  0  0  0  0  0
   -0.3493   -0.1062    3.9815 H   0  0  0  0  0  0  0  0  0  0  0  0
    0.3180   -1.7336    6.1224 H   0  0  0  0  0  0  0  0  0  0  0  0
    0.1420    3.6458    6.4966 H   0  0  0  0  0  0  0  0  0  0  0  0
    0.7014    2.5839    7.8296 H   0  0  0  0  0  0  0  0  0  0  0  0
   -0.9514    3.1231    7.7547 H   0  0  0  0  0  0  0  0  0  0  0  0
   -1.3943    2.6986    4.6733 H   0  0  0  0  0  0  0  0  0  0  0  0
   -2.5106    2.2276    5.9501 H   0  0  0  0  0  0  0  0  0  0  0  0
   -1.9864    1.0448    4.7898 H   0  0  0  0  0  0  0  0  0  0  0  0
   -0.2937    0.5574    7.9236 H   0  0  0  0  0  0  0  0  0  0  0  0
    0.8569    1.7679    3.4960 H   0  0  0  0  0  0  0  0  0  0  0  0
    1.4464    2.8407    4.7136 H   0  0  0  0  0  0  0  0  0  0  0  0
    3.5113    1.8180    3.8666 H   0  0  0  0  0  0  0  0  0  0  0  0
    3.7435    2.4964    7.5893 H   0  0  0  0  0  0  0  0  0  0  0  0
    1.8656    3.2173    6.9206 H   0  0  0  0  0  0  0  0  0  0  0  0
    4.6418    3.6763    4.9438 H   0  0  0  0  0  0  0  0  0  0  0  0
    6.3102    2.1663    7.1614 H   0  0  0  0  0  0  0  0  0  0  0  0
    7.0229    3.0814    5.7024 H   0  0  0  0  0  0  0  0  0  0  0  0
    6.1836   -0.2124    5.9079 H   0  0  0  0  0  0  0  0  0  0  0  0
  1  2  2  0
  1 74  1  0
  1 75  1  0
  2  3  1  0
  2 76  1  0
  3 72  1  0
  3  4  1  1
  3  5  1  0
  4 77  1  0
  4 78  1  0
  4 79  1  0
  5  6  1  0
  5 80  1  0
  5 81  1  0
  6 70  1  0
  6  7  1  1
  6  8  1  0
  7 82  1  0
  7 83  1  0
  7 84  1  0
  8  9  1  0
  8 49  1  0
  8 85  1  1
  9 10  1  0
 10 45  1  0
 10 11  1  0
 10 86  1  1
 11 12  1  0
 12 46  1  0
 12 13  1  0
 12 87  1  6
 13 14  1  0
 13 15  1  0
 13 88  1  6
 14 89  1  0
 15 16  2  0
 15 17  1  0
 16 90  1  0
 16 91  1  0
 17 42  1  0
 17 18  1  0
 17 92  1  1
 18 19  1  0
 18 93  1  0
 18 94  1  0
 19 20  1  0
 19 95  1  0
 19 96  1  0
 20 45  1  0
 20 21  1  6
 20 22  1  0
 21 97  1  0
 22 23  1  0
 22 27  1  0
 22 98  1  1
 23 24  1  0
 24 25  1  0
 24 26  2  0
 25 99  1  0
 25100  1  0
 25101  1  0
 27 28  1  1
 27 29  1  0
 27 32  1  0
 28102  1  0
 29 30  1  0
 29 31  1  0
 29103  1  0
 30104  1  0
 30105  1  0
 30106  1  0
 31107  1  0
 31108  1  0
 31109  1  0
 47 32  1  1
 32 33  1  6
 32 34  1  0
 33110  1  0
 33111  1  0
 33112  1  0
 34 42  1  0
 34 35  1  0
 34113  1  1
 35 36  1  0
 36 37  1  6
 36 40  1  0
 45 36  1  6
 37 38  1  0
 37 39  1  0
 37114  1  0
 38115  1  0
 38116  1  0
 38117  1  0
 39118  1  0
 39119  1  0
 39120  1  0
 40 41  2  0
 40 42  1  0
 42 43  1  1
 43 44  2  0
 43121  1  0
 45 46  1  0
 46 47  1  0
 46122  1  1
 47 48  2  0
 49 50  2  0
 49 51  1  0
 50123  1  0
 50124  1  0
 51 62  1  0
 51 52  1  6
 51 53  1  0
 52125  1  0
 52126  1  0
 52127  1  0
 53 54  1  0
 53128  1  0
 53129  1  0
 54 55  1  0
 54 56  1  0
 54130  1  6
 55131  1  0
 56 69  1  0
 56 57  1  1
 56 61  1  0
 57 58  1  0
 57 59  1  0
 57 60  1  0
 58132  1  0
 58133  1  0
 58134  1  0
 59135  1  0
 59136  1  0
 59137  1  0
 60138  1  0
 61 62  1  0
 61139  1  0
 61140  1  0
 62 63  1  0
 62141  1  6
 63 64  1  0
 63 69  1  1
 63 70  1  0
 64 65  1  0
 64 66  1  0
 64142  1  1
 65143  1  0
 66 68  1  0
 66 67  1  0
 66144  1  6
 67 68  1  0
 67145  1  0
 67146  1  0
 70 71  1  6
 70 72  1  0
 71147  1  0
 72 73  2  0
M  END
>  <i_m_ct_stereo_status>  (113) 
1

>  <s_m_source_file>  (113) 
/var/tmp/pbs.5075288.sched01/tmpd529dnjr/198klec4xt1.sdf

>  <i_m_source_file_index>  (113) 
17

>  <i_lp_mmshare_version>  (113) 
48012

>  <i_f3d_flags>  (113) 
0

>  <s_epik_input>  (113) 
W0NIMl09W0NIXVtDQEBdKFtDSDNdKShbQ0gyXTEpQyg9TylbQ0BAXShbT0hdKShbQ0BdMTJbQ0gzXSlbQ0BAXTMoW0NASF0oW09IXSlbQ0BASF00W0NIMl1PNClbQ0BIXTVbQ0BdKFtDSDNdKShbQ0gyXVtDQEBIXShbT0hdKVtDQEBdKE8zKShbQ0gyXTUpQyhbQ0gzXSkoW0NIM10pW09IXSlDKD1bQ0gyXSlbQ0BASF0yT1tDQEBIXTZPW0NAQEhdKFtDQEBIXShbT0hdKUM3PVtDSDJdKVtDQEhdOFtTK10oW08tXSlbQ0BdKFtDSDNdKShbQ0BdKFtPSF0pKFtDSF0oW0NIM10pW0NIM10pW0NAQEhdOU9DKD1PKVtDSDNdKVtDQEBIXShPW0NAQF0xKEMyPU8pW0NIXShbQ0gzXSlbQ0gzXSlbQ0BdMihbQ0hdPU8pW0NAQEhdN1tDSDJdW0NIMl1bQ0BdOShbQ0BdMTY4KVtPSF0=

>  <s_epik_cmdline>  (113) 
J2VwaWtfcHl0aG9uJywgJy1waHQnLCAnMi4wJywgJy1waCcsICc3LjAnLCAnLXRuJywgJzgnLCAnLW1hJywgJzIwMCcsICctaW1hZScsICc8aW5maWxlLm1hZT4nLCAnLW9tYWUnLCAnPG91dGZpbGUubWFlPic=

>  <r_lp_tautomer_probability>  (113) 
1

>  <r_epik_Ionization_Penalty>  (113) 
1.32398e-06

>  <r_epik_Ionization_Penalty_Charging>  (113) 
0

>  <r_epik_Ionization_Penalty_Neutral>  (113) 
1.32398e-06

>  <r_epik_State_Penalty>  (113) 
-0

>  <r_epik_Charging_Adjusted_Penalty>  (113) 
0

>  <i_epik_Tot_Q>  (113) 
0

>  <i_epik_Tot_abs_Q>  (113) 
2

>  <s_epik_Chemistry_Notes>  (113) 
This compound has an ester and may undergo hydrolysis at high or low pH. This compound contains an acetal/aminal-like group ( X-CH(R)-Y where X, Y are N, S, or O) that may be acid/base labile, releasing an aldehyde.

>  <s_lp_Force_Field>  (113) 
OPLS3e

>  <r_lp_Energy>  (113) 
570.29

>  <b_lp_Chiralities_Consistent>  (113) 
1

>  <s_lp_Variant>  (113) 
83:0-1

>  <s_i_glide_gridfile>  (113) 
pfpi4k_grid

>  <i_i_glide_lignum>  (113) 
17

>  <i_i_glide_rotatable_bonds>  (113) 
18

>  <r_i_docking_score>  (113) 
-1.62753

>  <r_i_glide_ligand_efficiency>  (113) 
-0.0222949

>  <r_i_glide_ligand_efficiency_sa>  (113) 
-0.0931779

>  <r_i_glide_ligand_efficiency_ln>  (113) 
-0.307634

>  <r_i_glide_gscore>  (113) 
-1.62753

>  <r_i_glide_lipo>  (113) 
-0.412939

>  <r_i_glide_hbond>  (113) 
0

>  <r_i_glide_metal>  (113) 
-0

>  <r_i_glide_rewards>  (113) 
-0.502063

>  <r_i_glide_evdw>  (113) 
-32.9239

>  <r_i_glide_ecoul>  (113) 
-3.99139

>  <r_i_glide_erotb>  (113) 
0.1438

>  <r_i_glide_esite>  (113) 
-0.0262148

>  <r_i_glide_emodel>  (113) 
-30.3623

>  <r_i_glide_energy>  (113) 
-36.9153

>  <r_i_glide_einternal>  (113) 
19.5256

>  <r_i_glide_intrahb_reward>  (113) 
-0.5

>  <i_i_glide_confnum>  (113) 
3

>  <i_i_glide_posenum>  (113) 
5

>  <r_i_glide_eff_state_penalty>  (113) 
0

>  <ligand_id>  (113) 
83

>  <original_smiles>  (113) 
C=CC1(C)CC2(C)C(OC3OC4C(O)C(=C)C5CCC6(O)C(OC(C)=O)C(O)(C(C)C)C7(C)C8OC(C(C)C)(C(=O)C58C=O)C36C4[S+]7[O-])C(=C)C3(C)CC(O)C4(C(C)(C)O)CC3C(C(O)C3CO3)(O4)C2(O)C1=O

>  <smiles>  (113) 
[H]OC1([H])C(=C([H])[H])C2([H])C([H])([H])C([H])([H])C3(O[H])C([H])(OC(=O)C([H])([H])[H])C(O[H])(C([H])(C([H])([H])[H])C([H])([H])[H])C4(C([H])([H])[H])S(=O)C5([H])C1([H])OC([H])(OC1([H])C(=C([H])[H])C6(C([H])([H])[H])C([H])([H])C([H])(O[H])C7(C(O[H])(C([H])([H])[H])C([H])([H])[H])OC(C([H])(O[H])C8([H])OC8([H])[H])(C8(O[H])C(=O)C(C([H])=C([H])[H])(C([H])([H])[H])C([H])([H])C18C([H])([H])[H])C6([H])C7([H])[H])C53C1(C([H])(C([H])([H])[H])C([H])([H])[H])OC4([H])C2(C([H])=O)C1=O

$$$$
86:0:0
     RDKit          3D

106114  0  0  1  0  0  0  0  0999 V2000
    3.9892   -5.5402    8.5188 C   0  0  0  0  0  0  0  0  0  0  0  0
    4.5635   -4.8632    7.2341 C   0  0  2  0  0  0  0  0  0  0  0  0
    5.3194   -3.8172    7.7894 O   0  0  0  0  0  0  0  0  0  0  0  0
    3.6208   -4.4895    5.9511 C   0  0  2  0  0  0  0  0  0  0  0  0
    2.8118   -5.6761    6.0913 O   0  0  0  0  0  0  0  0  0  0  0  0
    2.6699   -6.5343    4.9744 C   0  0  2  0  0  0  0  0  0  0  0  0
    3.2861   -7.8918    5.3685 C   0  0  1  0  0  0  0  0  0  0  0  0
    2.2354   -8.8066    5.7440 O   0  0  0  0  0  0  0  0  0  0  0  0
    3.1528   -9.2951    4.7733 C   0  0  2  0  0  0  0  0  0  0  0  0
    4.0283  -10.4164    5.2978 C   0  0  0  0  0  0  0  0  0  0  0  0
    2.6222   -9.4638    3.3598 C   0  0  1  0  0  0  0  0  0  0  0  0
    3.6470   -9.7113    2.4079 O   0  0  0  0  0  0  0  0  0  0  0  0
    1.3511  -10.1785    2.9480 C   0  0  0  0  0  0  0  0  0  0  0  0
    0.6881  -11.2098    2.8811 O   0  0  0  0  0  0  0  0  0  0  0  0
    1.4291   -8.6729    2.8466 C   0  0  2  0  0  0  0  0  0  0  0  0
    1.7189   -8.0933    1.5752 O   0  0  0  0  0  0  0  0  0  0  0  0
    2.0666   -6.7368    1.6164 C   0  0  1  0  0  0  0  0  0  0  0  0
    0.9743   -5.9075    1.9764 O   0  0  0  0  0  0  0  0  0  0  0  0
    3.3385   -6.4906    2.4820 C   0  0  0  0  0  0  0  0  0  0  0  0
    4.4164   -6.9103    2.0513 O   0  0  0  0  0  0  0  0  0  0  0  0
    3.2208   -5.6939    3.8141 C   0  0  2  0  0  0  0  0  0  0  0  0
    4.3039   -4.7186    4.4220 C   0  0  2  0  0  0  0  0  0  0  0  0
    5.6528   -5.5385    4.6015 C   0  0  0  0  0  0  0  0  0  0  0  0
    6.4377   -5.8145    3.4543 O   0  0  0  0  0  0  0  0  0  0  0  0
    4.7452   -3.5253    3.3512 C   0  0  1  0  0  0  0  0  0  0  0  0
    4.6292   -3.9657    2.0137 O   0  0  0  0  0  0  0  0  0  0  0  0
    4.5159   -1.9359    3.3305 C   0  0  1  0  0  0  0  0  0  0  0  0
    5.6984   -1.3921    2.7511 O   0  0  0  0  0  0  0  0  0  0  0  0
    3.4167   -1.1145    2.4345 C   0  0  1  0  0  0  0  0  0  0  0  0
    3.3644   -1.5273    1.0765 O   0  0  0  0  0  0  0  0  0  0  0  0
    2.0313   -1.0840    3.1229 C   0  0  2  0  0  0  0  0  0  0  0  0
    1.7522   -2.6099    3.1449 C   0  0  0  0  0  0  0  0  0  0  0  0
    0.6354   -0.5787    2.7179 C   0  0  0  0  0  0  0  0  0  0  0  0
   -0.2886   -0.8203    4.0077 C   0  0  0  0  0  0  0  0  0  0  0  0
    0.2692   -0.3562    5.4407 C   0  0  2  0  0  0  0  0  0  0  0  0
   -0.4591    1.0447    5.7232 C   0  0  1  0  0  0  0  0  0  0  0  0
   -0.6803    2.0078    4.5124 C   0  0  0  0  0  0  0  0  0  0  0  0
   -1.7765    0.6935    6.1334 O   0  0  0  0  0  0  0  0  0  0  0  0
    0.0758    1.9833    6.8289 C   0  0  0  0  0  0  0  0  0  0  0  0
    0.7464    1.3729    8.0488 C   0  0  2  0  0  0  0  0  0  0  0  0
   -0.1650    0.5966    8.8045 O   0  0  0  0  0  0  0  0  0  0  0  0
    1.2824    2.5114    8.7663 O   0  0  0  0  0  0  0  0  0  0  0  0
    2.5961    2.2115    8.2410 C   0  0  0  0  0  0  0  0  0  0  0  0
    2.1511    0.7930    7.8772 C   0  0  1  0  0  0  0  0  0  0  0  0
    2.6321   -0.2302    8.9018 C   0  0  0  0  0  0  0  0  0  0  0  0
    2.4343    0.5688    6.4741 O   0  0  0  0  0  0  0  0  0  0  0  0
    1.8788   -0.4946    5.6481 C   0  0  2  0  0  0  0  0  0  0  0  0
    2.3011   -0.0466    4.2776 C   0  0  0  0  0  0  0  0  0  0  0  0
    2.8329   -1.8046    5.9230 C   0  0  2  0  0  0  0  0  0  0  0  0
    4.5335   -1.5188    5.1456 S   0  0  0  0  0  0  0  0  0  0  0  0
    5.6907   -2.2487    5.8080 O   0  0  0  0  0  0  0  0  0  0  0  0
    2.4549   -3.3522    6.2487 C   0  0  0  0  0  0  0  0  0  0  0  0
    1.0364   -3.8275    5.7509 C   0  0  0  0  0  0  0  0  0  0  0  0
    2.0746   -3.3277    7.7537 C   0  0  0  0  0  0  0  0  0  0  0  0
    4.7972   -5.9953    9.1008 H   0  0  0  0  0  0  0  0  0  0  0  0
    3.2770   -6.3313    8.3037 H   0  0  0  0  0  0  0  0  0  0  0  0
    3.5277   -4.8520    9.2244 H   0  0  0  0  0  0  0  0  0  0  0  0
    5.2823   -5.6283    6.9682 H   0  0  0  0  0  0  0  0  0  0  0  0
    5.9902   -4.1790    8.3505 H   0  0  0  0  0  0  0  0  0  0  0  0
    1.5953   -6.6765    4.8463 H   0  0  0  0  0  0  0  0  0  0  0  0
    4.0607   -7.8042    6.1271 H   0  0  0  0  0  0  0  0  0  0  0  0
    4.9722  -10.4490    4.7515 H   0  0  0  0  0  0  0  0  0  0  0  0
    3.5340  -11.3823    5.1816 H   0  0  0  0  0  0  0  0  0  0  0  0
    4.2465  -10.2788    6.3526 H   0  0  0  0  0  0  0  0  0  0  0  0
    3.4915  -10.5434    1.9804 H   0  0  0  0  0  0  0  0  0  0  0  0
    0.7916   -8.0906    3.4949 H   0  0  0  0  0  0  0  0  0  0  0  0
    2.3162   -6.4744    0.5881 H   0  0  0  0  0  0  0  0  0  0  0  0
    0.8137   -6.0305    2.8974 H   0  0  0  0  0  0  0  0  0  0  0  0
    2.4204   -5.0282    3.5559 H   0  0  0  0  0  0  0  0  0  0  0  0
    6.3389   -4.9868    5.2479 H   0  0  0  0  0  0  0  0  0  0  0  0
    5.4792   -6.5061    5.0613 H   0  0  0  0  0  0  0  0  0  0  0  0
    7.1418   -6.3975    3.6989 H   0  0  0  0  0  0  0  0  0  0  0  0
    5.8186   -3.5017    3.5027 H   0  0  0  0  0  0  0  0  0  0  0  0
    5.0836   -4.7978    1.9540 H   0  0  0  0  0  0  0  0  0  0  0  0
    5.4534   -0.6998    2.1570 H   0  0  0  0  0  0  0  0  0  0  0  0
    3.7418   -0.0762    2.3168 H   0  0  0  0  0  0  0  0  0  0  0  0
    2.6647   -1.0673    0.6322 H   0  0  0  0  0  0  0  0  0  0  0  0
    0.7484   -2.9680    3.3054 H   0  0  0  0  0  0  0  0  0  0  0  0
    2.4005   -3.0888    3.8284 H   0  0  0  0  0  0  0  0  0  0  0  0
    1.9456   -3.0830    2.1809 H   0  0  0  0  0  0  0  0  0  0  0  0
    0.6265    0.4643    2.3989 H   0  0  0  0  0  0  0  0  0  0  0  0
    0.2564   -1.1084    1.8486 H   0  0  0  0  0  0  0  0  0  0  0  0
   -1.2658   -0.4023    3.7988 H   0  0  0  0  0  0  0  0  0  0  0  0
   -0.6242   -1.8455    4.1136 H   0  0  0  0  0  0  0  0  0  0  0  0
   -0.1448   -1.0137    6.2054 H   0  0  0  0  0  0  0  0  0  0  0  0
    0.2562    2.3458    4.0769 H   0  0  0  0  0  0  0  0  0  0  0  0
   -1.2057    2.9063    4.8342 H   0  0  0  0  0  0  0  0  0  0  0  0
   -1.2888    1.6137    3.7037 H   0  0  0  0  0  0  0  0  0  0  0  0
   -2.2668    0.4846    5.3534 H   0  0  0  0  0  0  0  0  0  0  0  0
    0.8091    2.6387    6.3473 H   0  0  0  0  0  0  0  0  0  0  0  0
   -0.7009    2.6781    7.1544 H   0  0  0  0  0  0  0  0  0  0  0  0
    0.1114    0.6783    9.7081 H   0  0  0  0  0  0  0  0  0  0  0  0
    2.8647    2.8489    7.3941 H   0  0  0  0  0  0  0  0  0  0  0  0
    3.3764    2.2509    9.0074 H   0  0  0  0  0  0  0  0  0  0  0  0
    2.6341    0.1935    9.9054 H   0  0  0  0  0  0  0  0  0  0  0  0
    3.6492   -0.5730    8.7212 H   0  0  0  0  0  0  0  0  0  0  0  0
    1.9551   -1.0663    8.9783 H   0  0  0  0  0  0  0  0  0  0  0  0
    3.2862    0.4121    4.2809 H   0  0  0  0  0  0  0  0  0  0  0  0
    1.8141    0.8978    4.0665 H   0  0  0  0  0  0  0  0  0  0  0  0
    3.2426   -1.5329    6.8793 H   0  0  0  0  0  0  0  0  0  0  0  0
    0.3382   -3.0081    5.6681 H   0  0  0  0  0  0  0  0  0  0  0  0
    0.5548   -4.5425    6.4238 H   0  0  0  0  0  0  0  0  0  0  0  0
    1.0261   -4.3811    4.8251 H   0  0  0  0  0  0  0  0  0  0  0  0
    1.2079   -2.6856    7.9224 H   0  0  0  0  0  0  0  0  0  0  0  0
    2.8895   -2.9753    8.3840 H   0  0  0  0  0  0  0  0  0  0  0  0
    1.7717   -4.3056    8.1271 H   0  0  0  0  0  0  0  0  0  0  0  0
  1  2  1  0
  1 55  1  0
  1 56  1  0
  1 57  1  0
  2  3  1  0
  2  4  1  0
  2 58  1  6
  3 59  1  0
  4 22  1  0
  4 52  1  0
  4  5  1  6
  5  6  1  0
  6 21  1  0
  6  7  1  0
  6 60  1  6
  7  9  1  0
  7  8  1  0
  7 61  1  1
  8  9  1  0
  9 10  1  1
  9 11  1  0
 10 62  1  0
 10 63  1  0
 10 64  1  0
 11 15  1  0
 11 12  1  6
 11 13  1  0
 12 65  1  0
 13 14  2  0
 13 15  1  0
 15 16  1  0
 15 66  1  1
 16 17  1  0
 17 18  1  0
 17 19  1  0
 17 67  1  6
 18 68  1  0
 19 20  2  0
 19 21  1  0
 21 22  1  0
 21 69  1  6
 22 23  1  1
 22 25  1  0
 23 24  1  0
 23 70  1  0
 23 71  1  0
 24 72  1  0
 25 26  1  0
 25 27  1  0
 25 73  1  1
 26 74  1  0
 50 27  1  6
 27 28  1  6
 27 29  1  0
 28 75  1  0
 29 30  1  0
 29 31  1  0
 29 76  1  6
 30 77  1  0
 31 48  1  0
 31 32  1  1
 31 33  1  0
 32 78  1  0
 32 79  1  0
 32 80  1  0
 33 34  1  0
 33 81  1  0
 33 82  1  0
 34 35  1  0
 34 83  1  0
 34 84  1  0
 35 47  1  0
 35 36  1  0
 35 85  1  1
 36 37  1  0
 36 38  1  1
 36 39  1  0
 37 86  1  0
 37 87  1  0
 37 88  1  0
 38 89  1  0
 39 40  1  0
 39 90  1  0
 39 91  1  0
 40 44  1  0
 40 41  1  1
 40 42  1  0
 41 92  1  0
 42 43  1  0
 43 44  1  0
 43 93  1  0
 43 94  1  0
 44 45  1  1
 44 46  1  0
 45 95  1  0
 45 96  1  0
 45 97  1  0
 47 46  1  1
 47 48  1  0
 47 49  1  0
 48 98  1  0
 48 99  1  0
 49 50  1  0
 49 52  1  0
 49100  1  1
 50 51  2  0
 52 53  1  0
 52 54  1  0
 53101  1  0
 53102  1  0
 53103  1  0
 54104  1  0
 54105  1  0
 54106  1  0
M  END
>  <i_m_ct_stereo_status>  (114) 
1

>  <s_m_source_file>  (114) 
/var/tmp/pbs.5075288.sched01/tmpd529dnjr/198klec4xt1.sdf

>  <i_m_source_file_index>  (114) 
21

>  <i_lp_mmshare_version>  (114) 
48012

>  <i_f3d_flags>  (114) 
0

>  <s_epik_input>  (114) 
Tz1DKFtDQEBIXTEyKVtDQEhdKFtPSF0pT1tDSF0oQzM9TylDMyhbT0hdKVtDQEBdKE80KShbQ0gzXSlbQ0hdNFtDQEhdMU9bQ0BdKFtDQEhdKFtDSDNdKVtPSF0pKEMoW0NIM10pKFtDSDNdKVtDQEhdNVtTK102W08tXSlbQ0BdMihbQ0gyXVtPSF0pW0NAQEhdKFtPSF0pW0NAQF02KFtPSF0pW0NAQEhdKFtPSF0pW0NAQF0oW0NIM10pKFtDSDJdNylbQ0gyXVtDSDJdW0NAQEhdKFtDQEBdNTc4KVtDQEBdKFtDSDNdKShbT0hdKVtDSDJdW0NAQF05KFtPSF0pW0NAQF0oTzgpKFtDSDJdTzkpW0NIM10=

>  <s_epik_cmdline>  (114) 
J2VwaWtfcHl0aG9uJywgJy1waHQnLCAnMi4wJywgJy1waCcsICc3LjAnLCAnLXRuJywgJzgnLCAnLW1hJywgJzIwMCcsICctaW1hZScsICc8aW5maWxlLm1hZT4nLCAnLW9tYWUnLCAnPG91dGZpbGUubWFlPic=

>  <r_lp_tautomer_probability>  (114) 
1

>  <r_epik_Ionization_Penalty>  (114) 
4.44335e-05

>  <r_epik_Ionization_Penalty_Charging>  (114) 
0

>  <r_epik_Ionization_Penalty_Neutral>  (114) 
4.44335e-05

>  <r_epik_State_Penalty>  (114) 
-0

>  <r_epik_Charging_Adjusted_Penalty>  (114) 
0

>  <i_epik_Tot_Q>  (114) 
0

>  <i_epik_Tot_abs_Q>  (114) 
2

>  <s_epik_Chemistry_Notes>  (114) 
This compound contains an acetal/aminal-like group ( X-CH(R)-Y where X, Y are N, S, or O) that may be acid/base labile, releasing an aldehyde.

>  <s_lp_Force_Field>  (114) 
OPLS3e

>  <r_lp_Energy>  (114) 
304.685

>  <b_lp_Chiralities_Consistent>  (114) 
1

>  <s_lp_Variant>  (114) 
86:0-1

>  <s_i_glide_gridfile>  (114) 
pfpi4k_grid

>  <i_i_glide_lignum>  (114) 
21

>  <i_i_glide_rotatable_bonds>  (114) 
11

>  <r_i_docking_score>  (114) 
-3.31749

>  <r_i_glide_ligand_efficiency>  (114) 
-0.061435

>  <r_i_glide_ligand_efficiency_sa>  (114) 
-0.23221

>  <r_i_glide_ligand_efficiency_ln>  (114) 
-0.664963

>  <r_i_glide_gscore>  (114) 
-3.31749

>  <r_i_glide_lipo>  (114) 
-0.070896

>  <r_i_glide_hbond>  (114) 
0

>  <r_i_glide_metal>  (114) 
-0

>  <r_i_glide_rewards>  (114) 
-0.685171

>  <r_i_glide_evdw>  (114) 
-27.4672

>  <r_i_glide_ecoul>  (114) 
-8.22185

>  <r_i_glide_erotb>  (114) 
0.0698826

>  <r_i_glide_esite>  (114) 
-0.0246694

>  <r_i_glide_emodel>  (114) 
-45.1715

>  <r_i_glide_energy>  (114) 
-35.689

>  <r_i_glide_einternal>  (114) 
5.84835

>  <r_i_glide_intrahb_reward>  (114) 
-0.5

>  <i_i_glide_confnum>  (114) 
6

>  <i_i_glide_posenum>  (114) 
21

>  <r_i_glide_eff_state_penalty>  (114) 
0

>  <ligand_id>  (114) 
86

>  <original_smiles>  (114) 
CC(O)C12OC3C4OC4(C)C4(O)C(=O)C4OC(O)C(=O)C3C1(CO)C(O)C1(O)C(O)C3(C)CCC4C(C)(O)CC5(O)OCC5(C)OC4(C3)C([S+]1[O-])C2(C)C

>  <smiles>  (114) 
[H]OC1([H])OC2([H])C(=O)C2(O[H])C2(C([H])([H])[H])OC2([H])C2([H])OC3(C([H])(O[H])C([H])([H])[H])C(C([H])([H])O[H])(C([H])(O[H])C4(O[H])S(=O)C([H])(C56OC7(C([H])([H])[H])C([H])([H])OC7(O[H])C([H])([H])C(O[H])(C([H])([H])[H])C5([H])C([H])([H])C([H])([H])C(C([H])([H])[H])(C6([H])[H])C4([H])O[H])C3(C([H])([H])[H])C([H])([H])[H])C2([H])C1=O

$$$$
86:0:1
     RDKit          3D

106114  0  0  1  0  0  0  0  0999 V2000
    1.7668   -1.7483    9.6192 C   0  0  0  0  0  0  0  0  0  0  0  0
    1.3104   -2.6183    8.4320 C   0  0  2  0  0  0  0  0  0  0  0  0
    1.4650   -3.9425    8.9010 O   0  0  0  0  0  0  0  0  0  0  0  0
    1.6982   -2.2868    6.8858 C   0  0  2  0  0  0  0  0  0  0  0  0
    0.6873   -3.1899    6.3726 O   0  0  0  0  0  0  0  0  0  0  0  0
    1.0860   -4.1470    5.4010 C   0  0  2  0  0  0  0  0  0  0  0  0
    0.8502   -5.5458    6.0193 C   0  0  1  0  0  0  0  0  0  0  0  0
   -0.3739   -6.1133    5.5094 O   0  0  0  0  0  0  0  0  0  0  0  0
    0.7768   -6.9447    5.4103 C   0  0  2  0  0  0  0  0  0  0  0  0
    0.7105   -8.1580    6.3281 C   0  0  0  0  0  0  0  0  0  0  0  0
    1.3170   -7.1868    4.0109 C   0  0  1  0  0  0  0  0  0  0  0  0
    2.5673   -7.8505    4.0100 O   0  0  0  0  0  0  0  0  0  0  0  0
    0.5309   -7.6115    2.7959 C   0  0  0  0  0  0  0  0  0  0  0  0
   -0.1452   -8.4612    2.2218 O   0  0  0  0  0  0  0  0  0  0  0  0
    1.0801   -6.2038    2.8784 C   0  0  2  0  0  0  0  0  0  0  0  0
    2.2884   -5.9212    2.1759 O   0  0  0  0  0  0  0  0  0  0  0  0
    2.9258   -4.7219    2.5376 C   0  0  1  0  0  0  0  0  0  0  0  0
    2.2184   -3.5778    2.1106 O   0  0  0  0  0  0  0  0  0  0  0  0
    3.2425   -4.6681    4.0684 C   0  0  0  0  0  0  0  0  0  0  0  0
    4.1468   -5.3870    4.5069 O   0  0  0  0  0  0  0  0  0  0  0  0
    2.4870   -3.6631    4.9835 C   0  0  2  0  0  0  0  0  0  0  0  0
    3.1130   -2.9071    6.2232 C   0  0  2  0  0  0  0  0  0  0  0  0
    3.6964   -4.0006    7.2049 C   0  0  0  0  0  0  0  0  0  0  0  0
    4.9349   -4.6124    6.8915 O   0  0  0  0  0  0  0  0  0  0  0  0
    4.4717   -2.0309    5.8378 C   0  0  1  0  0  0  0  0  0  0  0  0
    5.1233   -2.5926    4.7196 O   0  0  0  0  0  0  0  0  0  0  0  0
    4.7618   -0.4577    5.7542 C   0  0  1  0  0  0  0  0  0  0  0  0
    6.0919   -0.3001    6.2246 O   0  0  0  0  0  0  0  0  0  0  0  0
    4.8433    0.4520    4.3947 C   0  0  1  0  0  0  0  0  0  0  0  0
    5.5716   -0.1276    3.3212 O   0  0  0  0  0  0  0  0  0  0  0  0
    3.4380    0.9323    3.9454 C   0  0  2  0  0  0  0  0  0  0  0  0
    2.8025   -0.4565    3.6829 C   0  0  0  0  0  0  0  0  0  0  0  0
    2.8846    1.6908    2.7179 C   0  0  0  0  0  0  0  0  0  0  0  0
    1.3234    1.8900    3.0122 C   0  0  0  0  0  0  0  0  0  0  0  0
    0.8865    2.4201    4.4620 C   0  0  2  0  0  0  0  0  0  0  0  0
    0.6070    3.9888    4.2639 C   0  0  1  0  0  0  0  0  0  0  0  0
    1.5489    4.7826    3.3047 C   0  0  0  0  0  0  0  0  0  0  0  0
   -0.6726    4.0671    3.6574 O   0  0  0  0  0  0  0  0  0  0  0  0
    0.4915    4.9232    5.4893 C   0  0  0  0  0  0  0  0  0  0  0  0
   -0.0415    4.3576    6.7918 C   0  0  2  0  0  0  0  0  0  0  0  0
   -1.3863    3.9531    6.6705 O   0  0  0  0  0  0  0  0  0  0  0  0
    0.1669    5.4278    7.7490 O   0  0  0  0  0  0  0  0  0  0  0  0
    1.3308    4.7326    8.2532 C   0  0  0  0  0  0  0  0  0  0  0  0
    0.8659    3.4287    7.5935 C   0  0  1  0  0  0  0  0  0  0  0  0
    0.2161    2.4840    8.6037 C   0  0  0  0  0  0  0  0  0  0  0  0
    1.9332    2.9267    6.7530 O   0  0  0  0  0  0  0  0  0  0  0  0
    1.8087    1.9214    5.7059 C   0  0  2  0  0  0  0  0  0  0  0  0
    3.1452    2.0374    5.0287 C   0  0  0  0  0  0  0  0  0  0  0  0
    1.9001    0.4743    6.4820 C   0  0  2  0  0  0  0  0  0  0  0  0
    3.6661    0.2120    7.0918 S   0  0  0  0  0  0  0  0  0  0  0  0
    3.8329   -0.6812    8.3105 O   0  0  0  0  0  0  0  0  0  0  0  0
    1.0009   -0.8708    6.3726 C   0  0  0  0  0  0  0  0  0  0  0  0
    0.2237   -1.0505    5.0147 C   0  0  0  0  0  0  0  0  0  0  0  0
   -0.2675   -0.5534    7.2246 C   0  0  0  0  0  0  0  0  0  0  0  0
    1.1364   -1.9413   10.4898 H   0  0  0  0  0  0  0  0  0  0  0  0
    1.7007   -0.6790    9.4281 H   0  0  0  0  0  0  0  0  0  0  0  0
    2.7836   -1.9792    9.9387 H   0  0  0  0  0  0  0  0  0  0  0  0
    0.2277   -2.5846    8.5083 H   0  0  0  0  0  0  0  0  0  0  0  0
    2.3868   -4.1315    9.0000 H   0  0  0  0  0  0  0  0  0  0  0  0
    0.3985   -4.0360    4.5592 H   0  0  0  0  0  0  0  0  0  0  0  0
    0.9075   -5.5554    7.1022 H   0  0  0  0  0  0  0  0  0  0  0  0
    1.7129   -8.5034    6.5793 H   0  0  0  0  0  0  0  0  0  0  0  0
    0.1787   -8.9779    5.8450 H   0  0  0  0  0  0  0  0  0  0  0  0
    0.1950   -7.9185    7.2526 H   0  0  0  0  0  0  0  0  0  0  0  0
    2.4765   -8.6340    4.5328 H   0  0  0  0  0  0  0  0  0  0  0  0
    0.3736   -5.3891    2.9508 H   0  0  0  0  0  0  0  0  0  0  0  0
    3.8668   -4.7097    1.9887 H   0  0  0  0  0  0  0  0  0  0  0  0
    2.2628   -3.5364    1.1647 H   0  0  0  0  0  0  0  0  0  0  0  0
    2.2955   -2.8707    4.2841 H   0  0  0  0  0  0  0  0  0  0  0  0
    3.8574   -3.5540    8.1857 H   0  0  0  0  0  0  0  0  0  0  0  0
    3.0237   -4.8438    7.3119 H   0  0  0  0  0  0  0  0  0  0  0  0
    4.8049   -5.1760    6.1325 H   0  0  0  0  0  0  0  0  0  0  0  0
    5.1358   -2.2592    6.6778 H   0  0  0  0  0  0  0  0  0  0  0  0
    5.2982   -3.5023    4.9262 H   0  0  0  0  0  0  0  0  0  0  0  0
    6.0354   -0.0772    7.1443 H   0  0  0  0  0  0  0  0  0  0  0  0
    5.4464    1.3366    4.6031 H   0  0  0  0  0  0  0  0  0  0  0  0
    5.1925   -0.9790    3.1532 H   0  0  0  0  0  0  0  0  0  0  0  0
    1.9041   -0.5198    3.0944 H   0  0  0  0  0  0  0  0  0  0  0  0
    2.6574   -0.9697    4.5936 H   0  0  0  0  0  0  0  0  0  0  0  0
    3.4355   -1.1052    3.0786 H   0  0  0  0  0  0  0  0  0  0  0  0
    3.3765    2.6438    2.5494 H   0  0  0  0  0  0  0  0  0  0  0  0
    3.0327    1.1353    1.7873 H   0  0  0  0  0  0  0  0  0  0  0  0
    0.9190    2.5034    2.2169 H   0  0  0  0  0  0  0  0  0  0  0  0
    0.7300    1.0097    2.7906 H   0  0  0  0  0  0  0  0  0  0  0  0
   -0.0953    2.0113    4.6880 H   0  0  0  0  0  0  0  0  0  0  0  0
    2.5737    4.8190    3.6598 H   0  0  0  0  0  0  0  0  0  0  0  0
    1.2103    5.8157    3.2060 H   0  0  0  0  0  0  0  0  0  0  0  0
    1.6058    4.4076    2.2931 H   0  0  0  0  0  0  0  0  0  0  0  0
   -0.5434    4.0093    2.7133 H   0  0  0  0  0  0  0  0  0  0  0  0
    1.5013    5.2946    5.6820 H   0  0  0  0  0  0  0  0  0  0  0  0
   -0.0619    5.8291    5.2293 H   0  0  0  0  0  0  0  0  0  0  0  0
   -1.4294    3.3696    5.9251 H   0  0  0  0  0  0  0  0  0  0  0  0
    2.2643    5.1452    7.8615 H   0  0  0  0  0  0  0  0  0  0  0  0
    1.3584    4.6945    9.3445 H   0  0  0  0  0  0  0  0  0  0  0  0
   -0.3375    3.0442    9.3563 H   0  0  0  0  0  0  0  0  0  0  0  0
    0.9396    1.8828    9.1523 H   0  0  0  0  0  0  0  0  0  0  0  0
   -0.5325    1.8587    8.1420 H   0  0  0  0  0  0  0  0  0  0  0  0
    3.9517    2.2373    5.7302 H   0  0  0  0  0  0  0  0  0  0  0  0
    3.2219    3.0277    4.5955 H   0  0  0  0  0  0  0  0  0  0  0  0
    1.6102    0.7784    7.4703 H   0  0  0  0  0  0  0  0  0  0  0  0
    0.0371   -0.1053    4.5275 H   0  0  0  0  0  0  0  0  0  0  0  0
   -0.7619   -1.5082    5.1330 H   0  0  0  0  0  0  0  0  0  0  0  0
    0.6772   -1.7160    4.2957 H   0  0  0  0  0  0  0  0  0  0  0  0
   -0.8120    0.2841    6.7859 H   0  0  0  0  0  0  0  0  0  0  0  0
   -0.0697   -0.3005    8.2654 H   0  0  0  0  0  0  0  0  0  0  0  0
   -0.9680   -1.3876    7.2335 H   0  0  0  0  0  0  0  0  0  0  0  0
  1  2  1  0
  1 55  1  0
  1 56  1  0
  1 57  1  0
  2  3  1  0
  2  4  1  0
  2 58  1  6
  3 59  1  0
  4 22  1  0
  4 52  1  0
  4  5  1  6
  5  6  1  0
  6 21  1  0
  6  7  1  0
  6 60  1  6
  7  9  1  0
  7  8  1  0
  7 61  1  1
  8  9  1  0
  9 10  1  1
  9 11  1  0
 10 62  1  0
 10 63  1  0
 10 64  1  0
 11 15  1  0
 11 12  1  1
 11 13  1  0
 12 65  1  0
 13 14  2  0
 13 15  1  0
 15 16  1  0
 15 66  1  1
 16 17  1  0
 17 18  1  0
 17 19  1  0
 17 67  1  6
 18 68  1  0
 19 20  2  0
 19 21  1  0
 21 22  1  0
 21 69  1  6
 22 23  1  1
 22 25  1  0
 23 24  1  0
 23 70  1  0
 23 71  1  0
 24 72  1  0
 25 26  1  0
 25 27  1  0
 25 73  1  1
 26 74  1  0
 50 27  1  6
 27 28  1  1
 27 29  1  0
 28 75  1  0
 29 30  1  0
 29 31  1  0
 29 76  1  1
 30 77  1  0
 31 48  1  0
 31 32  1  1
 31 33  1  0
 32 78  1  0
 32 79  1  0
 32 80  1  0
 33 34  1  0
 33 81  1  0
 33 82  1  0
 34 35  1  0
 34 83  1  0
 34 84  1  0
 35 47  1  0
 35 36  1  0
 35 85  1  1
 36 37  1  0
 36 38  1  6
 36 39  1  0
 37 86  1  0
 37 87  1  0
 37 88  1  0
 38 89  1  0
 39 40  1  0
 39 90  1  0
 39 91  1  0
 40 44  1  0
 40 41  1  6
 40 42  1  0
 41 92  1  0
 42 43  1  0
 43 44  1  0
 43 93  1  0
 43 94  1  0
 44 45  1  1
 44 46  1  0
 45 95  1  0
 45 96  1  0
 45 97  1  0
 47 46  1  1
 47 48  1  0
 47 49  1  0
 48 98  1  0
 48 99  1  0
 49 50  1  0
 49 52  1  0
 49100  1  1
 50 51  2  0
 52 53  1  0
 52 54  1  0
 53101  1  0
 53102  1  0
 53103  1  0
 54104  1  0
 54105  1  0
 54106  1  0
M  END
>  <i_m_ct_stereo_status>  (115) 
1

>  <s_m_source_file>  (115) 
/var/tmp/pbs.5075288.sched01/tmpd529dnjr/198klec4xt1.sdf

>  <i_m_source_file_index>  (115) 
21

>  <i_lp_mmshare_version>  (115) 
48012

>  <i_f3d_flags>  (115) 
0

>  <s_epik_input>  (115) 
Tz1DKFtDQEBIXTEyKVtDQEhdKFtPSF0pT1tDSF0oQzM9TylDMyhbT0hdKVtDQEBdKE80KShbQ0gzXSlbQ0hdNFtDQEhdMU9bQ0BdKFtDQEhdKFtDSDNdKVtPSF0pKEMoW0NIM10pKFtDSDNdKVtDQEhdNVtTK102W08tXSlbQ0BdMihbQ0gyXVtPSF0pW0NAQEhdKFtPSF0pW0NAQF02KFtPSF0pW0NAQEhdKFtPSF0pW0NAQF0oW0NIM10pKFtDSDJdNylbQ0gyXVtDSDJdW0NAQEhdKFtDQEBdNTc4KVtDQEBdKFtDSDNdKShbT0hdKVtDSDJdW0NAQF05KFtPSF0pW0NAQF0oTzgpKFtDSDJdTzkpW0NIM10=

>  <s_epik_cmdline>  (115) 
J2VwaWtfcHl0aG9uJywgJy1waHQnLCAnMi4wJywgJy1waCcsICc3LjAnLCAnLXRuJywgJzgnLCAnLW1hJywgJzIwMCcsICctaW1hZScsICc8aW5maWxlLm1hZT4nLCAnLW9tYWUnLCAnPG91dGZpbGUubWFlPic=

>  <r_lp_tautomer_probability>  (115) 
1

>  <r_epik_Ionization_Penalty>  (115) 
4.44335e-05

>  <r_epik_Ionization_Penalty_Charging>  (115) 
0

>  <r_epik_Ionization_Penalty_Neutral>  (115) 
4.44335e-05

>  <r_epik_State_Penalty>  (115) 
-0

>  <r_epik_Charging_Adjusted_Penalty>  (115) 
0

>  <i_epik_Tot_Q>  (115) 
0

>  <i_epik_Tot_abs_Q>  (115) 
2

>  <s_epik_Chemistry_Notes>  (115) 
This compound contains an acetal/aminal-like group ( X-CH(R)-Y where X, Y are N, S, or O) that may be acid/base labile, releasing an aldehyde.

>  <s_lp_Force_Field>  (115) 
OPLS3e

>  <r_lp_Energy>  (115) 
304.685

>  <b_lp_Chiralities_Consistent>  (115) 
1

>  <s_lp_Variant>  (115) 
86:0-1

>  <s_i_glide_gridfile>  (115) 
pfpi4k_grid

>  <i_i_glide_lignum>  (115) 
21

>  <i_i_glide_rotatable_bonds>  (115) 
11

>  <r_i_docking_score>  (115) 
-3.13465

>  <r_i_glide_ligand_efficiency>  (115) 
-0.0580491

>  <r_i_glide_ligand_efficiency_sa>  (115) 
-0.219412

>  <r_i_glide_ligand_efficiency_ln>  (115) 
-0.628315

>  <r_i_glide_gscore>  (115) 
-3.13465

>  <r_i_glide_lipo>  (115) 
-0.0957781

>  <r_i_glide_hbond>  (115) 
0

>  <r_i_glide_metal>  (115) 
-0

>  <r_i_glide_rewards>  (115) 
-1

>  <r_i_glide_evdw>  (115) 
-24.8824

>  <r_i_glide_ecoul>  (115) 
-5.4841

>  <r_i_glide_erotb>  (115) 
0.0698826

>  <r_i_glide_esite>  (115) 
-0.0420244

>  <r_i_glide_emodel>  (115) 
-44.7197

>  <r_i_glide_energy>  (115) 
-30.3665

>  <r_i_glide_einternal>  (115) 
5.30274

>  <r_i_glide_intrahb_reward>  (115) 
-1

>  <i_i_glide_confnum>  (115) 
3

>  <i_i_glide_posenum>  (115) 
15

>  <r_i_glide_eff_state_penalty>  (115) 
0

>  <ligand_id>  (115) 
86

>  <original_smiles>  (115) 
CC(O)C12OC3C4OC4(C)C4(O)C(=O)C4OC(O)C(=O)C3C1(CO)C(O)C1(O)C(O)C3(C)CCC4C(C)(O)CC5(O)OCC5(C)OC4(C3)C([S+]1[O-])C2(C)C

>  <smiles>  (115) 
[H]OC1([H])OC2([H])C(=O)C2(O[H])C2(C([H])([H])[H])OC2([H])C2([H])OC3(C([H])(O[H])C([H])([H])[H])C(C([H])([H])O[H])(C([H])(O[H])C4(O[H])S(=O)C([H])(C56OC7(C([H])([H])[H])C([H])([H])OC7(O[H])C([H])([H])C(O[H])(C([H])([H])[H])C5([H])C([H])([H])C([H])([H])C(C([H])([H])[H])(C6([H])[H])C4([H])O[H])C3(C([H])([H])[H])C([H])([H])[H])C2([H])C1=O

$$$$
86:0:2
     RDKit          3D

106114  0  0  1  0  0  0  0  0999 V2000
   -0.0701   -2.8671    9.0137 C   0  0  0  0  0  0  0  0  0  0  0  0
    1.3767   -2.6534    8.4620 C   0  0  2  0  0  0  0  0  0  0  0  0
    1.9563   -1.9094    9.5063 O   0  0  0  0  0  0  0  0  0  0  0  0
    1.6717   -2.1872    6.9218 C   0  0  2  0  0  0  0  0  0  0  0  0
    0.6910   -3.0938    6.3714 O   0  0  0  0  0  0  0  0  0  0  0  0
    1.1136   -4.0202    5.3741 C   0  0  2  0  0  0  0  0  0  0  0  0
    0.9100   -5.4279    5.9639 C   0  0  1  0  0  0  0  0  0  0  0  0
   -0.3309   -5.9977    5.4388 O   0  0  0  0  0  0  0  0  0  0  0  0
    0.8384   -6.8193    5.3202 C   0  0  2  0  0  0  0  0  0  0  0  0
    0.7627   -8.0532    6.1891 C   0  0  0  0  0  0  0  0  0  0  0  0
    1.3649   -7.0086    3.9048 C   0  0  1  0  0  0  0  0  0  0  0  0
    2.6197   -7.6736    3.8640 O   0  0  0  0  0  0  0  0  0  0  0  0
    0.5878   -7.4039    2.6592 C   0  0  0  0  0  0  0  0  0  0  0  0
   -0.0855   -8.2612    2.0807 O   0  0  0  0  0  0  0  0  0  0  0  0
    1.1292   -6.0017    2.8026 C   0  0  2  0  0  0  0  0  0  0  0  0
    2.3436   -5.7098    2.1146 O   0  0  0  0  0  0  0  0  0  0  0  0
    2.9619   -4.5102    2.5090 C   0  0  1  0  0  0  0  0  0  0  0  0
    2.2206   -3.3603    2.1073 O   0  0  0  0  0  0  0  0  0  0  0  0
    3.2763   -4.4915    4.0310 C   0  0  0  0  0  0  0  0  0  0  0  0
    4.1818   -5.2224    4.4470 O   0  0  0  0  0  0  0  0  0  0  0  0
    2.5089   -3.5152    4.9728 C   0  0  2  0  0  0  0  0  0  0  0  0
    3.1024   -2.7861    6.2441 C   0  0  2  0  0  0  0  0  0  0  0  0
    3.6828   -3.9019    7.2086 C   0  0  0  0  0  0  0  0  0  0  0  0
    4.9146   -4.5142    6.8460 O   0  0  0  0  0  0  0  0  0  0  0  0
    4.4756   -1.9092    5.9093 C   0  0  1  0  0  0  0  0  0  0  0  0
    5.1605   -2.4342    4.7871 O   0  0  0  0  0  0  0  0  0  0  0  0
    4.7633   -0.3410    5.8453 C   0  0  1  0  0  0  0  0  0  0  0  0
    6.1199   -0.1951    6.2553 O   0  0  0  0  0  0  0  0  0  0  0  0
    4.8284    0.6101    4.5206 C   0  0  1  0  0  0  0  0  0  0  0  0
    5.5728    0.0743    3.4337 O   0  0  0  0  0  0  0  0  0  0  0  0
    3.4311    1.1090    4.0817 C   0  0  2  0  0  0  0  0  0  0  0  0
    2.8149   -0.2768    3.7701 C   0  0  0  0  0  0  0  0  0  0  0  0
    2.8834    1.8909    2.8747 C   0  0  0  0  0  0  0  0  0  0  0  0
    1.3253    2.0741    3.1712 C   0  0  0  0  0  0  0  0  0  0  0  0
    0.8798    2.5792    4.6257 C   0  0  2  0  0  0  0  0  0  0  0  0
    0.5871    4.1487    4.4633 C   0  0  1  0  0  0  0  0  0  0  0  0
    1.5192    4.9672    3.5268 C   0  0  0  0  0  0  0  0  0  0  0  0
   -0.6889    4.2391    3.8460 O   0  0  0  0  0  0  0  0  0  0  0  0
    0.4612    5.0381    5.7194 C   0  0  0  0  0  0  0  0  0  0  0  0
   -0.0617    4.4202    7.0062 C   0  0  2  0  0  0  0  0  0  0  0  0
   -1.4097    3.9869    6.8760 O   0  0  0  0  0  0  0  0  0  0  0  0
    0.1417    5.4795    7.9831 O   0  0  0  0  0  0  0  0  0  0  0  0
    1.2985    4.7787    8.4749 C   0  0  0  0  0  0  0  0  0  0  0  0
    0.8387    3.4869    7.7877 C   0  0  1  0  0  0  0  0  0  0  0  0
    0.1957    2.5132    8.7683 C   0  0  0  0  0  0  0  0  0  0  0  0
    1.9153    3.0276    6.9280 O   0  0  0  0  0  0  0  0  0  0  0  0
    1.7973    2.0480    5.8573 C   0  0  2  0  0  0  0  0  0  0  0  0
    3.1315    2.1835    5.1926 C   0  0  0  0  0  0  0  0  0  0  0  0
    1.9021    0.5826    6.5743 C   0  0  2  0  0  0  0  0  0  0  0  0
    3.6605    0.3065    7.1879 S   0  0  0  0  0  0  0  0  0  0  0  0
    3.8034   -0.5635    8.4281 O   0  0  0  0  0  0  0  0  0  0  0  0
    1.0026   -0.7587    6.4201 C   0  0  0  0  0  0  0  0  0  0  0  0
    0.2337   -0.9197    5.0507 C   0  0  0  0  0  0  0  0  0  0  0  0
   -0.2594   -0.3993    7.2253 C   0  0  0  0  0  0  0  0  0  0  0  0
   -0.0584   -3.5272    9.8929 H   0  0  0  0  0  0  0  0  0  0  0  0
   -0.7368   -3.3339    8.2873 H   0  0  0  0  0  0  0  0  0  0  0  0
   -0.5269   -1.9545    9.4030 H   0  0  0  0  0  0  0  0  0  0  0  0
    1.7208   -3.6721    8.5885 H   0  0  0  0  0  0  0  0  0  0  0  0
    1.7651   -0.9933    9.4104 H   0  0  0  0  0  0  0  0  0  0  0  0
    0.4169   -3.9008    4.5397 H   0  0  0  0  0  0  0  0  0  0  0  0
    0.9502   -5.4513    7.0498 H   0  0  0  0  0  0  0  0  0  0  0  0
    1.7646   -8.4098    6.4352 H   0  0  0  0  0  0  0  0  0  0  0  0
    0.2349   -8.8609    5.6739 H   0  0  0  0  0  0  0  0  0  0  0  0
    0.2382   -7.8458    7.1101 H   0  0  0  0  0  0  0  0  0  0  0  0
    2.5321   -8.4487    4.3810 H   0  0  0  0  0  0  0  0  0  0  0  0
    0.4281   -5.1849    2.9121 H   0  0  0  0  0  0  0  0  0  0  0  0
    3.9035   -4.4697    1.9610 H   0  0  0  0  0  0  0  0  0  0  0  0
    2.2648   -3.2923    1.1712 H   0  0  0  0  0  0  0  0  0  0  0  0
    2.3150   -2.7122    4.2928 H   0  0  0  0  0  0  0  0  0  0  0  0
    3.8705   -3.4747    8.1927 H   0  0  0  0  0  0  0  0  0  0  0  0
    2.9936   -4.7269    7.3530 H   0  0  0  0  0  0  0  0  0  0  0  0
    4.7568   -5.0711    6.0913 H   0  0  0  0  0  0  0  0  0  0  0  0
    5.1272   -2.1417    6.7607 H   0  0  0  0  0  0  0  0  0  0  0  0
    5.3685   -3.3328    4.9860 H   0  0  0  0  0  0  0  0  0  0  0  0
    6.5407   -1.0323    6.2249 H   0  0  0  0  0  0  0  0  0  0  0  0
    5.4099    1.4884    4.7886 H   0  0  0  0  0  0  0  0  0  0  0  0
    5.2154   -0.7767    3.2536 H   0  0  0  0  0  0  0  0  0  0  0  0
    1.9179   -0.3284    3.1747 H   0  0  0  0  0  0  0  0  0  0  0  0
    2.6744   -0.8232    4.6650 H   0  0  0  0  0  0  0  0  0  0  0  0
    3.4569   -0.8997    3.1437 H   0  0  0  0  0  0  0  0  0  0  0  0
    3.3693    2.8555    2.7359 H   0  0  0  0  0  0  0  0  0  0  0  0
    3.0327    1.3632    1.9319 H   0  0  0  0  0  0  0  0  0  0  0  0
    0.9339    2.7156    2.3950 H   0  0  0  0  0  0  0  0  0  0  0  0
    0.7303    1.2020    2.9239 H   0  0  0  0  0  0  0  0  0  0  0  0
   -0.1059    2.1625    4.8332 H   0  0  0  0  0  0  0  0  0  0  0  0
    2.5436    4.9890    3.8838 H   0  0  0  0  0  0  0  0  0  0  0  0
    1.1803    5.9996    3.4771 H   0  0  0  0  0  0  0  0  0  0  0  0
    1.5362    4.6347    2.4956 H   0  0  0  0  0  0  0  0  0  0  0  0
   -0.5566    4.0897    2.9208 H   0  0  0  0  0  0  0  0  0  0  0  0
    1.4703    5.4145    5.9210 H   0  0  0  0  0  0  0  0  0  0  0  0
   -0.0982    5.9489    5.4903 H   0  0  0  0  0  0  0  0  0  0  0  0
   -1.4414    3.4450    6.1118 H   0  0  0  0  0  0  0  0  0  0  0  0
    2.2432    5.1806    8.1016 H   0  0  0  0  0  0  0  0  0  0  0  0
    1.3205    4.6981    9.5648 H   0  0  0  0  0  0  0  0  0  0  0  0
   -0.3614    3.0460    9.5385 H   0  0  0  0  0  0  0  0  0  0  0  0
    0.9158    1.8934    9.2976 H   0  0  0  0  0  0  0  0  0  0  0  0
   -0.5610    1.9135    8.2913 H   0  0  0  0  0  0  0  0  0  0  0  0
    3.9288    2.3701    5.9047 H   0  0  0  0  0  0  0  0  0  0  0  0
    3.2019    3.1811    4.7844 H   0  0  0  0  0  0  0  0  0  0  0  0
    1.6297    0.8695    7.5725 H   0  0  0  0  0  0  0  0  0  0  0  0
    0.0321    0.0405    4.5934 H   0  0  0  0  0  0  0  0  0  0  0  0
   -0.7487   -1.3989    5.1436 H   0  0  0  0  0  0  0  0  0  0  0  0
    0.6999   -1.5656    4.3190 H   0  0  0  0  0  0  0  0  0  0  0  0
   -0.7803    0.4597    6.7791 H   0  0  0  0  0  0  0  0  0  0  0  0
   -0.0227   -0.1825    8.2650 H   0  0  0  0  0  0  0  0  0  0  0  0
   -0.9743   -1.2167    7.2128 H   0  0  0  0  0  0  0  0  0  0  0  0
  1  2  1  0
  1 55  1  0
  1 56  1  0
  1 57  1  0
  2  3  1  0
  2  4  1  0
  2 58  1  6
  3 59  1  0
  4 22  1  0
  4 52  1  0
  4  5  1  6
  5  6  1  0
  6 21  1  0
  6  7  1  0
  6 60  1  6
  7  9  1  0
  7  8  1  0
  7 61  1  1
  8  9  1  0
  9 10  1  1
  9 11  1  0
 10 62  1  0
 10 63  1  0
 10 64  1  0
 11 15  1  0
 11 12  1  1
 11 13  1  0
 12 65  1  0
 13 14  2  0
 13 15  1  0
 15 16  1  0
 15 66  1  1
 16 17  1  0
 17 18  1  0
 17 19  1  0
 17 67  1  6
 18 68  1  0
 19 20  2  0
 19 21  1  0
 21 22  1  0
 21 69  1  6
 22 23  1  1
 22 25  1  0
 23 24  1  0
 23 70  1  0
 23 71  1  0
 24 72  1  0
 25 26  1  0
 25 27  1  0
 25 73  1  1
 26 74  1  0
 50 27  1  6
 27 28  1  1
 27 29  1  0
 28 75  1  0
 29 30  1  0
 29 31  1  0
 29 76  1  1
 30 77  1  0
 31 48  1  0
 31 32  1  1
 31 33  1  0
 32 78  1  0
 32 79  1  0
 32 80  1  0
 33 34  1  0
 33 81  1  0
 33 82  1  0
 34 35  1  0
 34 83  1  0
 34 84  1  0
 35 47  1  0
 35 36  1  0
 35 85  1  1
 36 37  1  0
 36 38  1  6
 36 39  1  0
 37 86  1  0
 37 87  1  0
 37 88  1  0
 38 89  1  0
 39 40  1  0
 39 90  1  0
 39 91  1  0
 40 44  1  0
 40 41  1  6
 40 42  1  0
 41 92  1  0
 42 43  1  0
 43 44  1  0
 43 93  1  0
 43 94  1  0
 44 45  1  1
 44 46  1  0
 45 95  1  0
 45 96  1  0
 45 97  1  0
 47 46  1  1
 47 48  1  0
 47 49  1  0
 48 98  1  0
 48 99  1  0
 49 50  1  0
 49 52  1  0
 49100  1  1
 50 51  2  0
 52 53  1  0
 52 54  1  0
 53101  1  0
 53102  1  0
 53103  1  0
 54104  1  0
 54105  1  0
 54106  1  0
M  END
>  <i_m_ct_stereo_status>  (116) 
1

>  <s_m_source_file>  (116) 
/var/tmp/pbs.5075288.sched01/tmpd529dnjr/198klec4xt1.sdf

>  <i_m_source_file_index>  (116) 
21

>  <i_lp_mmshare_version>  (116) 
48012

>  <i_f3d_flags>  (116) 
0

>  <s_epik_input>  (116) 
Tz1DKFtDQEBIXTEyKVtDQEhdKFtPSF0pT1tDSF0oQzM9TylDMyhbT0hdKVtDQEBdKE80KShbQ0gzXSlbQ0hdNFtDQEhdMU9bQ0BdKFtDQEhdKFtDSDNdKVtPSF0pKEMoW0NIM10pKFtDSDNdKVtDQEhdNVtTK102W08tXSlbQ0BdMihbQ0gyXVtPSF0pW0NAQEhdKFtPSF0pW0NAQF02KFtPSF0pW0NAQEhdKFtPSF0pW0NAQF0oW0NIM10pKFtDSDJdNylbQ0gyXVtDSDJdW0NAQEhdKFtDQEBdNTc4KVtDQEBdKFtDSDNdKShbT0hdKVtDSDJdW0NAQF05KFtPSF0pW0NAQF0oTzgpKFtDSDJdTzkpW0NIM10=

>  <s_epik_cmdline>  (116) 
J2VwaWtfcHl0aG9uJywgJy1waHQnLCAnMi4wJywgJy1waCcsICc3LjAnLCAnLXRuJywgJzgnLCAnLW1hJywgJzIwMCcsICctaW1hZScsICc8aW5maWxlLm1hZT4nLCAnLW9tYWUnLCAnPG91dGZpbGUubWFlPic=

>  <r_lp_tautomer_probability>  (116) 
1

>  <r_epik_Ionization_Penalty>  (116) 
4.44335e-05

>  <r_epik_Ionization_Penalty_Charging>  (116) 
0

>  <r_epik_Ionization_Penalty_Neutral>  (116) 
4.44335e-05

>  <r_epik_State_Penalty>  (116) 
-0

>  <r_epik_Charging_Adjusted_Penalty>  (116) 
0

>  <i_epik_Tot_Q>  (116) 
0

>  <i_epik_Tot_abs_Q>  (116) 
2

>  <s_epik_Chemistry_Notes>  (116) 
This compound contains an acetal/aminal-like group ( X-CH(R)-Y where X, Y are N, S, or O) that may be acid/base labile, releasing an aldehyde.

>  <s_lp_Force_Field>  (116) 
OPLS3e

>  <r_lp_Energy>  (116) 
304.685

>  <b_lp_Chiralities_Consistent>  (116) 
1

>  <s_lp_Variant>  (116) 
86:0-1

>  <s_i_glide_gridfile>  (116) 
pfpi4k_grid

>  <i_i_glide_lignum>  (116) 
21

>  <i_i_glide_rotatable_bonds>  (116) 
11

>  <r_i_docking_score>  (116) 
-2.94526

>  <r_i_glide_ligand_efficiency>  (116) 
-0.0545419

>  <r_i_glide_ligand_efficiency_sa>  (116) 
-0.206155

>  <r_i_glide_ligand_efficiency_ln>  (116) 
-0.590353

>  <r_i_glide_gscore>  (116) 
-2.94526

>  <r_i_glide_lipo>  (116) 
-0.0890133

>  <r_i_glide_hbond>  (116) 
0

>  <r_i_glide_metal>  (116) 
-0

>  <r_i_glide_rewards>  (116) 
-1

>  <r_i_glide_evdw>  (116) 
-25.4716

>  <r_i_glide_ecoul>  (116) 
-4.0548

>  <r_i_glide_erotb>  (116) 
0.0698826

>  <r_i_glide_esite>  (116) 
-0.044331

>  <r_i_glide_emodel>  (116) 
-43.6774

>  <r_i_glide_energy>  (116) 
-29.5264

>  <r_i_glide_einternal>  (116) 
3.94652

>  <r_i_glide_intrahb_reward>  (116) 
-1

>  <i_i_glide_confnum>  (116) 
1

>  <i_i_glide_posenum>  (116) 
38

>  <r_i_glide_eff_state_penalty>  (116) 
0

>  <ligand_id>  (116) 
86

>  <original_smiles>  (116) 
CC(O)C12OC3C4OC4(C)C4(O)C(=O)C4OC(O)C(=O)C3C1(CO)C(O)C1(O)C(O)C3(C)CCC4C(C)(O)CC5(O)OCC5(C)OC4(C3)C([S+]1[O-])C2(C)C

>  <smiles>  (116) 
[H]OC1([H])OC2([H])C(=O)C2(O[H])C2(C([H])([H])[H])OC2([H])C2([H])OC3(C([H])(O[H])C([H])([H])[H])C(C([H])([H])O[H])(C([H])(O[H])C4(O[H])S(=O)C([H])(C56OC7(C([H])([H])[H])C([H])([H])OC7(O[H])C([H])([H])C(O[H])(C([H])([H])[H])C5([H])C([H])([H])C([H])([H])C(C([H])([H])[H])(C6([H])[H])C4([H])O[H])C3(C([H])([H])[H])C([H])([H])[H])C2([H])C1=O

$$$$
86:3:0
     RDKit          3D

106114  0  0  1  0  0  0  0  0999 V2000
    1.7671    0.5791    1.8244 C   0  0  0  0  0  0  0  0  0  0  0  0
    2.9192    0.2885    2.8164 C   0  0  2  0  0  0  0  0  0  0  0  0
    4.0796    0.0148    2.0653 O   0  0  0  0  0  0  0  0  0  0  0  0
    2.7016   -0.6538    4.0906 C   0  0  2  0  0  0  0  0  0  0  0  0
    1.4358   -0.1062    4.5387 O   0  0  0  0  0  0  0  0  0  0  0  0
    1.3810    0.2297    5.9168 C   0  0  2  0  0  0  0  0  0  0  0  0
    0.1997    1.0795    6.3845 C   0  0  2  0  0  0  0  0  0  0  0  0
   -1.0360    0.5160    6.8319 O   0  0  0  0  0  0  0  0  0  0  0  0
   -1.0741    1.2304    5.5692 C   0  0  2  0  0  0  0  0  0  0  0  0
   -1.5172    0.2829    4.4783 C   0  0  0  0  0  0  0  0  0  0  0  0
   -1.5139    2.6961    5.4608 C   0  0  2  0  0  0  0  0  0  0  0  0
   -2.7752    2.9870    6.0252 O   0  0  0  0  0  0  0  0  0  0  0  0
   -1.3820    3.3380    4.1050 C   0  0  0  0  0  0  0  0  0  0  0  0
   -1.7004    3.3510    2.9113 O   0  0  0  0  0  0  0  0  0  0  0  0
   -0.6813    3.9727    5.2770 C   0  0  2  0  0  0  0  0  0  0  0  0
    0.7095    3.7089    5.5231 O   0  0  0  0  0  0  0  0  0  0  0  0
    1.5176    2.9996    4.6263 C   0  0  1  0  0  0  0  0  0  0  0  0
    2.0179    3.8496    3.6122 O   0  0  0  0  0  0  0  0  0  0  0  0
    2.6843    2.4419    5.4963 C   0  0  0  0  0  0  0  0  0  0  0  0
    3.5658    3.2195    5.8796 O   0  0  0  0  0  0  0  0  0  0  0  0
    2.7248    0.9478    5.9910 C   0  0  2  0  0  0  0  0  0  0  0  0
    3.7111   -0.0979    5.3072 C   0  0  2  0  0  0  0  0  0  0  0  0
    4.9891    0.7925    4.9194 C   0  0  0  0  0  0  0  0  0  0  0  0
    6.1808    0.1963    4.4631 O   0  0  0  0  0  0  0  0  0  0  0  0
    4.2729   -1.0484    6.4973 C   0  0  1  0  0  0  0  0  0  0  0  0
    3.4941   -1.0553    7.6873 O   0  0  0  0  0  0  0  0  0  0  0  0
    5.0510   -2.4274    6.2713 C   0  0  1  0  0  0  0  0  0  0  0  0
    6.4026   -2.1599    6.6159 O   0  0  0  0  0  0  0  0  0  0  0  0
    4.7393   -3.7046    7.2262 C   0  0  1  0  0  0  0  0  0  0  0  0
    4.7396   -3.3805    8.6036 O   0  0  0  0  0  0  0  0  0  0  0  0
    3.4626   -4.5192    6.8337 C   0  0  2  0  0  0  0  0  0  0  0  0
    2.2798   -3.5041    6.9468 C   0  0  0  0  0  0  0  0  0  0  0  0
    2.8060   -5.7019    7.5593 C   0  0  0  0  0  0  0  0  0  0  0  0
    1.7182   -6.3045    6.5615 C   0  0  0  0  0  0  0  0  0  0  0  0
    1.6296   -5.7276    5.0382 C   0  0  2  0  0  0  0  0  0  0  0  0
    0.8538   -6.7322    4.1166 C   0  0  1  0  0  0  0  0  0  0  0  0
    1.3106   -8.2061    4.2263 C   0  0  0  0  0  0  0  0  0  0  0  0
   -0.4797   -6.7321    4.6043 O   0  0  0  0  0  0  0  0  0  0  0  0
    0.6730   -6.2763    2.6466 C   0  0  0  0  0  0  0  0  0  0  0  0
    1.8548   -6.4036    1.6707 C   0  0  2  0  0  0  0  0  0  0  0  0
    1.4305   -5.7472    0.4891 O   0  0  0  0  0  0  0  0  0  0  0  0
    2.1113   -7.8081    1.4512 O   0  0  0  0  0  0  0  0  0  0  0  0
    3.5087   -7.6220    1.7483 C   0  0  0  0  0  0  0  0  0  0  0  0
    3.3221   -6.1372    2.0674 C   0  0  1  0  0  0  0  0  0  0  0  0
    4.1939   -5.2212    1.1923 C   0  0  0  0  0  0  0  0  0  0  0  0
    3.5842   -5.9960    3.4792 O   0  0  0  0  0  0  0  0  0  0  0  0
    2.9602   -5.0711    4.4045 C   0  0  2  0  0  0  0  0  0  0  0  0
    3.9033   -5.3083    5.5535 C   0  0  0  0  0  0  0  0  0  0  0  0
    3.2335   -3.4893    4.0503 C   0  0  2  0  0  0  0  0  0  0  0  0
    4.9584   -2.9353    4.4593 S   0  0  0  0  0  0  0  0  0  0  0  0
    5.4336   -1.9552    3.3939 O   0  0  0  0  0  0  0  0  0  0  0  0
    2.2622   -2.2399    3.7131 C   0  0  0  0  0  0  0  0  0  0  0  0
    0.7954   -2.5251    4.1507 C   0  0  0  0  0  0  0  0  0  0  0  0
    2.0464   -2.4005    2.1724 C   0  0  0  0  0  0  0  0  0  0  0  0
    0.7823    0.3770    2.2354 H   0  0  0  0  0  0  0  0  0  0  0  0
    1.8633    0.0135    0.8980 H   0  0  0  0  0  0  0  0  0  0  0  0
    1.7702    1.6275    1.5216 H   0  0  0  0  0  0  0  0  0  0  0  0
    3.0917    1.2902    3.1760 H   0  0  0  0  0  0  0  0  0  0  0  0
    4.1704    0.6873    1.4069 H   0  0  0  0  0  0  0  0  0  0  0  0
    1.3737   -0.6744    6.5202 H   0  0  0  0  0  0  0  0  0  0  0  0
    0.4718    1.8727    7.0689 H   0  0  0  0  0  0  0  0  0  0  0  0
   -0.9836    0.4918    3.5462 H   0  0  0  0  0  0  0  0  0  0  0  0
   -2.5839    0.4086    4.3108 H   0  0  0  0  0  0  0  0  0  0  0  0
   -1.3460   -0.7535    4.7756 H   0  0  0  0  0  0  0  0  0  0  0  0
   -2.6430    3.0531    6.9578 H   0  0  0  0  0  0  0  0  0  0  0  0
   -1.0479    4.8998    5.7246 H   0  0  0  0  0  0  0  0  0  0  0  0
    0.9843    2.1923    4.1324 H   0  0  0  0  0  0  0  0  0  0  0  0
    1.3259    4.0829    3.0084 H   0  0  0  0  0  0  0  0  0  0  0  0
    2.9904    1.0888    7.0354 H   0  0  0  0  0  0  0  0  0  0  0  0
    4.7886    1.5804    4.2046 H   0  0  0  0  0  0  0  0  0  0  0  0
    5.3111    1.3404    5.8124 H   0  0  0  0  0  0  0  0  0  0  0  0
    5.9782   -0.3702    3.7209 H   0  0  0  0  0  0  0  0  0  0  0  0
    5.0468   -0.4271    6.9489 H   0  0  0  0  0  0  0  0  0  0  0  0
    2.7289   -1.5895    7.5357 H   0  0  0  0  0  0  0  0  0  0  0  0
    6.5852   -2.5808    7.4433 H   0  0  0  0  0  0  0  0  0  0  0  0
    5.5819   -4.3929    7.1637 H   0  0  0  0  0  0  0  0  0  0  0  0
    4.0816   -2.7167    8.7580 H   0  0  0  0  0  0  0  0  0  0  0  0
    1.2696   -3.8829    6.8331 H   0  0  0  0  0  0  0  0  0  0  0  0
    2.3797   -2.6754    6.2703 H   0  0  0  0  0  0  0  0  0  0  0  0
    2.2233   -3.1167    7.9662 H   0  0  0  0  0  0  0  0  0  0  0  0
    3.5415   -6.4629    7.8290 H   0  0  0  0  0  0  0  0  0  0  0  0
    2.3537   -5.4139    8.5107 H   0  0  0  0  0  0  0  0  0  0  0  0
    1.8674   -7.3831    6.5780 H   0  0  0  0  0  0  0  0  0  0  0  0
    0.7411   -6.1592    7.0206 H   0  0  0  0  0  0  0  0  0  0  0  0
    0.9341   -4.9097    5.1226 H   0  0  0  0  0  0  0  0  0  0  0  0
    2.3952   -8.2918    4.2160 H   0  0  0  0  0  0  0  0  0  0  0  0
    0.9111   -8.8039    3.4064 H   0  0  0  0  0  0  0  0  0  0  0  0
    0.9618   -8.6938    5.1362 H   0  0  0  0  0  0  0  0  0  0  0  0
   -0.4851   -7.2550    5.3913 H   0  0  0  0  0  0  0  0  0  0  0  0
   -0.1624   -6.8411    2.2190 H   0  0  0  0  0  0  0  0  0  0  0  0
    0.3312   -5.2485    2.6613 H   0  0  0  0  0  0  0  0  0  0  0  0
    2.1163   -5.8763   -0.1542 H   0  0  0  0  0  0  0  0  0  0  0  0
    3.8494   -8.2253    2.5882 H   0  0  0  0  0  0  0  0  0  0  0  0
    4.1358   -7.8127    0.8780 H   0  0  0  0  0  0  0  0  0  0  0  0
    4.3040   -5.6213    0.1843 H   0  0  0  0  0  0  0  0  0  0  0  0
    5.1978   -5.1085    1.5967 H   0  0  0  0  0  0  0  0  0  0  0  0
    3.7736   -4.2324    1.0430 H   0  0  0  0  0  0  0  0  0  0  0  0
    4.9570   -5.2392    5.3115 H   0  0  0  0  0  0  0  0  0  0  0  0
    3.9733   -6.3865    5.7183 H   0  0  0  0  0  0  0  0  0  0  0  0
    3.6179   -3.6889    3.0721 H   0  0  0  0  0  0  0  0  0  0  0  0
    0.4446   -3.4806    3.7849 H   0  0  0  0  0  0  0  0  0  0  0  0
    0.1077   -1.8308    3.6689 H   0  0  0  0  0  0  0  0  0  0  0  0
    0.5979   -2.4610    5.2155 H   0  0  0  0  0  0  0  0  0  0  0  0
    1.8107   -3.4352    1.9216 H   0  0  0  0  0  0  0  0  0  0  0  0
    2.9285   -2.1443    1.5824 H   0  0  0  0  0  0  0  0  0  0  0  0
    1.1953   -1.8464    1.7823 H   0  0  0  0  0  0  0  0  0  0  0  0
  1  2  1  0
  1 55  1  0
  1 56  1  0
  1 57  1  0
  2  3  1  0
  2  4  1  0
  2 58  1  1
  3 59  1  0
  4 22  1  0
  4 52  1  0
  4  5  1  1
  5  6  1  0
  6 21  1  0
  6  7  1  0
  6 60  1  1
  7  9  1  0
  7  8  1  0
  7 61  1  1
  8  9  1  0
  9 10  1  6
  9 11  1  0
 10 62  1  0
 10 63  1  0
 10 64  1  0
 11 15  1  0
 11 12  1  1
 11 13  1  0
 12 65  1  0
 13 14  2  0
 13 15  1  0
 15 16  1  0
 15 66  1  1
 16 17  1  0
 17 18  1  0
 17 19  1  0
 17 67  1  6
 18 68  1  0
 19 20  2  0
 19 21  1  0
 21 22  1  0
 21 69  1  1
 22 23  1  6
 22 25  1  0
 23 24  1  0
 23 70  1  0
 23 71  1  0
 24 72  1  0
 25 26  1  0
 25 27  1  0
 25 73  1  1
 26 74  1  0
 50 27  1  1
 27 28  1  1
 27 29  1  0
 28 75  1  0
 29 30  1  0
 29 31  1  0
 29 76  1  1
 30 77  1  0
 31 48  1  0
 31 32  1  6
 31 33  1  0
 32 78  1  0
 32 79  1  0
 32 80  1  0
 33 34  1  0
 33 81  1  0
 33 82  1  0
 34 35  1  0
 34 83  1  0
 34 84  1  0
 35 47  1  0
 35 36  1  0
 35 85  1  1
 36 37  1  0
 36 38  1  1
 36 39  1  0
 37 86  1  0
 37 87  1  0
 37 88  1  0
 38 89  1  0
 39 40  1  0
 39 90  1  0
 39 91  1  0
 40 44  1  0
 40 41  1  6
 40 42  1  0
 41 92  1  0
 42 43  1  0
 43 44  1  0
 43 93  1  0
 43 94  1  0
 44 45  1  6
 44 46  1  0
 45 95  1  0
 45 96  1  0
 45 97  1  0
 47 46  1  6
 47 48  1  0
 47 49  1  0
 48 98  1  0
 48 99  1  0
 49 50  1  0
 49 52  1  0
 49100  1  6
 50 51  2  0
 52 53  1  0
 52 54  1  0
 53101  1  0
 53102  1  0
 53103  1  0
 54104  1  0
 54105  1  0
 54106  1  0
M  END
>  <i_m_ct_stereo_status>  (117) 
1

>  <s_m_source_file>  (117) 
/var/tmp/pbs.5075288.sched01/tmpd529dnjr/198klec4xt1.sdf

>  <i_m_source_file_index>  (117) 
24

>  <i_lp_mmshare_version>  (117) 
48012

>  <i_f3d_flags>  (117) 
0

>  <s_epik_input>  (117) 
Tz1DKFtDQEBIXTEyKVtDQEhdKFtPSF0pT1tDSF0oQzM9TylDMyhbT0hdKVtDQEBdKE80KShbQ0gzXSlbQ0hdNFtDQEhdMU9bQ0BdKFtDQEhdKFtDSDNdKVtPSF0pKEMoW0NIM10pKFtDSDNdKVtDQEhdNVtTK102W08tXSlbQ0BdMihbQ0gyXVtPSF0pW0NAQEhdKFtPSF0pW0NAQF02KFtPSF0pW0NAQEhdKFtPSF0pW0NAQF0oW0NIM10pKFtDSDJdNylbQ0gyXVtDSDJdW0NAQEhdKFtDQEBdNTc4KVtDQEBdKFtDSDNdKShbT0hdKVtDSDJdW0NAQF05KFtPSF0pW0NAQF0oTzgpKFtDSDJdTzkpW0NIM10=

>  <s_epik_cmdline>  (117) 
J2VwaWtfcHl0aG9uJywgJy1waHQnLCAnMi4wJywgJy1waCcsICc3LjAnLCAnLXRuJywgJzgnLCAnLW1hJywgJzIwMCcsICctaW1hZScsICc8aW5maWxlLm1hZT4nLCAnLW9tYWUnLCAnPG91dGZpbGUubWFlPic=

>  <r_lp_tautomer_probability>  (117) 
1

>  <r_epik_Ionization_Penalty>  (117) 
4.44335e-05

>  <r_epik_Ionization_Penalty_Charging>  (117) 
0

>  <r_epik_Ionization_Penalty_Neutral>  (117) 
4.44335e-05

>  <r_epik_State_Penalty>  (117) 
-0

>  <r_epik_Charging_Adjusted_Penalty>  (117) 
0

>  <i_epik_Tot_Q>  (117) 
0

>  <i_epik_Tot_abs_Q>  (117) 
2

>  <s_epik_Chemistry_Notes>  (117) 
This compound contains an acetal/aminal-like group ( X-CH(R)-Y where X, Y are N, S, or O) that may be acid/base labile, releasing an aldehyde.

>  <s_lp_Force_Field>  (117) 
OPLS3e

>  <r_lp_Energy>  (117) 
270.668

>  <b_lp_Chiralities_Consistent>  (117) 
1

>  <s_lp_Variant>  (117) 
86:0-4

>  <s_i_glide_gridfile>  (117) 
pfpi4k_grid

>  <i_i_glide_lignum>  (117) 
24

>  <i_i_glide_rotatable_bonds>  (117) 
11

>  <r_i_docking_score>  (117) 
-3.7057

>  <r_i_glide_ligand_efficiency>  (117) 
-0.068624

>  <r_i_glide_ligand_efficiency_sa>  (117) 
-0.259383

>  <r_i_glide_ligand_efficiency_ln>  (117) 
-0.742776

>  <r_i_glide_gscore>  (117) 
-3.7057

>  <r_i_glide_lipo>  (117) 
-0.20308

>  <r_i_glide_hbond>  (117) 
-0.101531

>  <r_i_glide_metal>  (117) 
-0

>  <r_i_glide_rewards>  (117) 
-0.546319

>  <r_i_glide_evdw>  (117) 
-30.6735

>  <r_i_glide_ecoul>  (117) 
-8.6622

>  <r_i_glide_erotb>  (117) 
0.0698826

>  <r_i_glide_esite>  (117) 
-0.0916473

>  <r_i_glide_emodel>  (117) 
-52.7795

>  <r_i_glide_energy>  (117) 
-39.3357

>  <r_i_glide_einternal>  (117) 
0.71305

>  <r_i_glide_intrahb_reward>  (117) 
-0.5

>  <i_i_glide_confnum>  (117) 
5

>  <i_i_glide_posenum>  (117) 
23

>  <r_i_glide_eff_state_penalty>  (117) 
0

>  <ligand_id>  (117) 
86

>  <original_smiles>  (117) 
CC(O)C12OC3C4OC4(C)C4(O)C(=O)C4OC(O)C(=O)C3C1(CO)C(O)C1(O)C(O)C3(C)CCC4C(C)(O)CC5(O)OCC5(C)OC4(C3)C([S+]1[O-])C2(C)C

>  <smiles>  (117) 
[H]OC1([H])OC2([H])C(=O)C2(O[H])C2(C([H])([H])[H])OC2([H])C2([H])OC3(C([H])(O[H])C([H])([H])[H])C(C([H])([H])O[H])(C([H])(O[H])C4(O[H])S(=O)C([H])(C56OC7(C([H])([H])[H])C([H])([H])OC7(O[H])C([H])([H])C(O[H])(C([H])([H])[H])C5([H])C([H])([H])C([H])([H])C(C([H])([H])[H])(C6([H])[H])C4([H])O[H])C3(C([H])([H])[H])C([H])([H])[H])C2([H])C1=O

$$$$
86:3:1
     RDKit          3D

106114  0  0  1  0  0  0  0  0999 V2000
    1.7129    0.5445    1.8673 C   0  0  0  0  0  0  0  0  0  0  0  0
    2.8852    0.2644    2.8351 C   0  0  2  0  0  0  0  0  0  0  0  0
    4.0194   -0.0539    2.0622 O   0  0  0  0  0  0  0  0  0  0  0  0
    2.6887   -0.6431    4.1355 C   0  0  2  0  0  0  0  0  0  0  0  0
    1.4346   -0.0790    4.5938 O   0  0  0  0  0  0  0  0  0  0  0  0
    1.4102    0.2960    5.9620 C   0  0  2  0  0  0  0  0  0  0  0  0
    0.2416    1.1625    6.4297 C   0  0  2  0  0  0  0  0  0  0  0  0
   -0.9858    0.6148    6.9108 O   0  0  0  0  0  0  0  0  0  0  0  0
   -1.0476    1.2972    5.6334 C   0  0  2  0  0  0  0  0  0  0  0  0
   -1.5110    0.3225    4.5817 C   0  0  0  0  0  0  0  0  0  0  0  0
   -1.4858    2.7610    5.4956 C   0  0  2  0  0  0  0  0  0  0  0  0
   -2.7354    3.0579    6.0742 O   0  0  0  0  0  0  0  0  0  0  0  0
   -1.3732    3.3684    4.1221 C   0  0  0  0  0  0  0  0  0  0  0  0
   -1.7166    3.3525    2.9401 O   0  0  0  0  0  0  0  0  0  0  0  0
   -0.6448    4.0270    5.2661 C   0  0  2  0  0  0  0  0  0  0  0  0
    0.7493    3.7676    5.4921 O   0  0  0  0  0  0  0  0  0  0  0  0
    1.5355    3.0326    4.5965 C   0  0  1  0  0  0  0  0  0  0  0  0
    2.0192    3.8524    3.5521 O   0  0  0  0  0  0  0  0  0  0  0  0
    2.7173    2.4910    5.4537 C   0  0  0  0  0  0  0  0  0  0  0  0
    3.6091    3.2723    5.8029 O   0  0  0  0  0  0  0  0  0  0  0  0
    2.7587    1.0119    5.9859 C   0  0  2  0  0  0  0  0  0  0  0  0
    3.7259   -0.0581    5.3125 C   0  0  2  0  0  0  0  0  0  0  0  0
    5.0018    0.8115    4.8777 C   0  0  0  0  0  0  0  0  0  0  0  0
    6.1834    0.1882    4.4272 O   0  0  0  0  0  0  0  0  0  0  0  0
    4.3043   -0.9795    6.5129 C   0  0  1  0  0  0  0  0  0  0  0  0
    3.5522   -0.9165    7.7142 O   0  0  0  0  0  0  0  0  0  0  0  0
    5.0776   -2.3673    6.3131 C   0  0  1  0  0  0  0  0  0  0  0  0
    6.4448   -2.0866    6.5912 O   0  0  0  0  0  0  0  0  0  0  0  0
    4.7816   -3.6195    7.3098 C   0  0  1  0  0  0  0  0  0  0  0  0
    4.7681   -3.2542    8.6777 O   0  0  0  0  0  0  0  0  0  0  0  0
    3.4897   -4.4369    6.9654 C   0  0  2  0  0  0  0  0  0  0  0  0
    2.3146   -3.4114    7.0765 C   0  0  0  0  0  0  0  0  0  0  0  0
    2.8384   -5.5971    7.7352 C   0  0  0  0  0  0  0  0  0  0  0  0
    1.7239   -6.2178    6.7760 C   0  0  0  0  0  0  0  0  0  0  0  0
    1.6083   -5.6843    5.2397 C   0  0  2  0  0  0  0  0  0  0  0  0
    0.8084   -6.7100    4.3627 C   0  0  1  0  0  0  0  0  0  0  0  0
    1.2618   -8.1828    4.5050 C   0  0  0  0  0  0  0  0  0  0  0  0
   -0.5144   -6.6963    4.8820 O   0  0  0  0  0  0  0  0  0  0  0  0
    0.6019   -6.2947    2.8796 C   0  0  0  0  0  0  0  0  0  0  0  0
    1.7639   -6.4673    1.8915 C   0  0  2  0  0  0  0  0  0  0  0  0
    1.3214   -5.8627    0.6904 O   0  0  0  0  0  0  0  0  0  0  0  0
    2.0107   -7.8706    1.7067 O   0  0  0  0  0  0  0  0  0  0  0  0
    3.4152   -7.6805    1.9693 C   0  0  0  0  0  0  0  0  0  0  0  0
    3.2341   -6.1832    2.2474 C   0  0  1  0  0  0  0  0  0  0  0  0
    4.0955   -5.2981    1.3311 C   0  0  0  0  0  0  0  0  0  0  0  0
    3.5310   -6.0029    3.6465 O   0  0  0  0  0  0  0  0  0  0  0  0
    2.9296   -5.0535    4.5634 C   0  0  2  0  0  0  0  0  0  0  0  0
    3.8968   -5.2641    5.6987 C   0  0  0  0  0  0  0  0  0  0  0  0
    3.2055   -3.4820    4.1584 C   0  0  2  0  0  0  0  0  0  0  0  0
    4.9429   -2.9296    4.5210 S   0  0  0  0  0  0  0  0  0  0  0  0
    5.4227   -1.9912    3.4088 O   0  0  0  0  0  0  0  0  0  0  0  0
    2.2335   -2.2359    3.8091 C   0  0  0  0  0  0  0  0  0  0  0  0
    0.7759   -2.5035    4.2852 C   0  0  0  0  0  0  0  0  0  0  0  0
    1.9861   -2.4385    2.2796 C   0  0  0  0  0  0  0  0  0  0  0  0
    0.7329    0.3675    2.3041 H   0  0  0  0  0  0  0  0  0  0  0  0
    1.7917   -0.0413    0.9524 H   0  0  0  0  0  0  0  0  0  0  0  0
    1.7273    1.5857    1.5397 H   0  0  0  0  0  0  0  0  0  0  0  0
    3.0835    1.2719    3.1600 H   0  0  0  0  0  0  0  0  0  0  0  0
    3.8676   -0.8879    1.6448 H   0  0  0  0  0  0  0  0  0  0  0  0
    1.4074   -0.5908    6.5911 H   0  0  0  0  0  0  0  0  0  0  0  0
    0.5314    1.9727    7.0883 H   0  0  0  0  0  0  0  0  0  0  0  0
   -1.0145    0.5055    3.6316 H   0  0  0  0  0  0  0  0  0  0  0  0
   -2.5825    0.4467    4.4360 H   0  0  0  0  0  0  0  0  0  0  0  0
   -1.3479   -0.7026    4.9007 H   0  0  0  0  0  0  0  0  0  0  0  0
   -2.5808    3.1718    7.0003 H   0  0  0  0  0  0  0  0  0  0  0  0
   -0.9987    4.9675    5.6906 H   0  0  0  0  0  0  0  0  0  0  0  0
    0.9900    2.2134    4.1329 H   0  0  0  0  0  0  0  0  0  0  0  0
    1.3180    4.0696    2.9529 H   0  0  0  0  0  0  0  0  0  0  0  0
    3.0428    1.1881    7.0193 H   0  0  0  0  0  0  0  0  0  0  0  0
    4.7955    1.5819    4.1450 H   0  0  0  0  0  0  0  0  0  0  0  0
    5.3425    1.3803    5.7504 H   0  0  0  0  0  0  0  0  0  0  0  0
    5.9734   -0.3635    3.6777 H   0  0  0  0  0  0  0  0  0  0  0  0
    5.0903   -0.3541    6.9329 H   0  0  0  0  0  0  0  0  0  0  0  0
    2.8656   -1.5660    7.6761 H   0  0  0  0  0  0  0  0  0  0  0  0
    6.6551   -2.3547    7.4698 H   0  0  0  0  0  0  0  0  0  0  0  0
    5.6221   -4.3136    7.2500 H   0  0  0  0  0  0  0  0  0  0  0  0
    5.5710   -2.8119    8.9064 H   0  0  0  0  0  0  0  0  0  0  0  0
    1.3002   -3.7880    6.9962 H   0  0  0  0  0  0  0  0  0  0  0  0
    2.4032   -2.6009    6.3775 H   0  0  0  0  0  0  0  0  0  0  0  0
    2.2866   -2.9936    8.0857 H   0  0  0  0  0  0  0  0  0  0  0  0
    3.5720   -6.3561    8.0121 H   0  0  0  0  0  0  0  0  0  0  0  0
    2.4068   -5.2810    8.6876 H   0  0  0  0  0  0  0  0  0  0  0  0
    1.8674   -7.2966    6.8185 H   0  0  0  0  0  0  0  0  0  0  0  0
    0.7558   -6.0599    7.2471 H   0  0  0  0  0  0  0  0  0  0  0  0
    0.9177   -4.8615    5.3175 H   0  0  0  0  0  0  0  0  0  0  0  0
    2.3453   -8.2726    4.4774 H   0  0  0  0  0  0  0  0  0  0  0  0
    0.8466   -8.8040    3.7114 H   0  0  0  0  0  0  0  0  0  0  0  0
    0.9263   -8.6374    5.4365 H   0  0  0  0  0  0  0  0  0  0  0  0
   -0.9361   -7.4973    4.6048 H   0  0  0  0  0  0  0  0  0  0  0  0
   -0.2473   -6.8644    2.4831 H   0  0  0  0  0  0  0  0  0  0  0  0
    0.2654   -5.2639    2.8735 H   0  0  0  0  0  0  0  0  0  0  0  0
    1.9923   -6.0160    0.0346 H   0  0  0  0  0  0  0  0  0  0  0  0
    3.7753   -8.2630    2.8215 H   0  0  0  0  0  0  0  0  0  0  0  0
    4.0222   -7.8988    1.0876 H   0  0  0  0  0  0  0  0  0  0  0  0
    4.1863   -5.7246    0.3320 H   0  0  0  0  0  0  0  0  0  0  0  0
    5.1096   -5.1795    1.7132 H   0  0  0  0  0  0  0  0  0  0  0  0
    3.6796   -4.3113    1.1639 H   0  0  0  0  0  0  0  0  0  0  0  0
    4.9466   -5.2086    5.4334 H   0  0  0  0  0  0  0  0  0  0  0  0
    3.9636   -6.3383    5.8916 H   0  0  0  0  0  0  0  0  0  0  0  0
    3.5747   -3.7105    3.1804 H   0  0  0  0  0  0  0  0  0  0  0  0
    0.4118   -3.4653    3.9532 H   0  0  0  0  0  0  0  0  0  0  0  0
    0.0830   -1.8191    3.7989 H   0  0  0  0  0  0  0  0  0  0  0  0
    0.6006   -2.4091    5.3520 H   0  0  0  0  0  0  0  0  0  0  0  0
    1.7427   -3.4815    2.0735 H   0  0  0  0  0  0  0  0  0  0  0  0
    2.8532   -2.2175    1.6574 H   0  0  0  0  0  0  0  0  0  0  0  0
    1.1321   -1.8857    1.8954 H   0  0  0  0  0  0  0  0  0  0  0  0
  1  2  1  0
  1 55  1  0
  1 56  1  0
  1 57  1  0
  2  3  1  0
  2  4  1  0
  2 58  1  1
  3 59  1  0
  4 22  1  0
  4 52  1  0
  4  5  1  1
  5  6  1  0
  6 21  1  0
  6  7  1  0
  6 60  1  1
  7  9  1  0
  7  8  1  0
  7 61  1  1
  8  9  1  0
  9 10  1  6
  9 11  1  0
 10 62  1  0
 10 63  1  0
 10 64  1  0
 11 15  1  0
 11 12  1  1
 11 13  1  0
 12 65  1  0
 13 14  2  0
 13 15  1  0
 15 16  1  0
 15 66  1  1
 16 17  1  0
 17 18  1  0
 17 19  1  0
 17 67  1  6
 18 68  1  0
 19 20  2  0
 19 21  1  0
 21 22  1  0
 21 69  1  1
 22 23  1  6
 22 25  1  0
 23 24  1  0
 23 70  1  0
 23 71  1  0
 24 72  1  0
 25 26  1  0
 25 27  1  0
 25 73  1  1
 26 74  1  0
 50 27  1  1
 27 28  1  6
 27 29  1  0
 28 75  1  0
 29 30  1  0
 29 31  1  0
 29 76  1  1
 30 77  1  0
 31 48  1  0
 31 32  1  6
 31 33  1  0
 32 78  1  0
 32 79  1  0
 32 80  1  0
 33 34  1  0
 33 81  1  0
 33 82  1  0
 34 35  1  0
 34 83  1  0
 34 84  1  0
 35 47  1  0
 35 36  1  0
 35 85  1  1
 36 37  1  0
 36 38  1  1
 36 39  1  0
 37 86  1  0
 37 87  1  0
 37 88  1  0
 38 89  1  0
 39 40  1  0
 39 90  1  0
 39 91  1  0
 40 44  1  0
 40 41  1  6
 40 42  1  0
 41 92  1  0
 42 43  1  0
 43 44  1  0
 43 93  1  0
 43 94  1  0
 44 45  1  6
 44 46  1  0
 45 95  1  0
 45 96  1  0
 45 97  1  0
 47 46  1  6
 47 48  1  0
 47 49  1  0
 48 98  1  0
 48 99  1  0
 49 50  1  0
 49 52  1  0
 49100  1  6
 50 51  2  0
 52 53  1  0
 52 54  1  0
 53101  1  0
 53102  1  0
 53103  1  0
 54104  1  0
 54105  1  0
 54106  1  0
M  END
>  <i_m_ct_stereo_status>  (118) 
1

>  <s_m_source_file>  (118) 
/var/tmp/pbs.5075288.sched01/tmpd529dnjr/198klec4xt1.sdf

>  <i_m_source_file_index>  (118) 
24

>  <i_lp_mmshare_version>  (118) 
48012

>  <i_f3d_flags>  (118) 
0

>  <s_epik_input>  (118) 
Tz1DKFtDQEBIXTEyKVtDQEhdKFtPSF0pT1tDSF0oQzM9TylDMyhbT0hdKVtDQEBdKE80KShbQ0gzXSlbQ0hdNFtDQEhdMU9bQ0BdKFtDQEhdKFtDSDNdKVtPSF0pKEMoW0NIM10pKFtDSDNdKVtDQEhdNVtTK102W08tXSlbQ0BdMihbQ0gyXVtPSF0pW0NAQEhdKFtPSF0pW0NAQF02KFtPSF0pW0NAQEhdKFtPSF0pW0NAQF0oW0NIM10pKFtDSDJdNylbQ0gyXVtDSDJdW0NAQEhdKFtDQEBdNTc4KVtDQEBdKFtDSDNdKShbT0hdKVtDSDJdW0NAQF05KFtPSF0pW0NAQF0oTzgpKFtDSDJdTzkpW0NIM10=

>  <s_epik_cmdline>  (118) 
J2VwaWtfcHl0aG9uJywgJy1waHQnLCAnMi4wJywgJy1waCcsICc3LjAnLCAnLXRuJywgJzgnLCAnLW1hJywgJzIwMCcsICctaW1hZScsICc8aW5maWxlLm1hZT4nLCAnLW9tYWUnLCAnPG91dGZpbGUubWFlPic=

>  <r_lp_tautomer_probability>  (118) 
1

>  <r_epik_Ionization_Penalty>  (118) 
4.44335e-05

>  <r_epik_Ionization_Penalty_Charging>  (118) 
0

>  <r_epik_Ionization_Penalty_Neutral>  (118) 
4.44335e-05

>  <r_epik_State_Penalty>  (118) 
-0

>  <r_epik_Charging_Adjusted_Penalty>  (118) 
0

>  <i_epik_Tot_Q>  (118) 
0

>  <i_epik_Tot_abs_Q>  (118) 
2

>  <s_epik_Chemistry_Notes>  (118) 
This compound contains an acetal/aminal-like group ( X-CH(R)-Y where X, Y are N, S, or O) that may be acid/base labile, releasing an aldehyde.

>  <s_lp_Force_Field>  (118) 
OPLS3e

>  <r_lp_Energy>  (118) 
270.668

>  <b_lp_Chiralities_Consistent>  (118) 
1

>  <s_lp_Variant>  (118) 
86:0-4

>  <s_i_glide_gridfile>  (118) 
pfpi4k_grid

>  <i_i_glide_lignum>  (118) 
24

>  <i_i_glide_rotatable_bonds>  (118) 
11

>  <r_i_docking_score>  (118) 
-3.6126

>  <r_i_glide_ligand_efficiency>  (118) 
-0.0669

>  <r_i_glide_ligand_efficiency_sa>  (118) 
-0.252866

>  <r_i_glide_ligand_efficiency_ln>  (118) 
-0.724115

>  <r_i_glide_gscore>  (118) 
-3.6126

>  <r_i_glide_lipo>  (118) 
-0.163304

>  <r_i_glide_hbond>  (118) 
-0.0800367

>  <r_i_glide_metal>  (118) 
-0

>  <r_i_glide_rewards>  (118) 
-0.544133

>  <r_i_glide_evdw>  (118) 
-31.4521

>  <r_i_glide_ecoul>  (118) 
-8.20385

>  <r_i_glide_erotb>  (118) 
0.0698826

>  <r_i_glide_esite>  (118) 
-0.0918277

>  <r_i_glide_emodel>  (118) 
-52.7534

>  <r_i_glide_energy>  (118) 
-39.6559

>  <r_i_glide_einternal>  (118) 
0.912816

>  <r_i_glide_intrahb_reward>  (118) 
-0.5

>  <i_i_glide_confnum>  (118) 
5

>  <i_i_glide_posenum>  (118) 
5

>  <r_i_glide_eff_state_penalty>  (118) 
0

>  <ligand_id>  (118) 
86

>  <original_smiles>  (118) 
CC(O)C12OC3C4OC4(C)C4(O)C(=O)C4OC(O)C(=O)C3C1(CO)C(O)C1(O)C(O)C3(C)CCC4C(C)(O)CC5(O)OCC5(C)OC4(C3)C([S+]1[O-])C2(C)C

>  <smiles>  (118) 
[H]OC1([H])OC2([H])C(=O)C2(O[H])C2(C([H])([H])[H])OC2([H])C2([H])OC3(C([H])(O[H])C([H])([H])[H])C(C([H])([H])O[H])(C([H])(O[H])C4(O[H])S(=O)C([H])(C56OC7(C([H])([H])[H])C([H])([H])OC7(O[H])C([H])([H])C(O[H])(C([H])([H])[H])C5([H])C([H])([H])C([H])([H])C(C([H])([H])[H])(C6([H])[H])C4([H])O[H])C3(C([H])([H])[H])C([H])([H])[H])C2([H])C1=O

$$$$
86:3:2
     RDKit          3D

106114  0  0  1  0  0  0  0  0999 V2000
    1.7221    0.5237    1.8310 C   0  0  0  0  0  0  0  0  0  0  0  0
    2.8861    0.2623    2.8165 C   0  0  2  0  0  0  0  0  0  0  0  0
    4.0342   -0.0329    2.0549 O   0  0  0  0  0  0  0  0  0  0  0  0
    2.6881   -0.6502    4.1153 C   0  0  2  0  0  0  0  0  0  0  0  0
    1.4307   -0.0885    4.5696 O   0  0  0  0  0  0  0  0  0  0  0  0
    1.3994    0.2822    5.9394 C   0  0  2  0  0  0  0  0  0  0  0  0
    0.2185    1.1459    6.4018 C   0  0  2  0  0  0  0  0  0  0  0  0
   -1.0027    0.5911    6.8761 O   0  0  0  0  0  0  0  0  0  0  0  0
   -1.0756    1.2771    5.6059 C   0  0  2  0  0  0  0  0  0  0  0  0
   -1.5119    0.3028    4.5420 C   0  0  0  0  0  0  0  0  0  0  0  0
   -1.5184    2.7505    5.4746 C   0  0  2  0  0  0  0  0  0  0  0  0
   -2.7853    3.0658    6.0208 O   0  0  0  0  0  0  0  0  0  0  0  0
   -1.3911    3.3545    4.0886 C   0  0  0  0  0  0  0  0  0  0  0  0
   -1.7205    3.3418    2.9059 O   0  0  0  0  0  0  0  0  0  0  0  0
   -0.6676    4.0037    5.2469 C   0  0  2  0  0  0  0  0  0  0  0  0
    0.7269    3.7515    5.4777 O   0  0  0  0  0  0  0  0  0  0  0  0
    1.5213    3.0226    4.5833 C   0  0  1  0  0  0  0  0  0  0  0  0
    2.0082    3.8451    3.5433 O   0  0  0  0  0  0  0  0  0  0  0  0
    2.7033    2.4799    5.4438 C   0  0  0  0  0  0  0  0  0  0  0  0
    3.5920    3.2621    5.7968 O   0  0  0  0  0  0  0  0  0  0  0  0
    2.7473    0.9982    5.9746 C   0  0  2  0  0  0  0  0  0  0  0  0
    3.7180   -0.0680    5.3017 C   0  0  2  0  0  0  0  0  0  0  0  0
    4.9903    0.8071    4.8702 C   0  0  0  0  0  0  0  0  0  0  0  0
    6.1707    0.1832    4.4183 O   0  0  0  0  0  0  0  0  0  0  0  0
    4.2966   -0.9921    6.5043 C   0  0  1  0  0  0  0  0  0  0  0  0
    3.5396   -0.9684    7.7077 O   0  0  0  0  0  0  0  0  0  0  0  0
    5.0686   -2.3780    6.2980 C   0  0  1  0  0  0  0  0  0  0  0  0
    6.4258   -2.1106    6.6130 O   0  0  0  0  0  0  0  0  0  0  0  0
    4.7673   -3.6307    7.2892 C   0  0  1  0  0  0  0  0  0  0  0  0
    4.7923   -3.2748    8.6579 O   0  0  0  0  0  0  0  0  0  0  0  0
    3.4802   -4.4493    6.9389 C   0  0  2  0  0  0  0  0  0  0  0  0
    2.3019   -3.4285    7.0454 C   0  0  0  0  0  0  0  0  0  0  0  0
    2.8332   -5.6145    7.7018 C   0  0  0  0  0  0  0  0  0  0  0  0
    1.7242   -6.2347    6.7376 C   0  0  0  0  0  0  0  0  0  0  0  0
    1.6153   -5.6968    5.2019 C   0  0  2  0  0  0  0  0  0  0  0  0
    0.8194   -6.7197    4.3183 C   0  0  1  0  0  0  0  0  0  0  0  0
    1.2741   -8.1927    4.4562 C   0  0  0  0  0  0  0  0  0  0  0  0
   -0.5034   -6.7021    4.8283 O   0  0  0  0  0  0  0  0  0  0  0  0
    0.6172   -6.2993    2.8399 C   0  0  0  0  0  0  0  0  0  0  0  0
    1.7772   -6.4681    1.8497 C   0  0  2  0  0  0  0  0  0  0  0  0
    1.3392   -5.8587    0.6462 O   0  0  0  0  0  0  0  0  0  0  0  0
    2.0357   -7.8748    1.6700 O   0  0  0  0  0  0  0  0  0  0  0  0
    3.4380   -7.6776    1.9319 C   0  0  0  0  0  0  0  0  0  0  0  0
    3.2502   -6.1822    2.2144 C   0  0  1  0  0  0  0  0  0  0  0  0
    4.1131   -5.2931    1.3019 C   0  0  0  0  0  0  0  0  0  0  0  0
    3.5433   -6.0053    3.6146 O   0  0  0  0  0  0  0  0  0  0  0  0
    2.9376   -5.0595    4.5323 C   0  0  2  0  0  0  0  0  0  0  0  0
    3.8986   -5.2712    5.6707 C   0  0  0  0  0  0  0  0  0  0  0  0
    3.2143   -3.4867    4.1330 C   0  0  2  0  0  0  0  0  0  0  0  0
    4.9518   -2.9289    4.4978 S   0  0  0  0  0  0  0  0  0  0  0  0
    5.4222   -1.9830    3.3973 O   0  0  0  0  0  0  0  0  0  0  0  0
    2.2377   -2.2433    3.7824 C   0  0  0  0  0  0  0  0  0  0  0  0
    0.7765   -2.5145    4.2520 C   0  0  0  0  0  0  0  0  0  0  0  0
    1.9972   -2.4437    2.2510 C   0  0  0  0  0  0  0  0  0  0  0  0
    0.7403    0.3253    2.2533 H   0  0  0  0  0  0  0  0  0  0  0  0
    1.8159   -0.0617    0.9168 H   0  0  0  0  0  0  0  0  0  0  0  0
    1.7213    1.5642    1.5016 H   0  0  0  0  0  0  0  0  0  0  0  0
    3.0644    1.2717    3.1491 H   0  0  0  0  0  0  0  0  0  0  0  0
    3.8872   -0.8480    1.5995 H   0  0  0  0  0  0  0  0  0  0  0  0
    1.3979   -0.6061    6.5661 H   0  0  0  0  0  0  0  0  0  0  0  0
    0.5074    1.9546    7.0678 H   0  0  0  0  0  0  0  0  0  0  0  0
   -1.0061    0.4914    3.6013 H   0  0  0  0  0  0  0  0  0  0  0  0
   -2.5763    0.4256    4.3901 H   0  0  0  0  0  0  0  0  0  0  0  0
   -1.3485   -0.7203    4.8643 H   0  0  0  0  0  0  0  0  0  0  0  0
   -3.4299    2.4876    5.6402 H   0  0  0  0  0  0  0  0  0  0  0  0
   -1.0244    4.9376    5.6727 H   0  0  0  0  0  0  0  0  0  0  0  0
    0.9817    2.2043    4.1136 H   0  0  0  0  0  0  0  0  0  0  0  0
    1.3074    4.0687    2.9432 H   0  0  0  0  0  0  0  0  0  0  0  0
    3.0288    1.1620    7.0121 H   0  0  0  0  0  0  0  0  0  0  0  0
    4.7808    1.5768    4.1374 H   0  0  0  0  0  0  0  0  0  0  0  0
    5.3309    1.3755    5.7434 H   0  0  0  0  0  0  0  0  0  0  0  0
    5.9660   -0.3666    3.6643 H   0  0  0  0  0  0  0  0  0  0  0  0
    5.0782   -0.3624    6.9275 H   0  0  0  0  0  0  0  0  0  0  0  0
    2.7667   -1.4994    7.5799 H   0  0  0  0  0  0  0  0  0  0  0  0
    6.6216   -2.5145    7.4475 H   0  0  0  0  0  0  0  0  0  0  0  0
    5.6067   -4.3241    7.2292 H   0  0  0  0  0  0  0  0  0  0  0  0
    4.1349   -2.6077    8.8073 H   0  0  0  0  0  0  0  0  0  0  0  0
    1.2894   -3.8074    6.9579 H   0  0  0  0  0  0  0  0  0  0  0  0
    2.3947   -2.6168    6.3476 H   0  0  0  0  0  0  0  0  0  0  0  0
    2.2646   -3.0168    8.0559 H   0  0  0  0  0  0  0  0  0  0  0  0
    3.5710   -6.3707    7.9784 H   0  0  0  0  0  0  0  0  0  0  0  0
    2.3980   -5.3014    8.6534 H   0  0  0  0  0  0  0  0  0  0  0  0
    1.8736   -7.3127    6.7772 H   0  0  0  0  0  0  0  0  0  0  0  0
    0.7558   -6.0765    7.2098 H   0  0  0  0  0  0  0  0  0  0  0  0
    0.9255   -4.8740    5.2784 H   0  0  0  0  0  0  0  0  0  0  0  0
    2.3577   -8.2820    4.4299 H   0  0  0  0  0  0  0  0  0  0  0  0
    0.8587   -8.8076    3.6583 H   0  0  0  0  0  0  0  0  0  0  0  0
    0.9387   -8.6560    5.3831 H   0  0  0  0  0  0  0  0  0  0  0  0
   -0.4942   -7.1974    5.6343 H   0  0  0  0  0  0  0  0  0  0  0  0
   -0.2281   -6.8719    2.4420 H   0  0  0  0  0  0  0  0  0  0  0  0
    0.2765   -5.2691    2.8318 H   0  0  0  0  0  0  0  0  0  0  0  0
    2.0177   -6.0109    0.0002 H   0  0  0  0  0  0  0  0  0  0  0  0
    3.7942   -8.2637    2.7828 H   0  0  0  0  0  0  0  0  0  0  0  0
    4.0452   -7.8935    1.0491 H   0  0  0  0  0  0  0  0  0  0  0  0
    4.2082   -5.7165    0.3017 H   0  0  0  0  0  0  0  0  0  0  0  0
    5.1262   -5.1728    1.6877 H   0  0  0  0  0  0  0  0  0  0  0  0
    3.6956   -4.3069    1.1361 H   0  0  0  0  0  0  0  0  0  0  0  0
    4.9492   -5.2128    5.4079 H   0  0  0  0  0  0  0  0  0  0  0  0
    3.9685   -6.3464    5.8576 H   0  0  0  0  0  0  0  0  0  0  0  0
    3.5832   -3.7141    3.1548 H   0  0  0  0  0  0  0  0  0  0  0  0
    0.4157   -3.4766    3.9153 H   0  0  0  0  0  0  0  0  0  0  0  0
    0.0843   -1.8295    3.7643 H   0  0  0  0  0  0  0  0  0  0  0  0
    0.5966   -2.4226    5.3186 H   0  0  0  0  0  0  0  0  0  0  0  0
    1.7650   -3.4879    2.0386 H   0  0  0  0  0  0  0  0  0  0  0  0
    2.8662   -2.2087    1.6364 H   0  0  0  0  0  0  0  0  0  0  0  0
    1.1380   -1.9002    1.8644 H   0  0  0  0  0  0  0  0  0  0  0  0
  1  2  1  0
  1 55  1  0
  1 56  1  0
  1 57  1  0
  2  3  1  0
  2  4  1  0
  2 58  1  1
  3 59  1  0
  4 22  1  0
  4 52  1  0
  4  5  1  1
  5  6  1  0
  6 21  1  0
  6  7  1  0
  6 60  1  1
  7  9  1  0
  7  8  1  0
  7 61  1  1
  8  9  1  0
  9 10  1  6
  9 11  1  0
 10 62  1  0
 10 63  1  0
 10 64  1  0
 11 15  1  0
 11 12  1  1
 11 13  1  0
 12 65  1  0
 13 14  2  0
 13 15  1  0
 15 16  1  0
 15 66  1  1
 16 17  1  0
 17 18  1  0
 17 19  1  0
 17 67  1  6
 18 68  1  0
 19 20  2  0
 19 21  1  0
 21 22  1  0
 21 69  1  1
 22 23  1  6
 22 25  1  0
 23 24  1  0
 23 70  1  0
 23 71  1  0
 24 72  1  0
 25 26  1  0
 25 27  1  0
 25 73  1  1
 26 74  1  0
 50 27  1  1
 27 28  1  1
 27 29  1  0
 28 75  1  0
 29 30  1  0
 29 31  1  0
 29 76  1  1
 30 77  1  0
 31 48  1  0
 31 32  1  6
 31 33  1  0
 32 78  1  0
 32 79  1  0
 32 80  1  0
 33 34  1  0
 33 81  1  0
 33 82  1  0
 34 35  1  0
 34 83  1  0
 34 84  1  0
 35 47  1  0
 35 36  1  0
 35 85  1  1
 36 37  1  0
 36 38  1  1
 36 39  1  0
 37 86  1  0
 37 87  1  0
 37 88  1  0
 38 89  1  0
 39 40  1  0
 39 90  1  0
 39 91  1  0
 40 44  1  0
 40 41  1  6
 40 42  1  0
 41 92  1  0
 42 43  1  0
 43 44  1  0
 43 93  1  0
 43 94  1  0
 44 45  1  6
 44 46  1  0
 45 95  1  0
 45 96  1  0
 45 97  1  0
 47 46  1  6
 47 48  1  0
 47 49  1  0
 48 98  1  0
 48 99  1  0
 49 50  1  0
 49 52  1  0
 49100  1  6
 50 51  2  0
 52 53  1  0
 52 54  1  0
 53101  1  0
 53102  1  0
 53103  1  0
 54104  1  0
 54105  1  0
 54106  1  0
M  END
>  <i_m_ct_stereo_status>  (119) 
1

>  <s_m_source_file>  (119) 
/var/tmp/pbs.5075288.sched01/tmpd529dnjr/198klec4xt1.sdf

>  <i_m_source_file_index>  (119) 
24

>  <i_lp_mmshare_version>  (119) 
48012

>  <i_f3d_flags>  (119) 
0

>  <s_epik_input>  (119) 
Tz1DKFtDQEBIXTEyKVtDQEhdKFtPSF0pT1tDSF0oQzM9TylDMyhbT0hdKVtDQEBdKE80KShbQ0gzXSlbQ0hdNFtDQEhdMU9bQ0BdKFtDQEhdKFtDSDNdKVtPSF0pKEMoW0NIM10pKFtDSDNdKVtDQEhdNVtTK102W08tXSlbQ0BdMihbQ0gyXVtPSF0pW0NAQEhdKFtPSF0pW0NAQF02KFtPSF0pW0NAQEhdKFtPSF0pW0NAQF0oW0NIM10pKFtDSDJdNylbQ0gyXVtDSDJdW0NAQEhdKFtDQEBdNTc4KVtDQEBdKFtDSDNdKShbT0hdKVtDSDJdW0NAQF05KFtPSF0pW0NAQF0oTzgpKFtDSDJdTzkpW0NIM10=

>  <s_epik_cmdline>  (119) 
J2VwaWtfcHl0aG9uJywgJy1waHQnLCAnMi4wJywgJy1waCcsICc3LjAnLCAnLXRuJywgJzgnLCAnLW1hJywgJzIwMCcsICctaW1hZScsICc8aW5maWxlLm1hZT4nLCAnLW9tYWUnLCAnPG91dGZpbGUubWFlPic=

>  <r_lp_tautomer_probability>  (119) 
1

>  <r_epik_Ionization_Penalty>  (119) 
4.44335e-05

>  <r_epik_Ionization_Penalty_Charging>  (119) 
0

>  <r_epik_Ionization_Penalty_Neutral>  (119) 
4.44335e-05

>  <r_epik_State_Penalty>  (119) 
-0

>  <r_epik_Charging_Adjusted_Penalty>  (119) 
0

>  <i_epik_Tot_Q>  (119) 
0

>  <i_epik_Tot_abs_Q>  (119) 
2

>  <s_epik_Chemistry_Notes>  (119) 
This compound contains an acetal/aminal-like group ( X-CH(R)-Y where X, Y are N, S, or O) that may be acid/base labile, releasing an aldehyde.

>  <s_lp_Force_Field>  (119) 
OPLS3e

>  <r_lp_Energy>  (119) 
270.668

>  <b_lp_Chiralities_Consistent>  (119) 
1

>  <s_lp_Variant>  (119) 
86:0-4

>  <s_i_glide_gridfile>  (119) 
pfpi4k_grid

>  <i_i_glide_lignum>  (119) 
24

>  <i_i_glide_rotatable_bonds>  (119) 
11

>  <r_i_docking_score>  (119) 
-3.60857

>  <r_i_glide_ligand_efficiency>  (119) 
-0.0668254

>  <r_i_glide_ligand_efficiency_sa>  (119) 
-0.252584

>  <r_i_glide_ligand_efficiency_ln>  (119) 
-0.723308

>  <r_i_glide_gscore>  (119) 
-3.60857

>  <r_i_glide_lipo>  (119) 
-0.171438

>  <r_i_glide_hbond>  (119) 
-0.0847133

>  <r_i_glide_metal>  (119) 
-0

>  <r_i_glide_rewards>  (119) 
-0.54514

>  <r_i_glide_evdw>  (119) 
-31.569

>  <r_i_glide_ecoul>  (119) 
-8.03703

>  <r_i_glide_erotb>  (119) 
0.0698826

>  <r_i_glide_esite>  (119) 
-0.093156

>  <r_i_glide_emodel>  (119) 
-52.831

>  <r_i_glide_energy>  (119) 
-39.6061

>  <r_i_glide_einternal>  (119) 
0.684721

>  <r_i_glide_intrahb_reward>  (119) 
-0.5

>  <i_i_glide_confnum>  (119) 
5

>  <i_i_glide_posenum>  (119) 
10

>  <r_i_glide_eff_state_penalty>  (119) 
0

>  <ligand_id>  (119) 
86

>  <original_smiles>  (119) 
CC(O)C12OC3C4OC4(C)C4(O)C(=O)C4OC(O)C(=O)C3C1(CO)C(O)C1(O)C(O)C3(C)CCC4C(C)(O)CC5(O)OCC5(C)OC4(C3)C([S+]1[O-])C2(C)C

>  <smiles>  (119) 
[H]OC1([H])OC2([H])C(=O)C2(O[H])C2(C([H])([H])[H])OC2([H])C2([H])OC3(C([H])(O[H])C([H])([H])[H])C(C([H])([H])O[H])(C([H])(O[H])C4(O[H])S(=O)C([H])(C56OC7(C([H])([H])[H])C([H])([H])OC7(O[H])C([H])([H])C(O[H])(C([H])([H])[H])C5([H])C([H])([H])C([H])([H])C(C([H])([H])[H])(C6([H])[H])C4([H])O[H])C3(C([H])([H])[H])C([H])([H])[H])C2([H])C1=O

$$$$
86:4:0
     RDKit          3D

106114  0  0  1  0  0  0  0  0999 V2000
    5.3629   -0.7840    3.7417 C   0  0  0  0  0  0  0  0  0  0  0  0
    3.9505   -0.1614    3.7107 C   0  0  2  0  0  0  0  0  0  0  0  0
    4.2447    1.1897    4.0273 O   0  0  0  0  0  0  0  0  0  0  0  0
    2.6813   -0.8112    4.4842 C   0  0  2  0  0  0  0  0  0  0  0  0
    1.7316   -0.0087    3.7600 O   0  0  0  0  0  0  0  0  0  0  0  0
    1.0685    1.0276    4.4614 C   0  0  2  0  0  0  0  0  0  0  0  0
    1.6667    2.4239    4.1677 C   0  0  1  0  0  0  0  0  0  0  0  0
    1.4585    2.9187    2.8603 O   0  0  0  0  0  0  0  0  0  0  0  0
    0.9695    3.7437    3.9026 C   0  0  2  0  0  0  0  0  0  0  0  0
    1.8191    4.9910    4.2134 C   0  0  0  0  0  0  0  0  0  0  0  0
   -0.5699    3.9931    3.8691 C   0  0  1  0  0  0  0  0  0  0  0  0
   -0.9442    5.2598    3.4429 O   0  0  0  0  0  0  0  0  0  0  0  0
   -1.5417    2.9486    3.3917 C   0  0  0  0  0  0  0  0  0  0  0  0
   -1.9837    2.2591    2.4900 O   0  0  0  0  0  0  0  0  0  0  0  0
   -1.5620    3.3696    4.8424 C   0  0  1  0  0  0  0  0  0  0  0  0
   -1.0871    2.3550    5.6934 O   0  0  0  0  0  0  0  0  0  0  0  0
   -0.2049    2.7772    6.6801 C   0  0  1  0  0  0  0  0  0  0  0  0
   -0.8469    3.2687    7.8078 O   0  0  0  0  0  0  0  0  0  0  0  0
    0.7524    1.5903    7.0104 C   0  0  0  0  0  0  0  0  0  0  0  0
    1.1587    1.4885    8.1650 O   0  0  0  0  0  0  0  0  0  0  0  0
    1.1240    0.5354    5.9079 C   0  0  2  0  0  0  0  0  0  0  0  0
    2.4073   -0.3821    6.0992 C   0  0  2  0  0  0  0  0  0  0  0  0
    3.6097    0.5240    6.6138 C   0  0  0  0  0  0  0  0  0  0  0  0
    3.7692    0.8293    7.9866 O   0  0  0  0  0  0  0  0  0  0  0  0
    2.0790   -1.4529    7.3173 C   0  0  1  0  0  0  0  0  0  0  0  0
    0.7306   -1.4407    7.7401 O   0  0  0  0  0  0  0  0  0  0  0  0
    2.7560   -2.8885    7.5678 C   0  0  1  0  0  0  0  0  0  0  0  0
    3.5364   -2.7780    8.7547 O   0  0  0  0  0  0  0  0  0  0  0  0
    1.9228   -4.2589    7.8818 C   0  0  1  0  0  0  0  0  0  0  0  0
    0.9758   -4.0695    8.9109 O   0  0  0  0  0  0  0  0  0  0  0  0
    1.3001   -4.9236    6.6022 C   0  0  2  0  0  0  0  0  0  0  0  0
    0.3584   -3.7839    6.1457 C   0  0  0  0  0  0  0  0  0  0  0  0
    0.3154   -6.0835    6.3415 C   0  0  0  0  0  0  0  0  0  0  0  0
    0.1984   -6.1899    4.7442 C   0  0  0  0  0  0  0  0  0  0  0  0
    1.5367   -6.0768    3.8496 C   0  0  2  0  0  0  0  0  0  0  0  0
    1.8217   -7.5924    3.3697 C   0  0  1  0  0  0  0  0  0  0  0  0
    1.4681   -8.7421    4.3679 C   0  0  0  0  0  0  0  0  0  0  0  0
    0.9213   -7.7826    2.2881 O   0  0  0  0  0  0  0  0  0  0  0  0
    3.2117   -8.0102    2.8447 C   0  0  0  0  0  0  0  0  0  0  0  0
    4.0573   -7.0003    2.0913 C   0  0  2  0  0  0  0  0  0  0  0  0
    3.4470   -6.6105    0.9057 O   0  0  0  0  0  0  0  0  0  0  0  0
    5.3425   -7.6623    1.9147 O   0  0  0  0  0  0  0  0  0  0  0  0
    5.8800   -6.8940    3.0426 C   0  0  0  0  0  0  0  0  0  0  0  0
    4.7254   -5.8963    2.9235 C   0  0  1  0  0  0  0  0  0  0  0  0
    5.1602   -4.6364    2.1590 C   0  0  0  0  0  0  0  0  0  0  0  0
    4.0761   -5.7681    4.2062 O   0  0  0  0  0  0  0  0  0  0  0  0
    2.7622   -5.1962    4.4697 C   0  0  2  0  0  0  0  0  0  0  0  0
    2.5589   -5.5807    5.9138 C   0  0  0  0  0  0  0  0  0  0  0  0
    3.0087   -3.5546    4.5511 C   0  0  2  0  0  0  0  0  0  0  0  0
    3.9199   -3.1618    6.1500 S   0  0  0  0  0  0  0  0  0  0  0  0
    5.0379   -2.1214    6.0848 O   0  0  0  0  0  0  0  0  0  0  0  0
    2.2891   -2.2828    3.8541 C   0  0  0  0  0  0  0  0  0  0  0  0
    0.7480   -2.4112    3.5834 C   0  0  0  0  0  0  0  0  0  0  0  0
    2.7200   -2.3781    2.3538 C   0  0  0  0  0  0  0  0  0  0  0  0
    5.3661   -1.8560    3.6784 H   0  0  0  0  0  0  0  0  0  0  0  0
    5.8985   -0.4931    4.6369 H   0  0  0  0  0  0  0  0  0  0  0  0
    5.9653   -0.4082    2.9151 H   0  0  0  0  0  0  0  0  0  0  0  0
    3.6874   -0.0784    2.6567 H   0  0  0  0  0  0  0  0  0  0  0  0
    4.5507    1.6364    3.2221 H   0  0  0  0  0  0  0  0  0  0  0  0
    0.0545    0.9993    4.0887 H   0  0  0  0  0  0  0  0  0  0  0  0
    2.6562    2.5622    4.5782 H   0  0  0  0  0  0  0  0  0  0  0  0
    1.5136    5.4136    5.1658 H   0  0  0  0  0  0  0  0  0  0  0  0
    1.7108    5.7493    3.4380 H   0  0  0  0  0  0  0  0  0  0  0  0
    2.8739    4.7339    4.2811 H   0  0  0  0  0  0  0  0  0  0  0  0
   -0.4167    5.4572    2.6720 H   0  0  0  0  0  0  0  0  0  0  0  0
   -2.4172    3.9572    5.2225 H   0  0  0  0  0  0  0  0  0  0  0  0
    0.4282    3.5824    6.3147 H   0  0  0  0  0  0  0  0  0  0  0  0
   -1.2651    2.5386    8.2720 H   0  0  0  0  0  0  0  0  0  0  0  0
    0.2636   -0.1238    5.9215 H   0  0  0  0  0  0  0  0  0  0  0  0
    4.5736    0.1310    6.3144 H   0  0  0  0  0  0  0  0  0  0  0  0
    3.5215    1.5193    6.2002 H   0  0  0  0  0  0  0  0  0  0  0  0
    2.9895    1.3152    8.2642 H   0  0  0  0  0  0  0  0  0  0  0  0
    2.3788   -0.9266    8.2110 H   0  0  0  0  0  0  0  0  0  0  0  0
    0.2496   -2.0505    7.1780 H   0  0  0  0  0  0  0  0  0  0  0  0
    3.2573   -1.9874    9.2284 H   0  0  0  0  0  0  0  0  0  0  0  0
    2.6116   -4.9831    8.3325 H   0  0  0  0  0  0  0  0  0  0  0  0
    1.4674   -3.8178    9.6914 H   0  0  0  0  0  0  0  0  0  0  0  0
   -0.3514   -3.9030    5.3537 H   0  0  0  0  0  0  0  0  0  0  0  0
    0.9229   -2.9256    5.8973 H   0  0  0  0  0  0  0  0  0  0  0  0
   -0.3404   -3.5323    6.9481 H   0  0  0  0  0  0  0  0  0  0  0  0
    0.6406   -7.0266    6.7882 H   0  0  0  0  0  0  0  0  0  0  0  0
   -0.6651   -5.9037    6.7872 H   0  0  0  0  0  0  0  0  0  0  0  0
   -0.3864   -7.0606    4.5177 H   0  0  0  0  0  0  0  0  0  0  0  0
   -0.5231   -5.5008    4.3083 H   0  0  0  0  0  0  0  0  0  0  0  0
    1.2810   -5.5427    2.9439 H   0  0  0  0  0  0  0  0  0  0  0  0
    1.9712   -8.6260    5.3237 H   0  0  0  0  0  0  0  0  0  0  0  0
    1.7846   -9.7059    3.9719 H   0  0  0  0  0  0  0  0  0  0  0  0
    0.4094   -8.8861    4.5603 H   0  0  0  0  0  0  0  0  0  0  0  0
    1.0360   -8.6708    1.9515 H   0  0  0  0  0  0  0  0  0  0  0  0
    3.7808   -8.3445    3.7176 H   0  0  0  0  0  0  0  0  0  0  0  0
    3.1366   -8.9204    2.2373 H   0  0  0  0  0  0  0  0  0  0  0  0
    4.1292   -6.2549    0.3360 H   0  0  0  0  0  0  0  0  0  0  0  0
    5.8953   -7.4828    3.9588 H   0  0  0  0  0  0  0  0  0  0  0  0
    6.8611   -6.4842    2.8288 H   0  0  0  0  0  0  0  0  0  0  0  0
    5.9214   -4.8770    1.4193 H   0  0  0  0  0  0  0  0  0  0  0  0
    5.6084   -3.8898    2.8038 H   0  0  0  0  0  0  0  0  0  0  0  0
    4.3470   -4.2267    1.5762 H   0  0  0  0  0  0  0  0  0  0  0  0
    3.4722   -5.5460    6.5016 H   0  0  0  0  0  0  0  0  0  0  0  0
    2.5234   -6.6616    5.9633 H   0  0  0  0  0  0  0  0  0  0  0  0
    3.9290   -3.5158    4.0057 H   0  0  0  0  0  0  0  0  0  0  0  0
    0.4536   -3.4483    3.4218 H   0  0  0  0  0  0  0  0  0  0  0  0
    0.4315   -1.8965    2.6731 H   0  0  0  0  0  0  0  0  0  0  0  0
    0.1016   -1.9453    4.3269 H   0  0  0  0  0  0  0  0  0  0  0  0
    2.4033   -3.3365    1.9333 H   0  0  0  0  0  0  0  0  0  0  0  0
    3.7902   -2.2901    2.2015 H   0  0  0  0  0  0  0  0  0  0  0  0
    2.2823   -1.6042    1.7204 H   0  0  0  0  0  0  0  0  0  0  0  0
  1  2  1  0
  1 55  1  0
  1 56  1  0
  1 57  1  0
  2  3  1  0
  2  4  1  0
  2 58  1  6
  3 59  1  0
  4 22  1  0
  4 52  1  0
  4  5  1  6
  5  6  1  0
  6 21  1  0
  6  7  1  0
  6 60  1  6
  7  9  1  0
  7  8  1  0
  7 61  1  1
  8  9  1  0
  9 10  1  1
  9 11  1  0
 10 62  1  0
 10 63  1  0
 10 64  1  0
 11 15  1  0
 11 12  1  6
 11 13  1  0
 12 65  1  0
 13 14  2  0
 13 15  1  0
 15 16  1  0
 15 66  1  1
 16 17  1  0
 17 18  1  0
 17 19  1  0
 17 67  1  6
 18 68  1  0
 19 20  2  0
 19 21  1  0
 21 22  1  0
 21 69  1  6
 22 23  1  1
 22 25  1  0
 23 24  1  0
 23 70  1  0
 23 71  1  0
 24 72  1  0
 25 26  1  0
 25 27  1  0
 25 73  1  1
 26 74  1  0
 50 27  1  1
 27 28  1  1
 27 29  1  0
 28 75  1  0
 29 30  1  0
 29 31  1  0
 29 76  1  1
 30 77  1  0
 31 48  1  0
 31 32  1  6
 31 33  1  0
 32 78  1  0
 32 79  1  0
 32 80  1  0
 33 34  1  0
 33 81  1  0
 33 82  1  0
 34 35  1  0
 34 83  1  0
 34 84  1  0
 35 47  1  0
 35 36  1  0
 35 85  1  6
 36 37  1  0
 36 38  1  6
 36 39  1  0
 37 86  1  0
 37 87  1  0
 37 88  1  0
 38 89  1  0
 39 40  1  0
 39 90  1  0
 39 91  1  0
 40 44  1  0
 40 41  1  6
 40 42  1  0
 41 92  1  0
 42 43  1  0
 43 44  1  0
 43 93  1  0
 43 94  1  0
 44 45  1  6
 44 46  1  0
 45 95  1  0
 45 96  1  0
 45 97  1  0
 47 46  1  6
 47 48  1  0
 47 49  1  0
 48 98  1  0
 48 99  1  0
 49 50  1  0
 49 52  1  0
 49100  1  6
 50 51  2  0
 52 53  1  0
 52 54  1  0
 53101  1  0
 53102  1  0
 53103  1  0
 54104  1  0
 54105  1  0
 54106  1  0
M  END
>  <i_m_ct_stereo_status>  (120) 
1

>  <s_m_source_file>  (120) 
/var/tmp/pbs.5075288.sched01/tmpd529dnjr/198klec4xt1.sdf

>  <i_m_source_file_index>  (120) 
25

>  <i_lp_mmshare_version>  (120) 
48012

>  <i_f3d_flags>  (120) 
0

>  <s_epik_input>  (120) 
Tz1DKFtDQEBIXTEyKVtDQEhdKFtPSF0pT1tDSF0oQzM9TylDMyhbT0hdKVtDQEBdKE80KShbQ0gzXSlbQ0hdNFtDQEhdMU9bQ0BdKFtDQEhdKFtDSDNdKVtPSF0pKEMoW0NIM10pKFtDSDNdKVtDQEhdNVtTK102W08tXSlbQ0BdMihbQ0gyXVtPSF0pW0NAQEhdKFtPSF0pW0NAQF02KFtPSF0pW0NAQEhdKFtPSF0pW0NAQF0oW0NIM10pKFtDSDJdNylbQ0gyXVtDSDJdW0NAQEhdKFtDQEBdNTc4KVtDQEBdKFtDSDNdKShbT0hdKVtDSDJdW0NAQF05KFtPSF0pW0NAQF0oTzgpKFtDSDJdTzkpW0NIM10=

>  <s_epik_cmdline>  (120) 
J2VwaWtfcHl0aG9uJywgJy1waHQnLCAnMi4wJywgJy1waCcsICc3LjAnLCAnLXRuJywgJzgnLCAnLW1hJywgJzIwMCcsICctaW1hZScsICc8aW5maWxlLm1hZT4nLCAnLW9tYWUnLCAnPG91dGZpbGUubWFlPic=

>  <r_lp_tautomer_probability>  (120) 
1

>  <r_epik_Ionization_Penalty>  (120) 
4.44335e-05

>  <r_epik_Ionization_Penalty_Charging>  (120) 
0

>  <r_epik_Ionization_Penalty_Neutral>  (120) 
4.44335e-05

>  <r_epik_State_Penalty>  (120) 
-0

>  <r_epik_Charging_Adjusted_Penalty>  (120) 
0

>  <i_epik_Tot_Q>  (120) 
0

>  <i_epik_Tot_abs_Q>  (120) 
2

>  <s_epik_Chemistry_Notes>  (120) 
This compound contains an acetal/aminal-like group ( X-CH(R)-Y where X, Y are N, S, or O) that may be acid/base labile, releasing an aldehyde.

>  <s_lp_Force_Field>  (120) 
OPLS3e

>  <r_lp_Energy>  (120) 
301.081

>  <b_lp_Chiralities_Consistent>  (120) 
1

>  <s_lp_Variant>  (120) 
86:0-5

>  <s_i_glide_gridfile>  (120) 
pfpi4k_grid

>  <i_i_glide_lignum>  (120) 
25

>  <i_i_glide_rotatable_bonds>  (120) 
11

>  <r_i_docking_score>  (120) 
-3.34591

>  <r_i_glide_ligand_efficiency>  (120) 
-0.0619613

>  <r_i_glide_ligand_efficiency_sa>  (120) 
-0.234199

>  <r_i_glide_ligand_efficiency_ln>  (120) 
-0.67066

>  <r_i_glide_gscore>  (120) 
-3.34591

>  <r_i_glide_lipo>  (120) 
-0.178631

>  <r_i_glide_hbond>  (120) 
0

>  <r_i_glide_metal>  (120) 
-0

>  <r_i_glide_rewards>  (120) 
-0.530863

>  <r_i_glide_evdw>  (120) 
-26.2621

>  <r_i_glide_ecoul>  (120) 
-8.91947

>  <r_i_glide_erotb>  (120) 
0.0698826

>  <r_i_glide_esite>  (120) 
-0.0552737

>  <r_i_glide_emodel>  (120) 
-42.8147

>  <r_i_glide_energy>  (120) 
-35.1816

>  <r_i_glide_einternal>  (120) 
9.39628

>  <r_i_glide_intrahb_reward>  (120) 
-0.5

>  <i_i_glide_confnum>  (120) 
6

>  <i_i_glide_posenum>  (120) 
17

>  <r_i_glide_eff_state_penalty>  (120) 
0

>  <ligand_id>  (120) 
86

>  <original_smiles>  (120) 
CC(O)C12OC3C4OC4(C)C4(O)C(=O)C4OC(O)C(=O)C3C1(CO)C(O)C1(O)C(O)C3(C)CCC4C(C)(O)CC5(O)OCC5(C)OC4(C3)C([S+]1[O-])C2(C)C

>  <smiles>  (120) 
[H]OC1([H])OC2([H])C(=O)C2(O[H])C2(C([H])([H])[H])OC2([H])C2([H])OC3(C([H])(O[H])C([H])([H])[H])C(C([H])([H])O[H])(C([H])(O[H])C4(O[H])S(=O)C([H])(C56OC7(C([H])([H])[H])C([H])([H])OC7(O[H])C([H])([H])C(O[H])(C([H])([H])[H])C5([H])C([H])([H])C([H])([H])C(C([H])([H])[H])(C6([H])[H])C4([H])O[H])C3(C([H])([H])[H])C([H])([H])[H])C2([H])C1=O

$$$$
86:4:1
     RDKit          3D

106114  0  0  1  0  0  0  0  0999 V2000
    3.4669    0.4335    1.5106 C   0  0  0  0  0  0  0  0  0  0  0  0
    3.8955    0.1245    2.9842 C   0  0  2  0  0  0  0  0  0  0  0  0
    5.0456   -0.6603    2.8015 O   0  0  0  0  0  0  0  0  0  0  0  0
    2.8487   -0.3883    4.1212 C   0  0  2  0  0  0  0  0  0  0  0  0
    1.8301    0.5599    3.7628 O   0  0  0  0  0  0  0  0  0  0  0  0
    1.6574    1.6782    4.6027 C   0  0  2  0  0  0  0  0  0  0  0  0
    2.3304    2.9439    4.0515 C   0  0  1  0  0  0  0  0  0  0  0  0
    1.7472    3.5043    2.8874 O   0  0  0  0  0  0  0  0  0  0  0  0
    1.7742    4.3735    4.0236 C   0  0  2  0  0  0  0  0  0  0  0  0
    2.8315    5.4709    3.9852 C   0  0  0  0  0  0  0  0  0  0  0  0
    0.3648    4.8055    4.4869 C   0  0  1  0  0  0  0  0  0  0  0  0
    0.0346    6.1510    4.1953 O   0  0  0  0  0  0  0  0  0  0  0  0
   -0.8639    3.9471    4.4204 C   0  0  0  0  0  0  0  0  0  0  0  0
   -1.7102    3.3722    3.7474 O   0  0  0  0  0  0  0  0  0  0  0  0
   -0.3343    4.3598    5.7694 C   0  0  1  0  0  0  0  0  0  0  0  0
    0.2608    3.2729    6.4611 O   0  0  0  0  0  0  0  0  0  0  0  0
    1.4806    3.5425    7.0580 C   0  0  1  0  0  0  0  0  0  0  0  0
    1.3275    4.1163    8.3378 O   0  0  0  0  0  0  0  0  0  0  0  0
    2.3007    2.2310    7.0905 C   0  0  0  0  0  0  0  0  0  0  0  0
    3.0357    2.0189    8.0529 O   0  0  0  0  0  0  0  0  0  0  0  0
    2.1250    1.1583    5.9626 C   0  0  2  0  0  0  0  0  0  0  0  0
    3.2416    0.0486    5.7091 C   0  0  2  0  0  0  0  0  0  0  0  0
    4.6676    0.7802    5.7158 C   0  0  0  0  0  0  0  0  0  0  0  0
    5.3214    1.0852    6.9399 O   0  0  0  0  0  0  0  0  0  0  0  0
    3.2231   -0.9633    7.0261 C   0  0  1  0  0  0  0  0  0  0  0  0
    2.1040   -0.7641    7.8729 O   0  0  0  0  0  0  0  0  0  0  0  0
    3.7327   -2.4905    7.1038 C   0  0  1  0  0  0  0  0  0  0  0  0
    4.8847   -2.4963    7.9264 O   0  0  0  0  0  0  0  0  0  0  0  0
    2.8703   -3.7299    7.7372 C   0  0  1  0  0  0  0  0  0  0  0  0
    2.3683   -3.4250    9.0264 O   0  0  0  0  0  0  0  0  0  0  0  0
    1.7618   -4.2860    6.7673 C   0  0  2  0  0  0  0  0  0  0  0  0
    0.8920   -3.0120    6.6150 C   0  0  0  0  0  0  0  0  0  0  0  0
    0.6023   -5.2930    6.9035 C   0  0  0  0  0  0  0  0  0  0  0  0
   -0.0570   -5.3595    5.4460 C   0  0  0  0  0  0  0  0  0  0  0  0
    0.8887   -5.4274    4.1425 C   0  0  2  0  0  0  0  0  0  0  0  0
    0.7671   -6.9504    3.6447 C   0  0  1  0  0  0  0  0  0  0  0  0
    0.6209   -8.0506    4.7419 C   0  0  0  0  0  0  0  0  0  0  0  0
   -0.4594   -7.0016    2.9319 O   0  0  0  0  0  0  0  0  0  0  0  0
    1.8239   -7.5619    2.6934 C   0  0  0  0  0  0  0  0  0  0  0  0
    2.5048   -6.6720    1.6709 C   0  0  2  0  0  0  0  0  0  0  0  0
    1.5814   -6.1770    0.7193 O   0  0  0  0  0  0  0  0  0  0  0  0
    3.5446   -7.5062    1.1030 O   0  0  0  0  0  0  0  0  0  0  0  0
    4.5209   -6.8496    1.9340 C   0  0  0  0  0  0  0  0  0  0  0  0
    3.5522   -5.6851    2.1738 C   0  0  1  0  0  0  0  0  0  0  0  0
    3.8825   -4.4989    1.2713 C   0  0  0  0  0  0  0  0  0  0  0  0
    3.4113   -5.4847    3.6038 O   0  0  0  0  0  0  0  0  0  0  0  0
    2.3580   -4.7343    4.2764 C   0  0  2  0  0  0  0  0  0  0  0  0
    2.6061   -5.1070    5.7165 C   0  0  0  0  0  0  0  0  0  0  0  0
    2.8390   -3.1577    4.2130 C   0  0  2  0  0  0  0  0  0  0  0  0
    4.2829   -2.9050    5.3906 S   0  0  0  0  0  0  0  0  0  0  0  0
    5.4522   -2.0473    4.9319 O   0  0  0  0  0  0  0  0  0  0  0  0
    2.0814   -1.7985    3.7515 C   0  0  0  0  0  0  0  0  0  0  0  0
    0.5397   -1.6849    4.0261 C   0  0  0  0  0  0  0  0  0  0  0  0
    1.9603   -1.9858    2.2248 C   0  0  0  0  0  0  0  0  0  0  0  0
    2.4611    0.8447    1.4187 H   0  0  0  0  0  0  0  0  0  0  0  0
    3.5543   -0.4208    0.8380 H   0  0  0  0  0  0  0  0  0  0  0  0
    4.1472    1.1390    1.0380 H   0  0  0  0  0  0  0  0  0  0  0  0
    4.2345    1.1028    3.2929 H   0  0  0  0  0  0  0  0  0  0  0  0
    5.6079   -0.2370    2.1683 H   0  0  0  0  0  0  0  0  0  0  0  0
    0.5801    1.8233    4.6117 H   0  0  0  0  0  0  0  0  0  0  0  0
    3.4117    2.8881    3.9876 H   0  0  0  0  0  0  0  0  0  0  0  0
    2.9310    5.9361    4.9647 H   0  0  0  0  0  0  0  0  0  0  0  0
    2.5652    6.2449    3.2669 H   0  0  0  0  0  0  0  0  0  0  0  0
    3.8108    5.0779    3.6979 H   0  0  0  0  0  0  0  0  0  0  0  0
    0.3492    6.3498    3.3182 H   0  0  0  0  0  0  0  0  0  0  0  0
   -0.8961    5.0546    6.3816 H   0  0  0  0  0  0  0  0  0  0  0  0
    2.0485    4.2709    6.4802 H   0  0  0  0  0  0  0  0  0  0  0  0
    0.9428    3.4671    8.9139 H   0  0  0  0  0  0  0  0  0  0  0  0
    1.2339    0.6269    6.2896 H   0  0  0  0  0  0  0  0  0  0  0  0
    5.4166    0.2250    5.1639 H   0  0  0  0  0  0  0  0  0  0  0  0
    4.6145    1.7510    5.2354 H   0  0  0  0  0  0  0  0  0  0  0  0
    4.7512    1.6341    7.4689 H   0  0  0  0  0  0  0  0  0  0  0  0
    3.8890   -0.4961    7.7403 H   0  0  0  0  0  0  0  0  0  0  0  0
    2.1663    0.1084    8.2357 H   0  0  0  0  0  0  0  0  0  0  0  0
    4.8373   -1.7678    8.5272 H   0  0  0  0  0  0  0  0  0  0  0  0
    3.5676   -4.5445    7.9496 H   0  0  0  0  0  0  0  0  0  0  0  0
    2.1056   -4.2344    9.4349 H   0  0  0  0  0  0  0  0  0  0  0  0
   -0.0590   -3.0050    6.1211 H   0  0  0  0  0  0  0  0  0  0  0  0
    1.4500   -2.2411    6.1585 H   0  0  0  0  0  0  0  0  0  0  0  0
    0.5623   -2.6598    7.5913 H   0  0  0  0  0  0  0  0  0  0  0  0
    0.9220   -6.2772    7.2468 H   0  0  0  0  0  0  0  0  0  0  0  0
   -0.1417   -4.9781    7.6379 H   0  0  0  0  0  0  0  0  0  0  0  0
   -0.8234   -6.1220    5.4504 H   0  0  0  0  0  0  0  0  0  0  0  0
   -0.7456   -4.5537    5.2812 H   0  0  0  0  0  0  0  0  0  0  0  0
    0.4185   -4.8354    3.3593 H   0  0  0  0  0  0  0  0  0  0  0  0
    1.4302   -8.0223    5.4666 H   0  0  0  0  0  0  0  0  0  0  0  0
    0.6466   -9.0479    4.3012 H   0  0  0  0  0  0  0  0  0  0  0  0
   -0.3175   -8.0448    5.2888 H   0  0  0  0  0  0  0  0  0  0  0  0
   -0.6052   -7.9016    2.6702 H   0  0  0  0  0  0  0  0  0  0  0  0
    2.6036   -7.9780    3.3325 H   0  0  0  0  0  0  0  0  0  0  0  0
    1.4244   -8.4394    2.1841 H   0  0  0  0  0  0  0  0  0  0  0  0
    2.0921   -5.9768   -0.0595 H   0  0  0  0  0  0  0  0  0  0  0  0
    4.7780   -7.4393    2.8204 H   0  0  0  0  0  0  0  0  0  0  0  0
    5.4315   -6.5749    1.3894 H   0  0  0  0  0  0  0  0  0  0  0  0
    4.3106   -4.8330    0.3248 H   0  0  0  0  0  0  0  0  0  0  0  0
    4.6156   -3.8125    1.7001 H   0  0  0  0  0  0  0  0  0  0  0  0
    2.9820   -3.9855    0.9625 H   0  0  0  0  0  0  0  0  0  0  0  0
    3.6593   -5.2182    5.9617 H   0  0  0  0  0  0  0  0  0  0  0  0
    2.4391   -6.1770    5.8143 H   0  0  0  0  0  0  0  0  0  0  0  0
    3.5477   -3.2194    3.4061 H   0  0  0  0  0  0  0  0  0  0  0  0
    0.0703   -2.6674    4.0114 H   0  0  0  0  0  0  0  0  0  0  0  0
    0.0092   -1.1083    3.2664 H   0  0  0  0  0  0  0  0  0  0  0  0
    0.2830   -1.1357    4.9314 H   0  0  0  0  0  0  0  0  0  0  0  0
    1.4175   -2.8943    1.9953 H   0  0  0  0  0  0  0  0  0  0  0  0
    2.9368   -2.0925    1.7745 H   0  0  0  0  0  0  0  0  0  0  0  0
    1.4510   -1.1653    1.7150 H   0  0  0  0  0  0  0  0  0  0  0  0
  1  2  1  0
  1 55  1  0
  1 56  1  0
  1 57  1  0
  2  3  1  0
  2  4  1  0
  2 58  1  1
  3 59  1  0
  4 22  1  0
  4 52  1  0
  4  5  1  6
  5  6  1  0
  6 21  1  0
  6  7  1  0
  6 60  1  1
  7  9  1  0
  7  8  1  0
  7 61  1  6
  8  9  1  0
  9 10  1  6
  9 11  1  0
 10 62  1  0
 10 63  1  0
 10 64  1  0
 11 15  1  0
 11 12  1  6
 11 13  1  0
 12 65  1  0
 13 14  2  0
 13 15  1  0
 15 16  1  0
 15 66  1  1
 16 17  1  0
 17 18  1  0
 17 19  1  0
 17 67  1  6
 18 68  1  0
 19 20  2  0
 19 21  1  0
 21 22  1  0
 21 69  1  1
 22 23  1  6
 22 25  1  0
 23 24  1  0
 23 70  1  0
 23 71  1  0
 24 72  1  0
 25 26  1  0
 25 27  1  0
 25 73  1  1
 26 74  1  0
 50 27  1  1
 27 28  1  1
 27 29  1  0
 28 75  1  0
 29 30  1  0
 29 31  1  0
 29 76  1  1
 30 77  1  0
 31 48  1  0
 31 32  1  6
 31 33  1  0
 32 78  1  0
 32 79  1  0
 32 80  1  0
 33 34  1  0
 33 81  1  0
 33 82  1  0
 34 35  1  0
 34 83  1  0
 34 84  1  0
 35 47  1  0
 35 36  1  0
 35 85  1  6
 36 37  1  0
 36 38  1  6
 36 39  1  0
 37 86  1  0
 37 87  1  0
 37 88  1  0
 38 89  1  0
 39 40  1  0
 39 90  1  0
 39 91  1  0
 40 44  1  0
 40 41  1  6
 40 42  1  0
 41 92  1  0
 42 43  1  0
 43 44  1  0
 43 93  1  0
 43 94  1  0
 44 45  1  6
 44 46  1  0
 45 95  1  0
 45 96  1  0
 45 97  1  0
 47 46  1  6
 47 48  1  0
 47 49  1  0
 48 98  1  0
 48 99  1  0
 49 50  1  0
 49 52  1  0
 49100  1  6
 50 51  2  0
 52 53  1  0
 52 54  1  0
 53101  1  0
 53102  1  0
 53103  1  0
 54104  1  0
 54105  1  0
 54106  1  0
M  END
>  <i_m_ct_stereo_status>  (121) 
1

>  <s_m_source_file>  (121) 
/var/tmp/pbs.5075288.sched01/tmpd529dnjr/198klec4xt1.sdf

>  <i_m_source_file_index>  (121) 
25

>  <i_lp_mmshare_version>  (121) 
48012

>  <i_f3d_flags>  (121) 
0

>  <s_epik_input>  (121) 
Tz1DKFtDQEBIXTEyKVtDQEhdKFtPSF0pT1tDSF0oQzM9TylDMyhbT0hdKVtDQEBdKE80KShbQ0gzXSlbQ0hdNFtDQEhdMU9bQ0BdKFtDQEhdKFtDSDNdKVtPSF0pKEMoW0NIM10pKFtDSDNdKVtDQEhdNVtTK102W08tXSlbQ0BdMihbQ0gyXVtPSF0pW0NAQEhdKFtPSF0pW0NAQF02KFtPSF0pW0NAQEhdKFtPSF0pW0NAQF0oW0NIM10pKFtDSDJdNylbQ0gyXVtDSDJdW0NAQEhdKFtDQEBdNTc4KVtDQEBdKFtDSDNdKShbT0hdKVtDSDJdW0NAQF05KFtPSF0pW0NAQF0oTzgpKFtDSDJdTzkpW0NIM10=

>  <s_epik_cmdline>  (121) 
J2VwaWtfcHl0aG9uJywgJy1waHQnLCAnMi4wJywgJy1waCcsICc3LjAnLCAnLXRuJywgJzgnLCAnLW1hJywgJzIwMCcsICctaW1hZScsICc8aW5maWxlLm1hZT4nLCAnLW9tYWUnLCAnPG91dGZpbGUubWFlPic=

>  <r_lp_tautomer_probability>  (121) 
1

>  <r_epik_Ionization_Penalty>  (121) 
4.44335e-05

>  <r_epik_Ionization_Penalty_Charging>  (121) 
0

>  <r_epik_Ionization_Penalty_Neutral>  (121) 
4.44335e-05

>  <r_epik_State_Penalty>  (121) 
-0

>  <r_epik_Charging_Adjusted_Penalty>  (121) 
0

>  <i_epik_Tot_Q>  (121) 
0

>  <i_epik_Tot_abs_Q>  (121) 
2

>  <s_epik_Chemistry_Notes>  (121) 
This compound contains an acetal/aminal-like group ( X-CH(R)-Y where X, Y are N, S, or O) that may be acid/base labile, releasing an aldehyde.

>  <s_lp_Force_Field>  (121) 
OPLS3e

>  <r_lp_Energy>  (121) 
301.081

>  <b_lp_Chiralities_Consistent>  (121) 
1

>  <s_lp_Variant>  (121) 
86:0-5

>  <s_i_glide_gridfile>  (121) 
pfpi4k_grid

>  <i_i_glide_lignum>  (121) 
25

>  <i_i_glide_rotatable_bonds>  (121) 
11

>  <r_i_docking_score>  (121) 
-3.26229

>  <r_i_glide_ligand_efficiency>  (121) 
-0.0604128

>  <r_i_glide_ligand_efficiency_sa>  (121) 
-0.228346

>  <r_i_glide_ligand_efficiency_ln>  (121) 
-0.653899

>  <r_i_glide_gscore>  (121) 
-3.26229

>  <r_i_glide_lipo>  (121) 
-0.163868

>  <r_i_glide_hbond>  (121) 
0

>  <r_i_glide_metal>  (121) 
-0

>  <r_i_glide_rewards>  (121) 
-0.5051

>  <r_i_glide_evdw>  (121) 
-27.8115

>  <r_i_glide_ecoul>  (121) 
-8.10773

>  <r_i_glide_erotb>  (121) 
0.0698826

>  <r_i_glide_esite>  (121) 
-0.0564718

>  <r_i_glide_emodel>  (121) 
-45.5272

>  <r_i_glide_energy>  (121) 
-35.9192

>  <r_i_glide_einternal>  (121) 
5.2854

>  <r_i_glide_intrahb_reward>  (121) 
-0.5

>  <i_i_glide_confnum>  (121) 
4

>  <i_i_glide_posenum>  (121) 
9

>  <r_i_glide_eff_state_penalty>  (121) 
0

>  <ligand_id>  (121) 
86

>  <original_smiles>  (121) 
CC(O)C12OC3C4OC4(C)C4(O)C(=O)C4OC(O)C(=O)C3C1(CO)C(O)C1(O)C(O)C3(C)CCC4C(C)(O)CC5(O)OCC5(C)OC4(C3)C([S+]1[O-])C2(C)C

>  <smiles>  (121) 
[H]OC1([H])OC2([H])C(=O)C2(O[H])C2(C([H])([H])[H])OC2([H])C2([H])OC3(C([H])(O[H])C([H])([H])[H])C(C([H])([H])O[H])(C([H])(O[H])C4(O[H])S(=O)C([H])(C56OC7(C([H])([H])[H])C([H])([H])OC7(O[H])C([H])([H])C(O[H])(C([H])([H])[H])C5([H])C([H])([H])C([H])([H])C(C([H])([H])[H])(C6([H])[H])C4([H])O[H])C3(C([H])([H])[H])C([H])([H])[H])C2([H])C1=O

$$$$
86:4:2
     RDKit          3D

106114  0  0  1  0  0  0  0  0999 V2000
    3.4315   -0.6415    1.4063 C   0  0  0  0  0  0  0  0  0  0  0  0
    3.8681   -0.8676    2.8956 C   0  0  2  0  0  0  0  0  0  0  0  0
    5.0076   -1.6870    2.7973 O   0  0  0  0  0  0  0  0  0  0  0  0
    2.8015   -1.2427    4.0611 C   0  0  2  0  0  0  0  0  0  0  0  0
    1.7740   -0.3586    3.5813 O   0  0  0  0  0  0  0  0  0  0  0  0
    1.5695    0.8564    4.2661 C   0  0  2  0  0  0  0  0  0  0  0  0
    2.2270    2.0414    3.5305 C   0  0  1  0  0  0  0  0  0  0  0  0
    1.5883    2.4844    2.3336 O   0  0  0  0  0  0  0  0  0  0  0  0
    1.6640    3.4770    3.3752 C   0  0  2  0  0  0  0  0  0  0  0  0
    2.7382    4.5489    3.2316 C   0  0  0  0  0  0  0  0  0  0  0  0
    0.2610    3.9586    3.7842 C   0  0  1  0  0  0  0  0  0  0  0  0
   -0.0667    5.2481    3.2938 O   0  0  0  0  0  0  0  0  0  0  0  0
   -0.9566    3.0806    3.7846 C   0  0  0  0  0  0  0  0  0  0  0  0
   -1.7563    2.3907    3.1587 O   0  0  0  0  0  0  0  0  0  0  0  0
   -0.4505    3.6384    5.0905 C   0  0  1  0  0  0  0  0  0  0  0  0
    0.1465    2.6452    5.9168 O   0  0  0  0  0  0  0  0  0  0  0  0
    1.3648    2.9901    6.4870 C   0  0  1  0  0  0  0  0  0  0  0  0
    1.1839    3.7048    7.6835 O   0  0  0  0  0  0  0  0  0  0  0  0
    2.1901    1.6996    6.6922 C   0  0  0  0  0  0  0  0  0  0  0  0
    2.9591    1.6385    7.6519 O   0  0  0  0  0  0  0  0  0  0  0  0
    2.0328    0.5038    5.6929 C   0  0  2  0  0  0  0  0  0  0  0  0
    3.1554   -0.6184    5.5877 C   0  0  2  0  0  0  0  0  0  0  0  0
    4.6020    0.0645    5.6396 C   0  0  0  0  0  0  0  0  0  0  0  0
    4.7475    1.3422    5.0617 O   0  0  0  0  0  0  0  0  0  0  0  0
    3.1126   -1.4562    7.0156 C   0  0  1  0  0  0  0  0  0  0  0  0
    1.9986   -1.1709    7.8412 O   0  0  0  0  0  0  0  0  0  0  0  0
    3.6407   -2.9532    7.2974 C   0  0  1  0  0  0  0  0  0  0  0  0
    4.7538   -2.7964    8.1597 O   0  0  0  0  0  0  0  0  0  0  0  0
    2.7682   -4.1182    8.0575 C   0  0  1  0  0  0  0  0  0  0  0  0
    2.2312   -3.6439    9.2815 O   0  0  0  0  0  0  0  0  0  0  0  0
    1.6845   -4.8058    7.1387 C   0  0  2  0  0  0  0  0  0  0  0  0
    0.8070   -3.5715    6.8206 C   0  0  0  0  0  0  0  0  0  0  0  0
    0.5189   -5.7951    7.3573 C   0  0  0  0  0  0  0  0  0  0  0  0
   -0.1115   -6.0288    5.8948 C   0  0  0  0  0  0  0  0  0  0  0  0
    0.8679   -6.2580    4.6417 C   0  0  2  0  0  0  0  0  0  0  0  0
    0.7648   -7.8415    4.3451 C   0  0  1  0  0  0  0  0  0  0  0  0
    0.5981   -8.8049    5.5602 C   0  0  0  0  0  0  0  0  0  0  0  0
   -0.4436   -7.9909    3.6190 O   0  0  0  0  0  0  0  0  0  0  0  0
    1.8414   -8.5627    3.5003 C   0  0  0  0  0  0  0  0  0  0  0  0
    2.5343   -7.7995    2.3904 C   0  0  2  0  0  0  0  0  0  0  0  0
    1.6184   -7.4572    1.3770 O   0  0  0  0  0  0  0  0  0  0  0  0
    3.5923   -8.6729    1.9318 O   0  0  0  0  0  0  0  0  0  0  0  0
    4.5447   -7.9141    2.7046 C   0  0  0  0  0  0  0  0  0  0  0  0
    3.5608   -6.7420    2.7824 C   0  0  1  0  0  0  0  0  0  0  0  0
    3.9142   -5.6674    1.7529 C   0  0  0  0  0  0  0  0  0  0  0  0
    3.4031   -6.3629    4.1739 O   0  0  0  0  0  0  0  0  0  0  0  0
    2.3337   -5.5473    4.7354 C   0  0  2  0  0  0  0  0  0  0  0  0
    2.5513   -5.7457    6.2118 C   0  0  0  0  0  0  0  0  0  0  0  0
    2.8139   -3.9891    4.4939 C   0  0  2  0  0  0  0  0  0  0  0  0
    4.2430   -3.5886    5.6584 S   0  0  0  0  0  0  0  0  0  0  0  0
    5.4320   -2.8425    5.0703 O   0  0  0  0  0  0  0  0  0  0  0  0
    2.0574   -2.7022    3.8563 C   0  0  0  0  0  0  0  0  0  0  0  0
    0.5083   -2.5709    4.0937 C   0  0  0  0  0  0  0  0  0  0  0  0
    1.9650   -3.0612    2.3537 C   0  0  0  0  0  0  0  0  0  0  0  0
    2.4517   -0.1705    1.2997 H   0  0  0  0  0  0  0  0  0  0  0  0
    3.4462   -1.5450    0.7883 H   0  0  0  0  0  0  0  0  0  0  0  0
    4.1493    0.0219    0.9222 H   0  0  0  0  0  0  0  0  0  0  0  0
    4.2611    0.1143    3.1083 H   0  0  0  0  0  0  0  0  0  0  0  0
    4.7408   -2.5817    2.6313 H   0  0  0  0  0  0  0  0  0  0  0  0
    0.4916    0.9705    4.2477 H   0  0  0  0  0  0  0  0  0  0  0  0
    3.2965    1.9506    3.3914 H   0  0  0  0  0  0  0  0  0  0  0  0
    2.8243    5.1214    4.1529 H   0  0  0  0  0  0  0  0  0  0  0  0
    2.5038    5.2374    2.4234 H   0  0  0  0  0  0  0  0  0  0  0  0
    3.7226    4.1293    3.0254 H   0  0  0  0  0  0  0  0  0  0  0  0
    0.0917    5.1744    2.3302 H   0  0  0  0  0  0  0  0  0  0  0  0
   -1.0095    4.4063    5.6067 H   0  0  0  0  0  0  0  0  0  0  0  0
    1.9394    3.6393    5.8263 H   0  0  0  0  0  0  0  0  0  0  0  0
    2.0362    4.0123    7.9548 H   0  0  0  0  0  0  0  0  0  0  0  0
    1.1429    0.0057    6.0784 H   0  0  0  0  0  0  0  0  0  0  0  0
    4.9325    0.2955    6.6516 H   0  0  0  0  0  0  0  0  0  0  0  0
    5.3816   -0.5746    5.2414 H   0  0  0  0  0  0  0  0  0  0  0  0
    4.5994    1.2563    4.1314 H   0  0  0  0  0  0  0  0  0  0  0  0
    3.7763   -0.8817    7.6531 H   0  0  0  0  0  0  0  0  0  0  0  0
    2.1916   -1.5247    8.7006 H   0  0  0  0  0  0  0  0  0  0  0  0
    4.6916   -3.4099    8.8765 H   0  0  0  0  0  0  0  0  0  0  0  0
    3.4502   -4.9094    8.3806 H   0  0  0  0  0  0  0  0  0  0  0  0
    2.9481   -3.4418    9.8681 H   0  0  0  0  0  0  0  0  0  0  0  0
   -0.1336   -3.6436    6.3075 H   0  0  0  0  0  0  0  0  0  0  0  0
    1.3735   -2.8531    6.2940 H   0  0  0  0  0  0  0  0  0  0  0  0
    0.4485   -3.1182    7.7439 H   0  0  0  0  0  0  0  0  0  0  0  0
    0.8281   -6.7358    7.8183 H   0  0  0  0  0  0  0  0  0  0  0  0
   -0.2416   -5.4112    8.0399 H   0  0  0  0  0  0  0  0  0  0  0  0
   -0.8503   -6.8080    5.9608 H   0  0  0  0  0  0  0  0  0  0  0  0
   -0.8344   -5.2793    5.6008 H   0  0  0  0  0  0  0  0  0  0  0  0
    0.4078   -5.7824    3.7737 H   0  0  0  0  0  0  0  0  0  0  0  0
    1.3923   -8.6875    6.2928 H   0  0  0  0  0  0  0  0  0  0  0  0
    0.6363   -9.8495    5.2379 H   0  0  0  0  0  0  0  0  0  0  0  0
   -0.3549   -8.7368    6.0753 H   0  0  0  0  0  0  0  0  0  0  0  0
   -0.6456   -8.9175    3.5585 H   0  0  0  0  0  0  0  0  0  0  0  0
    2.6151   -8.8892    4.1911 H   0  0  0  0  0  0  0  0  0  0  0  0
    1.4595   -9.4949    3.0865 H   0  0  0  0  0  0  0  0  0  0  0  0
    1.2582   -8.2723    1.0597 H   0  0  0  0  0  0  0  0  0  0  0  0
    4.7841   -8.3864    3.6663 H   0  0  0  0  0  0  0  0  0  0  0  0
    5.4650   -7.7028    2.1526 H   0  0  0  0  0  0  0  0  0  0  0  0
    4.3661   -6.1069    0.8632 H   0  0  0  0  0  0  0  0  0  0  0  0
    4.6373   -4.9338    2.1137 H   0  0  0  0  0  0  0  0  0  0  0  0
    3.0208   -5.1966    1.3678 H   0  0  0  0  0  0  0  0  0  0  0  0
    3.6017   -5.8189    6.4811 H   0  0  0  0  0  0  0  0  0  0  0  0
    2.3837   -6.8003    6.4284 H   0  0  0  0  0  0  0  0  0  0  0  0
    3.5236   -4.1529    3.7010 H   0  0  0  0  0  0  0  0  0  0  0  0
    0.0416   -3.5538    4.1822 H   0  0  0  0  0  0  0  0  0  0  0  0
   -0.0123   -2.0826    3.2721 H   0  0  0  0  0  0  0  0  0  0  0  0
    0.2309   -1.9209    4.9248 H   0  0  0  0  0  0  0  0  0  0  0  0
    1.4032   -3.9866    2.2169 H   0  0  0  0  0  0  0  0  0  0  0  0
    2.9507   -3.1990    1.9251 H   0  0  0  0  0  0  0  0  0  0  0  0
    1.4734   -2.2911    1.7562 H   0  0  0  0  0  0  0  0  0  0  0  0
  1  2  1  0
  1 55  1  0
  1 56  1  0
  1 57  1  0
  2  3  1  0
  2  4  1  0
  2 58  1  1
  3 59  1  0
  4 22  1  0
  4 52  1  0
  4  5  1  6
  5  6  1  0
  6 21  1  0
  6  7  1  0
  6 60  1  1
  7  9  1  0
  7  8  1  0
  7 61  1  6
  8  9  1  0
  9 10  1  6
  9 11  1  0
 10 62  1  0
 10 63  1  0
 10 64  1  0
 11 15  1  0
 11 12  1  6
 11 13  1  0
 12 65  1  0
 13 14  2  0
 13 15  1  0
 15 16  1  0
 15 66  1  1
 16 17  1  0
 17 18  1  0
 17 19  1  0
 17 67  1  6
 18 68  1  0
 19 20  2  0
 19 21  1  0
 21 22  1  0
 21 69  1  1
 22 23  1  6
 22 25  1  0
 23 24  1  0
 23 70  1  0
 23 71  1  0
 24 72  1  0
 25 26  1  0
 25 27  1  0
 25 73  1  1
 26 74  1  0
 50 27  1  1
 27 28  1  1
 27 29  1  0
 28 75  1  0
 29 30  1  0
 29 31  1  0
 29 76  1  1
 30 77  1  0
 31 48  1  0
 31 32  1  6
 31 33  1  0
 32 78  1  0
 32 79  1  0
 32 80  1  0
 33 34  1  0
 33 81  1  0
 33 82  1  0
 34 35  1  0
 34 83  1  0
 34 84  1  0
 35 47  1  0
 35 36  1  0
 35 85  1  6
 36 37  1  0
 36 38  1  6
 36 39  1  0
 37 86  1  0
 37 87  1  0
 37 88  1  0
 38 89  1  0
 39 40  1  0
 39 90  1  0
 39 91  1  0
 40 44  1  0
 40 41  1  6
 40 42  1  0
 41 92  1  0
 42 43  1  0
 43 44  1  0
 43 93  1  0
 43 94  1  0
 44 45  1  6
 44 46  1  0
 45 95  1  0
 45 96  1  0
 45 97  1  0
 47 46  1  6
 47 48  1  0
 47 49  1  0
 48 98  1  0
 48 99  1  0
 49 50  1  0
 49 52  1  0
 49100  1  6
 50 51  2  0
 52 53  1  0
 52 54  1  0
 53101  1  0
 53102  1  0
 53103  1  0
 54104  1  0
 54105  1  0
 54106  1  0
M  END
>  <i_m_ct_stereo_status>  (122) 
1

>  <s_m_source_file>  (122) 
/var/tmp/pbs.5075288.sched01/tmpd529dnjr/198klec4xt1.sdf

>  <i_m_source_file_index>  (122) 
25

>  <i_lp_mmshare_version>  (122) 
48012

>  <i_f3d_flags>  (122) 
0

>  <s_epik_input>  (122) 
Tz1DKFtDQEBIXTEyKVtDQEhdKFtPSF0pT1tDSF0oQzM9TylDMyhbT0hdKVtDQEBdKE80KShbQ0gzXSlbQ0hdNFtDQEhdMU9bQ0BdKFtDQEhdKFtDSDNdKVtPSF0pKEMoW0NIM10pKFtDSDNdKVtDQEhdNVtTK102W08tXSlbQ0BdMihbQ0gyXVtPSF0pW0NAQEhdKFtPSF0pW0NAQF02KFtPSF0pW0NAQEhdKFtPSF0pW0NAQF0oW0NIM10pKFtDSDJdNylbQ0gyXVtDSDJdW0NAQEhdKFtDQEBdNTc4KVtDQEBdKFtDSDNdKShbT0hdKVtDSDJdW0NAQF05KFtPSF0pW0NAQF0oTzgpKFtDSDJdTzkpW0NIM10=

>  <s_epik_cmdline>  (122) 
J2VwaWtfcHl0aG9uJywgJy1waHQnLCAnMi4wJywgJy1waCcsICc3LjAnLCAnLXRuJywgJzgnLCAnLW1hJywgJzIwMCcsICctaW1hZScsICc8aW5maWxlLm1hZT4nLCAnLW9tYWUnLCAnPG91dGZpbGUubWFlPic=

>  <r_lp_tautomer_probability>  (122) 
1

>  <r_epik_Ionization_Penalty>  (122) 
4.44335e-05

>  <r_epik_Ionization_Penalty_Charging>  (122) 
0

>  <r_epik_Ionization_Penalty_Neutral>  (122) 
4.44335e-05

>  <r_epik_State_Penalty>  (122) 
-0

>  <r_epik_Charging_Adjusted_Penalty>  (122) 
0

>  <i_epik_Tot_Q>  (122) 
0

>  <i_epik_Tot_abs_Q>  (122) 
2

>  <s_epik_Chemistry_Notes>  (122) 
This compound contains an acetal/aminal-like group ( X-CH(R)-Y where X, Y are N, S, or O) that may be acid/base labile, releasing an aldehyde.

>  <s_lp_Force_Field>  (122) 
OPLS3e

>  <r_lp_Energy>  (122) 
301.081

>  <b_lp_Chiralities_Consistent>  (122) 
1

>  <s_lp_Variant>  (122) 
86:0-5

>  <s_i_glide_gridfile>  (122) 
pfpi4k_grid

>  <i_i_glide_lignum>  (122) 
25

>  <i_i_glide_rotatable_bonds>  (122) 
11

>  <r_i_docking_score>  (122) 
-2.85165

>  <r_i_glide_ligand_efficiency>  (122) 
-0.0528083

>  <r_i_glide_ligand_efficiency_sa>  (122) 
-0.199603

>  <r_i_glide_ligand_efficiency_ln>  (122) 
-0.571589

>  <r_i_glide_gscore>  (122) 
-2.85165

>  <r_i_glide_lipo>  (122) 
-0.0960648

>  <r_i_glide_hbond>  (122) 
0

>  <r_i_glide_metal>  (122) 
-0

>  <r_i_glide_rewards>  (122) 
-0.00145241

>  <r_i_glide_evdw>  (122) 
-29.559

>  <r_i_glide_ecoul>  (122) 
-8.53673

>  <r_i_glide_erotb>  (122) 
0.0698826

>  <r_i_glide_esite>  (122) 
-0.0655535

>  <r_i_glide_emodel>  (122) 
-40.5403

>  <r_i_glide_energy>  (122) 
-38.0958

>  <r_i_glide_einternal>  (122) 
6.96295

>  <r_i_glide_intrahb_reward>  (122) 
-0

>  <i_i_glide_confnum>  (122) 
3

>  <i_i_glide_posenum>  (122) 
16

>  <r_i_glide_eff_state_penalty>  (122) 
0

>  <ligand_id>  (122) 
86

>  <original_smiles>  (122) 
CC(O)C12OC3C4OC4(C)C4(O)C(=O)C4OC(O)C(=O)C3C1(CO)C(O)C1(O)C(O)C3(C)CCC4C(C)(O)CC5(O)OCC5(C)OC4(C3)C([S+]1[O-])C2(C)C

>  <smiles>  (122) 
[H]OC1([H])OC2([H])C(=O)C2(O[H])C2(C([H])([H])[H])OC2([H])C2([H])OC3(C([H])(O[H])C([H])([H])[H])C(C([H])([H])O[H])(C([H])(O[H])C4(O[H])S(=O)C([H])(C56OC7(C([H])([H])[H])C([H])([H])OC7(O[H])C([H])([H])C(O[H])(C([H])([H])[H])C5([H])C([H])([H])C([H])([H])C(C([H])([H])[H])(C6([H])[H])C4([H])O[H])C3(C([H])([H])[H])C([H])([H])[H])C2([H])C1=O

$$$$
86:5:0
     RDKit          3D

106114  0  0  1  0  0  0  0  0999 V2000
    5.6026   -0.3257    3.6635 C   0  0  0  0  0  0  0  0  0  0  0  0
    4.0883   -0.0407    3.7706 C   0  0  2  0  0  0  0  0  0  0  0  0
    4.1277    1.2769    4.2441 O   0  0  0  0  0  0  0  0  0  0  0  0
    3.1278   -1.0578    4.5545 C   0  0  2  0  0  0  0  0  0  0  0  0
    1.8997   -0.3524    4.2522 O   0  0  0  0  0  0  0  0  0  0  0  0
    0.9907   -0.2544    5.3376 C   0  0  2  0  0  0  0  0  0  0  0  0
   -0.1993    0.6956    5.1642 C   0  0  2  0  0  0  0  0  0  0  0  0
   -1.3407    0.3382    4.3479 O   0  0  0  0  0  0  0  0  0  0  0  0
   -0.5479    1.4656    3.8765 C   0  0  2  0  0  0  0  0  0  0  0  0
    0.0639    1.1785    2.5391 C   0  0  0  0  0  0  0  0  0  0  0  0
   -1.0152    2.9172    4.1098 C   0  0  1  0  0  0  0  0  0  0  0  0
   -1.5215    3.6230    2.9814 O   0  0  0  0  0  0  0  0  0  0  0  0
   -1.6397    3.4823    5.3675 C   0  0  0  0  0  0  0  0  0  0  0  0
   -2.5804    3.5098    6.1366 O   0  0  0  0  0  0  0  0  0  0  0  0
   -0.2247    3.8788    5.0116 C   0  0  1  0  0  0  0  0  0  0  0  0
    0.6509    3.2726    5.9745 O   0  0  0  0  0  0  0  0  0  0  0  0
    1.8401    2.7290    5.4861 C   0  0  1  0  0  0  0  0  0  0  0  0
    2.7861    3.7744    5.2771 O   0  0  0  0  0  0  0  0  0  0  0  0
    2.3026    1.6921    6.5572 C   0  0  0  0  0  0  0  0  0  0  0  0
    2.8558    2.1179    7.5652 O   0  0  0  0  0  0  0  0  0  0  0  0
    1.9901    0.1495    6.4416 C   0  0  2  0  0  0  0  0  0  0  0  0
    3.1595   -0.9129    6.2229 C   0  0  2  0  0  0  0  0  0  0  0  0
    4.5088   -0.3624    6.8548 C   0  0  0  0  0  0  0  0  0  0  0  0
    4.4428   -0.0443    8.2364 O   0  0  0  0  0  0  0  0  0  0  0  0
    2.7992   -2.1796    7.1773 C   0  0  1  0  0  0  0  0  0  0  0  0
    1.4387   -2.2796    7.5653 O   0  0  0  0  0  0  0  0  0  0  0  0
    3.5987   -3.5713    7.1814 C   0  0  1  0  0  0  0  0  0  0  0  0
    4.4805   -3.4803    8.2982 O   0  0  0  0  0  0  0  0  0  0  0  0
    2.8430   -4.9807    7.4178 C   0  0  1  0  0  0  0  0  0  0  0  0
    1.9934   -4.8675    8.5518 O   0  0  0  0  0  0  0  0  0  0  0  0
    2.0919   -5.5586    6.1599 C   0  0  2  0  0  0  0  0  0  0  0  0
    1.0192   -4.4792    5.8307 C   0  0  0  0  0  0  0  0  0  0  0  0
    1.1832   -6.7891    6.0522 C   0  0  0  0  0  0  0  0  0  0  0  0
    0.8981   -7.0135    4.4983 C   0  0  0  0  0  0  0  0  0  0  0  0
    1.6740   -6.0769    3.4040 C   0  0  2  0  0  0  0  0  0  0  0  0
    1.5831   -6.7265    1.9768 C   0  0  1  0  0  0  0  0  0  0  0  0
    1.9302   -8.2336    1.9244 C   0  0  0  0  0  0  0  0  0  0  0  0
    0.2057   -6.6613    1.6151 O   0  0  0  0  0  0  0  0  0  0  0  0
    2.2712   -5.9101    0.8481 C   0  0  0  0  0  0  0  0  0  0  0  0
    3.8074   -5.9779    0.7173 C   0  0  2  0  0  0  0  0  0  0  0  0
    4.1154   -5.0137   -0.2793 O   0  0  0  0  0  0  0  0  0  0  0  0
    4.2174   -7.3050    0.3018 O   0  0  0  0  0  0  0  0  0  0  0  0
    5.1614   -7.3828    1.3858 C   0  0  0  0  0  0  0  0  0  0  0  0
    4.7700   -6.0014    1.9085 C   0  0  1  0  0  0  0  0  0  0  0  0
    5.9630   -5.0365    1.9512 C   0  0  0  0  0  0  0  0  0  0  0  0
    4.1654   -6.2271    3.2004 O   0  0  0  0  0  0  0  0  0  0  0  0
    3.1131   -5.4613    3.8341 C   0  0  2  0  0  0  0  0  0  0  0  0
    3.2181   -6.0828    5.2023 C   0  0  0  0  0  0  0  0  0  0  0  0
    3.5307   -3.8770    4.0988 C   0  0  2  0  0  0  0  0  0  0  0  0
    4.5947   -3.6919    5.6133 S   0  0  0  0  0  0  0  0  0  0  0  0
    5.8187   -2.7946    5.4622 O   0  0  0  0  0  0  0  0  0  0  0  0
    2.8876   -2.4589    3.6401 C   0  0  0  0  0  0  0  0  0  0  0  0
    1.3989   -2.6195    3.1758 C   0  0  0  0  0  0  0  0  0  0  0  0
    3.4871   -2.2818    2.1958 C   0  0  0  0  0  0  0  0  0  0  0  0
    5.8759   -1.3664    3.5758 H   0  0  0  0  0  0  0  0  0  0  0  0
    6.1521    0.0640    4.5184 H   0  0  0  0  0  0  0  0  0  0  0  0
    6.0144    0.1832    2.7915 H   0  0  0  0  0  0  0  0  0  0  0  0
    3.6698    0.1288    2.7738 H   0  0  0  0  0  0  0  0  0  0  0  0
    4.3753    1.8315    3.5205 H   0  0  0  0  0  0  0  0  0  0  0  0
    0.5657   -1.2356    5.5610 H   0  0  0  0  0  0  0  0  0  0  0  0
   -0.5473    1.0891    6.1129 H   0  0  0  0  0  0  0  0  0  0  0  0
    0.9401    1.8040    2.3886 H   0  0  0  0  0  0  0  0  0  0  0  0
   -0.6574    1.3931    1.7512 H   0  0  0  0  0  0  0  0  0  0  0  0
    0.3389    0.1477    2.4514 H   0  0  0  0  0  0  0  0  0  0  0  0
   -0.8363    3.7124    2.3252 H   0  0  0  0  0  0  0  0  0  0  0  0
    0.0329    4.8777    4.6319 H   0  0  0  0  0  0  0  0  0  0  0  0
    1.7091    2.2080    4.5301 H   0  0  0  0  0  0  0  0  0  0  0  0
    2.6010    4.1569    4.4334 H   0  0  0  0  0  0  0  0  0  0  0  0
    1.4966   -0.0057    7.4001 H   0  0  0  0  0  0  0  0  0  0  0  0
    5.3203   -1.0649    6.7621 H   0  0  0  0  0  0  0  0  0  0  0  0
    4.8680    0.5607    6.4311 H   0  0  0  0  0  0  0  0  0  0  0  0
    3.8650    0.7015    8.3419 H   0  0  0  0  0  0  0  0  0  0  0  0
    3.0223   -1.8259    8.1801 H   0  0  0  0  0  0  0  0  0  0  0  0
    1.4265   -2.8870    8.2905 H   0  0  0  0  0  0  0  0  0  0  0  0
    4.4789   -4.2921    8.7810 H   0  0  0  0  0  0  0  0  0  0  0  0
    3.5935   -5.7303    7.6941 H   0  0  0  0  0  0  0  0  0  0  0  0
    2.5371   -4.7223    9.3122 H   0  0  0  0  0  0  0  0  0  0  0  0
    0.2617   -4.7001    5.0864 H   0  0  0  0  0  0  0  0  0  0  0  0
    1.4772   -3.5482    5.5660 H   0  0  0  0  0  0  0  0  0  0  0  0
    0.3875   -4.3087    6.7072 H   0  0  0  0  0  0  0  0  0  0  0  0
    1.6478   -7.6720    6.4917 H   0  0  0  0  0  0  0  0  0  0  0  0
    0.2502   -6.6677    6.6042 H   0  0  0  0  0  0  0  0  0  0  0  0
    1.0562   -8.0784    4.3100 H   0  0  0  0  0  0  0  0  0  0  0  0
   -0.1678   -6.8641    4.3458 H   0  0  0  0  0  0  0  0  0  0  0  0
    1.0190   -5.2268    3.2980 H   0  0  0  0  0  0  0  0  0  0  0  0
    2.8315   -8.4548    2.4894 H   0  0  0  0  0  0  0  0  0  0  0  0
    2.0766   -8.5762    0.9029 H   0  0  0  0  0  0  0  0  0  0  0  0
    1.1381   -8.8615    2.3291 H   0  0  0  0  0  0  0  0  0  0  0  0
    0.0098   -7.4779    1.1770 H   0  0  0  0  0  0  0  0  0  0  0  0
    1.8341   -6.2249   -0.1056 H   0  0  0  0  0  0  0  0  0  0  0  0
    1.9582   -4.8722    0.9583 H   0  0  0  0  0  0  0  0  0  0  0  0
    3.8088   -5.3648   -1.0940 H   0  0  0  0  0  0  0  0  0  0  0  0
    4.9686   -8.1992    2.0753 H   0  0  0  0  0  0  0  0  0  0  0  0
    6.1732   -7.4520    1.0015 H   0  0  0  0  0  0  0  0  0  0  0  0
    6.6446   -5.2198    1.1197 H   0  0  0  0  0  0  0  0  0  0  0  0
    6.5414   -5.1371    2.8669 H   0  0  0  0  0  0  0  0  0  0  0  0
    5.6715   -4.0001    1.8299 H   0  0  0  0  0  0  0  0  0  0  0  0
    4.2096   -6.1133    5.6261 H   0  0  0  0  0  0  0  0  0  0  0  0
    3.2121   -7.1659    5.0759 H   0  0  0  0  0  0  0  0  0  0  0  0
    4.4115   -3.8800    3.4882 H   0  0  0  0  0  0  0  0  0  0  0  0
    1.3193   -3.4467    2.4815 H   0  0  0  0  0  0  0  0  0  0  0  0
    1.0697   -1.7834    2.5575 H   0  0  0  0  0  0  0  0  0  0  0  0
    0.6250   -2.7333    3.9339 H   0  0  0  0  0  0  0  0  0  0  0  0
    3.3771   -3.1990    1.6136 H   0  0  0  0  0  0  0  0  0  0  0  0
    4.5543   -2.0922    2.1689 H   0  0  0  0  0  0  0  0  0  0  0  0
    3.0114   -1.4841    1.6197 H   0  0  0  0  0  0  0  0  0  0  0  0
  1  2  1  0
  1 55  1  0
  1 56  1  0
  1 57  1  0
  2  3  1  0
  2  4  1  0
  2 58  1  6
  3 59  1  0
  4 22  1  0
  4 52  1  0
  4  5  1  6
  5  6  1  0
  6 21  1  0
  6  7  1  0
  6 60  1  1
  7  9  1  0
  7  8  1  0
  7 61  1  1
  8  9  1  0
  9 10  1  6
  9 11  1  0
 10 62  1  0
 10 63  1  0
 10 64  1  0
 11 15  1  0
 11 12  1  6
 11 13  1  0
 12 65  1  0
 13 14  2  0
 13 15  1  0
 15 16  1  0
 15 66  1  6
 16 17  1  0
 17 18  1  0
 17 19  1  0
 17 67  1  6
 18 68  1  0
 19 20  2  0
 19 21  1  0
 21 22  1  0
 21 69  1  1
 22 23  1  1
 22 25  1  0
 23 24  1  0
 23 70  1  0
 23 71  1  0
 24 72  1  0
 25 26  1  0
 25 27  1  0
 25 73  1  1
 26 74  1  0
 50 27  1  1
 27 28  1  1
 27 29  1  0
 28 75  1  0
 29 30  1  0
 29 31  1  0
 29 76  1  1
 30 77  1  0
 31 48  1  0
 31 32  1  6
 31 33  1  0
 32 78  1  0
 32 79  1  0
 32 80  1  0
 33 34  1  0
 33 81  1  0
 33 82  1  0
 34 35  1  0
 34 83  1  0
 34 84  1  0
 35 47  1  0
 35 36  1  0
 35 85  1  6
 36 37  1  0
 36 38  1  6
 36 39  1  0
 37 86  1  0
 37 87  1  0
 37 88  1  0
 38 89  1  0
 39 40  1  0
 39 90  1  0
 39 91  1  0
 40 44  1  0
 40 41  1  6
 40 42  1  0
 41 92  1  0
 42 43  1  0
 43 44  1  0
 43 93  1  0
 43 94  1  0
 44 45  1  1
 44 46  1  0
 45 95  1  0
 45 96  1  0
 45 97  1  0
 47 46  1  6
 47 48  1  0
 47 49  1  0
 48 98  1  0
 48 99  1  0
 49 50  1  0
 49 52  1  0
 49100  1  6
 50 51  2  0
 52 53  1  0
 52 54  1  0
 53101  1  0
 53102  1  0
 53103  1  0
 54104  1  0
 54105  1  0
 54106  1  0
M  END
>  <i_m_ct_stereo_status>  (123) 
1

>  <s_m_source_file>  (123) 
/var/tmp/pbs.5075288.sched01/tmpd529dnjr/198klec4xt1.sdf

>  <i_m_source_file_index>  (123) 
26

>  <i_lp_mmshare_version>  (123) 
48012

>  <i_f3d_flags>  (123) 
0

>  <s_epik_input>  (123) 
Tz1DKFtDQEBIXTEyKVtDQEhdKFtPSF0pT1tDSF0oQzM9TylDMyhbT0hdKVtDQEBdKE80KShbQ0gzXSlbQ0hdNFtDQEhdMU9bQ0BdKFtDQEhdKFtDSDNdKVtPSF0pKEMoW0NIM10pKFtDSDNdKVtDQEhdNVtTK102W08tXSlbQ0BdMihbQ0gyXVtPSF0pW0NAQEhdKFtPSF0pW0NAQF02KFtPSF0pW0NAQEhdKFtPSF0pW0NAQF0oW0NIM10pKFtDSDJdNylbQ0gyXVtDSDJdW0NAQEhdKFtDQEBdNTc4KVtDQEBdKFtDSDNdKShbT0hdKVtDSDJdW0NAQF05KFtPSF0pW0NAQF0oTzgpKFtDSDJdTzkpW0NIM10=

>  <s_epik_cmdline>  (123) 
J2VwaWtfcHl0aG9uJywgJy1waHQnLCAnMi4wJywgJy1waCcsICc3LjAnLCAnLXRuJywgJzgnLCAnLW1hJywgJzIwMCcsICctaW1hZScsICc8aW5maWxlLm1hZT4nLCAnLW9tYWUnLCAnPG91dGZpbGUubWFlPic=

>  <r_lp_tautomer_probability>  (123) 
1

>  <r_epik_Ionization_Penalty>  (123) 
4.44335e-05

>  <r_epik_Ionization_Penalty_Charging>  (123) 
0

>  <r_epik_Ionization_Penalty_Neutral>  (123) 
4.44335e-05

>  <r_epik_State_Penalty>  (123) 
-0

>  <r_epik_Charging_Adjusted_Penalty>  (123) 
0

>  <i_epik_Tot_Q>  (123) 
0

>  <i_epik_Tot_abs_Q>  (123) 
2

>  <s_epik_Chemistry_Notes>  (123) 
This compound contains an acetal/aminal-like group ( X-CH(R)-Y where X, Y are N, S, or O) that may be acid/base labile, releasing an aldehyde.

>  <s_lp_Force_Field>  (123) 
OPLS3e

>  <r_lp_Energy>  (123) 
270.228

>  <b_lp_Chiralities_Consistent>  (123) 
1

>  <s_lp_Variant>  (123) 
86:0-6

>  <s_i_glide_gridfile>  (123) 
pfpi4k_grid

>  <i_i_glide_lignum>  (123) 
26

>  <i_i_glide_rotatable_bonds>  (123) 
11

>  <r_i_docking_score>  (123) 
-4.96488

>  <r_i_glide_ligand_efficiency>  (123) 
-0.0919423

>  <r_i_glide_ligand_efficiency_sa>  (123) 
-0.34752

>  <r_i_glide_ligand_efficiency_ln>  (123) 
-0.995169

>  <r_i_glide_gscore>  (123) 
-4.96488

>  <r_i_glide_lipo>  (123) 
-0.337304

>  <r_i_glide_hbond>  (123) 
-0.107476

>  <r_i_glide_metal>  (123) 
-0

>  <r_i_glide_rewards>  (123) 
-1.07481

>  <r_i_glide_evdw>  (123) 
-29.4429

>  <r_i_glide_ecoul>  (123) 
-13.522

>  <r_i_glide_erotb>  (123) 
0.0698826

>  <r_i_glide_esite>  (123) 
-0.0147217

>  <r_i_glide_emodel>  (123) 
-59.6567

>  <r_i_glide_energy>  (123) 
-42.965

>  <r_i_glide_einternal>  (123) 
12.4324

>  <r_i_glide_intrahb_reward>  (123) 
-1

>  <i_i_glide_confnum>  (123) 
2

>  <i_i_glide_posenum>  (123) 
19

>  <r_i_glide_eff_state_penalty>  (123) 
0

>  <ligand_id>  (123) 
86

>  <original_smiles>  (123) 
CC(O)C12OC3C4OC4(C)C4(O)C(=O)C4OC(O)C(=O)C3C1(CO)C(O)C1(O)C(O)C3(C)CCC4C(C)(O)CC5(O)OCC5(C)OC4(C3)C([S+]1[O-])C2(C)C

>  <smiles>  (123) 
[H]OC1([H])OC2([H])C(=O)C2(O[H])C2(C([H])([H])[H])OC2([H])C2([H])OC3(C([H])(O[H])C([H])([H])[H])C(C([H])([H])O[H])(C([H])(O[H])C4(O[H])S(=O)C([H])(C56OC7(C([H])([H])[H])C([H])([H])OC7(O[H])C([H])([H])C(O[H])(C([H])([H])[H])C5([H])C([H])([H])C([H])([H])C(C([H])([H])[H])(C6([H])[H])C4([H])O[H])C3(C([H])([H])[H])C([H])([H])[H])C2([H])C1=O

$$$$
86:5:1
     RDKit          3D

106114  0  0  1  0  0  0  0  0999 V2000
    5.5765   -0.2964    3.6060 C   0  0  0  0  0  0  0  0  0  0  0  0
    4.0714   -0.0186    3.7396 C   0  0  2  0  0  0  0  0  0  0  0  0
    4.1150    1.2795    4.2234 O   0  0  0  0  0  0  0  0  0  0  0  0
    3.1178   -1.0271    4.5392 C   0  0  2  0  0  0  0  0  0  0  0  0
    1.8825   -0.3303    4.2426 O   0  0  0  0  0  0  0  0  0  0  0  0
    0.9939   -0.2324    5.3428 C   0  0  2  0  0  0  0  0  0  0  0  0
   -0.2128    0.7168    5.1605 C   0  0  2  0  0  0  0  0  0  0  0  0
   -1.3444    0.3505    4.3634 O   0  0  0  0  0  0  0  0  0  0  0  0
   -0.5694    1.4620    3.8903 C   0  0  2  0  0  0  0  0  0  0  0  0
    0.0362    1.1912    2.5363 C   0  0  0  0  0  0  0  0  0  0  0  0
   -1.0480    2.9251    4.1077 C   0  0  1  0  0  0  0  0  0  0  0  0
   -1.5614    3.6145    2.9807 O   0  0  0  0  0  0  0  0  0  0  0  0
   -1.6470    3.4836    5.3659 C   0  0  0  0  0  0  0  0  0  0  0  0
   -2.5942    3.5250    6.1570 O   0  0  0  0  0  0  0  0  0  0  0  0
   -0.2485    3.8855    4.9968 C   0  0  1  0  0  0  0  0  0  0  0  0
    0.6491    3.3060    5.9505 O   0  0  0  0  0  0  0  0  0  0  0  0
    1.8424    2.7429    5.4532 C   0  0  1  0  0  0  0  0  0  0  0  0
    2.7929    3.7738    5.2276 O   0  0  0  0  0  0  0  0  0  0  0  0
    2.2923    1.7279    6.5429 C   0  0  0  0  0  0  0  0  0  0  0  0
    2.8285    2.1990    7.5399 O   0  0  0  0  0  0  0  0  0  0  0  0
    1.9993    0.1809    6.4336 C   0  0  2  0  0  0  0  0  0  0  0  0
    3.1686   -0.8762    6.2022 C   0  0  2  0  0  0  0  0  0  0  0  0
    4.5249   -0.3226    6.8187 C   0  0  0  0  0  0  0  0  0  0  0  0
    4.5085   -0.0432    8.2120 O   0  0  0  0  0  0  0  0  0  0  0  0
    2.8176   -2.1501    7.1541 C   0  0  1  0  0  0  0  0  0  0  0  0
    1.4606   -2.2631    7.5616 O   0  0  0  0  0  0  0  0  0  0  0  0
    3.6336   -3.5341    7.1607 C   0  0  1  0  0  0  0  0  0  0  0  0
    4.5166   -3.4188    8.2640 O   0  0  0  0  0  0  0  0  0  0  0  0
    2.8834   -4.9435    7.4147 C   0  0  1  0  0  0  0  0  0  0  0  0
    2.0436   -4.8352    8.5558 O   0  0  0  0  0  0  0  0  0  0  0  0
    2.1211   -5.5351    6.1670 C   0  0  2  0  0  0  0  0  0  0  0  0
    1.0426   -4.4606    5.8393 C   0  0  0  0  0  0  0  0  0  0  0  0
    1.2180   -6.7697    6.0698 C   0  0  0  0  0  0  0  0  0  0  0  0
    0.9171   -6.9949    4.5180 C   0  0  0  0  0  0  0  0  0  0  0  0
    1.6882   -6.0626    3.4179 C   0  0  2  0  0  0  0  0  0  0  0  0
    1.5830   -6.7162    1.9915 C   0  0  1  0  0  0  0  0  0  0  0  0
    1.9422   -8.2232    1.9385 C   0  0  0  0  0  0  0  0  0  0  0  0
    0.2070   -6.6617    1.6414 O   0  0  0  0  0  0  0  0  0  0  0  0
    2.2590   -5.9041    0.8608 C   0  0  0  0  0  0  0  0  0  0  0  0
    3.7976   -5.9567    0.7239 C   0  0  2  0  0  0  0  0  0  0  0  0
    4.0923   -4.9865   -0.2502 O   0  0  0  0  0  0  0  0  0  0  0  0
    4.2112   -7.2880    0.3016 O   0  0  0  0  0  0  0  0  0  0  0  0
    5.1633   -7.3603    1.3656 C   0  0  0  0  0  0  0  0  0  0  0  0
    4.7718   -5.9768    1.9069 C   0  0  1  0  0  0  0  0  0  0  0  0
    5.9606   -5.0040    1.9243 C   0  0  0  0  0  0  0  0  0  0  0  0
    4.1840   -6.1984    3.2001 O   0  0  0  0  0  0  0  0  0  0  0  0
    3.1231   -5.4379    3.8356 C   0  0  2  0  0  0  0  0  0  0  0  0
    3.2438   -6.0548    5.2023 C   0  0  0  0  0  0  0  0  0  0  0  0
    3.5381   -3.8535    4.0900 C   0  0  2  0  0  0  0  0  0  0  0  0
    4.6282   -3.6569    5.5856 S   0  0  0  0  0  0  0  0  0  0  0  0
    5.8097   -2.7255    5.4101 O   0  0  0  0  0  0  0  0  0  0  0  0
    2.8899   -2.4366    3.6292 C   0  0  0  0  0  0  0  0  0  0  0  0
    1.3920   -2.6096    3.1757 C   0  0  0  0  0  0  0  0  0  0  0  0
    3.4685   -2.2653    2.1720 C   0  0  0  0  0  0  0  0  0  0  0  0
    5.8574   -1.3351    3.5275 H   0  0  0  0  0  0  0  0  0  0  0  0
    6.1562    0.1108    4.4336 H   0  0  0  0  0  0  0  0  0  0  0  0
    5.9624    0.1808    2.7040 H   0  0  0  0  0  0  0  0  0  0  0  0
    3.6396    0.1601    2.7625 H   0  0  0  0  0  0  0  0  0  0  0  0
    4.4003    1.8881    3.5205 H   0  0  0  0  0  0  0  0  0  0  0  0
    0.5681   -1.2126    5.5668 H   0  0  0  0  0  0  0  0  0  0  0  0
   -0.5504    1.1051    6.1278 H   0  0  0  0  0  0  0  0  0  0  0  0
    0.9076    1.8129    2.3795 H   0  0  0  0  0  0  0  0  0  0  0  0
   -0.6901    1.3945    1.7556 H   0  0  0  0  0  0  0  0  0  0  0  0
    0.3159    0.1540    2.4495 H   0  0  0  0  0  0  0  0  0  0  0  0
   -0.8717    3.7098    2.3233 H   0  0  0  0  0  0  0  0  0  0  0  0
   -0.0045    4.8980    4.6293 H   0  0  0  0  0  0  0  0  0  0  0  0
    1.6903    2.2192    4.4945 H   0  0  0  0  0  0  0  0  0  0  0  0
    2.5577    4.1922    4.3921 H   0  0  0  0  0  0  0  0  0  0  0  0
    1.5204    0.0243    7.3963 H   0  0  0  0  0  0  0  0  0  0  0  0
    5.3446   -1.0135    6.7135 H   0  0  0  0  0  0  0  0  0  0  0  0
    4.8762    0.6115    6.3945 H   0  0  0  0  0  0  0  0  0  0  0  0
    4.4282   -0.8569    8.6999 H   0  0  0  0  0  0  0  0  0  0  0  0
    3.0293   -1.7838    8.1537 H   0  0  0  0  0  0  0  0  0  0  0  0
    1.4559   -2.9128    8.2584 H   0  0  0  0  0  0  0  0  0  0  0  0
    4.5534   -4.2446    8.7347 H   0  0  0  0  0  0  0  0  0  0  0  0
    3.6348   -5.6881    7.6875 H   0  0  0  0  0  0  0  0  0  0  0  0
    2.5992   -4.6894    9.3138 H   0  0  0  0  0  0  0  0  0  0  0  0
    0.2808   -4.6861    5.0991 H   0  0  0  0  0  0  0  0  0  0  0  0
    1.4940   -3.5275    5.5627 H   0  0  0  0  0  0  0  0  0  0  0  0
    0.4130   -4.2888    6.7176 H   0  0  0  0  0  0  0  0  0  0  0  0
    1.6923   -7.6474    6.5074 H   0  0  0  0  0  0  0  0  0  0  0  0
    0.2901   -6.6524    6.6317 H   0  0  0  0  0  0  0  0  0  0  0  0
    1.0818   -8.0567    4.3348 H   0  0  0  0  0  0  0  0  0  0  0  0
   -0.1529   -6.8547    4.3682 H   0  0  0  0  0  0  0  0  0  0  0  0
    1.0330   -5.2174    3.3109 H   0  0  0  0  0  0  0  0  0  0  0  0
    2.8504   -8.4404    2.4966 H   0  0  0  0  0  0  0  0  0  0  0  0
    2.0838   -8.5669    0.9142 H   0  0  0  0  0  0  0  0  0  0  0  0
    1.1568   -8.8557    2.3521 H   0  0  0  0  0  0  0  0  0  0  0  0
   -0.0022   -7.4979    1.2403 H   0  0  0  0  0  0  0  0  0  0  0  0
    1.8204   -6.2196   -0.0960 H   0  0  0  0  0  0  0  0  0  0  0  0
    1.9454   -4.8634    0.9653 H   0  0  0  0  0  0  0  0  0  0  0  0
    3.7804   -5.3354   -1.0762 H   0  0  0  0  0  0  0  0  0  0  0  0
    4.9805   -8.1754    2.0615 H   0  0  0  0  0  0  0  0  0  0  0  0
    6.1744   -7.4203    0.9840 H   0  0  0  0  0  0  0  0  0  0  0  0
    6.6345   -5.1851    1.0909 H   0  0  0  0  0  0  0  0  0  0  0  0
    6.5458   -5.0995    2.8363 H   0  0  0  0  0  0  0  0  0  0  0  0
    5.6644   -3.9724    1.8057 H   0  0  0  0  0  0  0  0  0  0  0  0
    4.2389   -6.0775    5.6192 H   0  0  0  0  0  0  0  0  0  0  0  0
    3.2458   -7.1376    5.0800 H   0  0  0  0  0  0  0  0  0  0  0  0
    4.4143   -3.8524    3.4704 H   0  0  0  0  0  0  0  0  0  0  0  0
    1.3014   -3.4398    2.4823 H   0  0  0  0  0  0  0  0  0  0  0  0
    1.0524   -1.7736    2.5594 H   0  0  0  0  0  0  0  0  0  0  0  0
    0.6219   -2.7197    3.9422 H   0  0  0  0  0  0  0  0  0  0  0  0
    3.3502   -3.1845    1.5942 H   0  0  0  0  0  0  0  0  0  0  0  0
    4.5328   -2.0752    2.1333 H   0  0  0  0  0  0  0  0  0  0  0  0
    2.9812   -1.4736    1.5978 H   0  0  0  0  0  0  0  0  0  0  0  0
  1  2  1  0
  1 55  1  0
  1 56  1  0
  1 57  1  0
  2  3  1  0
  2  4  1  0
  2 58  1  6
  3 59  1  0
  4 22  1  0
  4 52  1  0
  4  5  1  6
  5  6  1  0
  6 21  1  0
  6  7  1  0
  6 60  1  1
  7  9  1  0
  7  8  1  0
  7 61  1  1
  8  9  1  0
  9 10  1  6
  9 11  1  0
 10 62  1  0
 10 63  1  0
 10 64  1  0
 11 15  1  0
 11 12  1  6
 11 13  1  0
 12 65  1  0
 13 14  2  0
 13 15  1  0
 15 16  1  0
 15 66  1  6
 16 17  1  0
 17 18  1  0
 17 19  1  0
 17 67  1  6
 18 68  1  0
 19 20  2  0
 19 21  1  0
 21 22  1  0
 21 69  1  1
 22 23  1  6
 22 25  1  0
 23 24  1  0
 23 70  1  0
 23 71  1  0
 24 72  1  0
 25 26  1  0
 25 27  1  0
 25 73  1  1
 26 74  1  0
 50 27  1  1
 27 28  1  1
 27 29  1  0
 28 75  1  0
 29 30  1  0
 29 31  1  0
 29 76  1  1
 30 77  1  0
 31 48  1  0
 31 32  1  6
 31 33  1  0
 32 78  1  0
 32 79  1  0
 32 80  1  0
 33 34  1  0
 33 81  1  0
 33 82  1  0
 34 35  1  0
 34 83  1  0
 34 84  1  0
 35 47  1  0
 35 36  1  0
 35 85  1  6
 36 37  1  0
 36 38  1  6
 36 39  1  0
 37 86  1  0
 37 87  1  0
 37 88  1  0
 38 89  1  0
 39 40  1  0
 39 90  1  0
 39 91  1  0
 40 44  1  0
 40 41  1  6
 40 42  1  0
 41 92  1  0
 42 43  1  0
 43 44  1  0
 43 93  1  0
 43 94  1  0
 44 45  1  1
 44 46  1  0
 45 95  1  0
 45 96  1  0
 45 97  1  0
 47 46  1  6
 47 48  1  0
 47 49  1  0
 48 98  1  0
 48 99  1  0
 49 50  1  0
 49 52  1  0
 49100  1  6
 50 51  2  0
 52 53  1  0
 52 54  1  0
 53101  1  0
 53102  1  0
 53103  1  0
 54104  1  0
 54105  1  0
 54106  1  0
M  END
>  <i_m_ct_stereo_status>  (124) 
1

>  <s_m_source_file>  (124) 
/var/tmp/pbs.5075288.sched01/tmpd529dnjr/198klec4xt1.sdf

>  <i_m_source_file_index>  (124) 
26

>  <i_lp_mmshare_version>  (124) 
48012

>  <i_f3d_flags>  (124) 
0

>  <s_epik_input>  (124) 
Tz1DKFtDQEBIXTEyKVtDQEhdKFtPSF0pT1tDSF0oQzM9TylDMyhbT0hdKVtDQEBdKE80KShbQ0gzXSlbQ0hdNFtDQEhdMU9bQ0BdKFtDQEhdKFtDSDNdKVtPSF0pKEMoW0NIM10pKFtDSDNdKVtDQEhdNVtTK102W08tXSlbQ0BdMihbQ0gyXVtPSF0pW0NAQEhdKFtPSF0pW0NAQF02KFtPSF0pW0NAQEhdKFtPSF0pW0NAQF0oW0NIM10pKFtDSDJdNylbQ0gyXVtDSDJdW0NAQEhdKFtDQEBdNTc4KVtDQEBdKFtDSDNdKShbT0hdKVtDSDJdW0NAQF05KFtPSF0pW0NAQF0oTzgpKFtDSDJdTzkpW0NIM10=

>  <s_epik_cmdline>  (124) 
J2VwaWtfcHl0aG9uJywgJy1waHQnLCAnMi4wJywgJy1waCcsICc3LjAnLCAnLXRuJywgJzgnLCAnLW1hJywgJzIwMCcsICctaW1hZScsICc8aW5maWxlLm1hZT4nLCAnLW9tYWUnLCAnPG91dGZpbGUubWFlPic=

>  <r_lp_tautomer_probability>  (124) 
1

>  <r_epik_Ionization_Penalty>  (124) 
4.44335e-05

>  <r_epik_Ionization_Penalty_Charging>  (124) 
0

>  <r_epik_Ionization_Penalty_Neutral>  (124) 
4.44335e-05

>  <r_epik_State_Penalty>  (124) 
-0

>  <r_epik_Charging_Adjusted_Penalty>  (124) 
0

>  <i_epik_Tot_Q>  (124) 
0

>  <i_epik_Tot_abs_Q>  (124) 
2

>  <s_epik_Chemistry_Notes>  (124) 
This compound contains an acetal/aminal-like group ( X-CH(R)-Y where X, Y are N, S, or O) that may be acid/base labile, releasing an aldehyde.

>  <s_lp_Force_Field>  (124) 
OPLS3e

>  <r_lp_Energy>  (124) 
270.228

>  <b_lp_Chiralities_Consistent>  (124) 
1

>  <s_lp_Variant>  (124) 
86:0-6

>  <s_i_glide_gridfile>  (124) 
pfpi4k_grid

>  <i_i_glide_lignum>  (124) 
26

>  <i_i_glide_rotatable_bonds>  (124) 
11

>  <r_i_docking_score>  (124) 
-4.46647

>  <r_i_glide_ligand_efficiency>  (124) 
-0.0827123

>  <r_i_glide_ligand_efficiency_sa>  (124) 
-0.312633

>  <r_i_glide_ligand_efficiency_ln>  (124) 
-0.895266

>  <r_i_glide_gscore>  (124) 
-4.46647

>  <r_i_glide_lipo>  (124) 
-0.340676

>  <r_i_glide_hbond>  (124) 
-0.106055

>  <r_i_glide_metal>  (124) 
-0

>  <r_i_glide_rewards>  (124) 
-0.57195

>  <r_i_glide_evdw>  (124) 
-29.5089

>  <r_i_glide_ecoul>  (124) 
-13.5159

>  <r_i_glide_erotb>  (124) 
0.0698826

>  <r_i_glide_esite>  (124) 
-0.0148349

>  <r_i_glide_emodel>  (124) 
-53.1453

>  <r_i_glide_energy>  (124) 
-43.0248

>  <r_i_glide_einternal>  (124) 
12.6735

>  <r_i_glide_intrahb_reward>  (124) 
-0.5

>  <i_i_glide_confnum>  (124) 
4

>  <i_i_glide_posenum>  (124) 
23

>  <r_i_glide_eff_state_penalty>  (124) 
0

>  <ligand_id>  (124) 
86

>  <original_smiles>  (124) 
CC(O)C12OC3C4OC4(C)C4(O)C(=O)C4OC(O)C(=O)C3C1(CO)C(O)C1(O)C(O)C3(C)CCC4C(C)(O)CC5(O)OCC5(C)OC4(C3)C([S+]1[O-])C2(C)C

>  <smiles>  (124) 
[H]OC1([H])OC2([H])C(=O)C2(O[H])C2(C([H])([H])[H])OC2([H])C2([H])OC3(C([H])(O[H])C([H])([H])[H])C(C([H])([H])O[H])(C([H])(O[H])C4(O[H])S(=O)C([H])(C56OC7(C([H])([H])[H])C([H])([H])OC7(O[H])C([H])([H])C(O[H])(C([H])([H])[H])C5([H])C([H])([H])C([H])([H])C(C([H])([H])[H])(C6([H])[H])C4([H])O[H])C3(C([H])([H])[H])C([H])([H])[H])C2([H])C1=O

$$$$
86:5:2
     RDKit          3D

106114  0  0  1  0  0  0  0  0999 V2000
    3.5939    1.6308    4.5062 C   0  0  0  0  0  0  0  0  0  0  0  0
    3.5967    0.1449    4.0004 C   0  0  2  0  0  0  0  0  0  0  0  0
    3.2808    0.3824    2.6270 O   0  0  0  0  0  0  0  0  0  0  0  0
    2.6768   -1.0106    4.6985 C   0  0  2  0  0  0  0  0  0  0  0  0
    1.3680   -0.4042    4.5288 O   0  0  0  0  0  0  0  0  0  0  0  0
    0.5353   -0.4755    5.6791 C   0  0  2  0  0  0  0  0  0  0  0  0
   -0.7792    0.3181    5.6176 C   0  0  2  0  0  0  0  0  0  0  0  0
   -1.8979   -0.1363    4.8604 O   0  0  0  0  0  0  0  0  0  0  0  0
   -1.2809    1.0743    4.3768 C   0  0  2  0  0  0  0  0  0  0  0  0
   -0.6943    0.8904    2.9768 C   0  0  0  0  0  0  0  0  0  0  0  0
   -1.9129    2.4491    4.6454 C   0  0  1  0  0  0  0  0  0  0  0  0
   -2.5562    3.0311    3.5334 O   0  0  0  0  0  0  0  0  0  0  0  0
   -2.4815    2.9569    5.9462 C   0  0  0  0  0  0  0  0  0  0  0  0
   -3.3438    2.9359    6.7872 O   0  0  0  0  0  0  0  0  0  0  0  0
   -1.1518    3.4846    5.4990 C   0  0  1  0  0  0  0  0  0  0  0  0
   -0.1498    2.9768    6.3887 O   0  0  0  0  0  0  0  0  0  0  0  0
    1.0588    2.5593    5.8277 C   0  0  1  0  0  0  0  0  0  0  0  0
    1.9328    3.6304    5.5528 O   0  0  0  0  0  0  0  0  0  0  0  0
    1.6909    1.5652    6.8685 C   0  0  0  0  0  0  0  0  0  0  0  0
    2.2587    2.0229    7.8501 O   0  0  0  0  0  0  0  0  0  0  0  0
    1.5639   -0.0020    6.7277 C   0  0  2  0  0  0  0  0  0  0  0  0
    2.8299   -0.9109    6.3808 C   0  0  2  0  0  0  0  0  0  0  0  0
    4.1826   -0.2346    6.9526 C   0  0  0  0  0  0  0  0  0  0  0  0
    4.1747    0.0368    8.3563 O   0  0  0  0  0  0  0  0  0  0  0  0
    2.6949   -2.2406    7.3025 C   0  0  1  0  0  0  0  0  0  0  0  0
    1.3870   -2.5137    7.7820 O   0  0  0  0  0  0  0  0  0  0  0  0
    3.6707   -3.5081    7.1933 C   0  0  1  0  0  0  0  0  0  0  0  0
    4.6636   -3.3462    8.2060 O   0  0  0  0  0  0  0  0  0  0  0  0
    3.0976   -5.0065    7.4783 C   0  0  1  0  0  0  0  0  0  0  0  0
    2.3402   -5.0722    8.6748 O   0  0  0  0  0  0  0  0  0  0  0  0
    2.2989   -5.6467    6.2786 C   0  0  2  0  0  0  0  0  0  0  0  0
    1.0925   -4.6916    6.0290 C   0  0  0  0  0  0  0  0  0  0  0  0
    1.5302   -6.9799    6.1922 C   0  0  0  0  0  0  0  0  0  0  0  0
    1.1588   -7.1854    4.6479 C   0  0  0  0  0  0  0  0  0  0  0  0
    1.7881   -6.1670    3.5286 C   0  0  2  0  0  0  0  0  0  0  0  0
    1.6764   -6.7872    2.0939 C   0  0  1  0  0  0  0  0  0  0  0  0
    2.1886   -8.2407    1.9698 C   0  0  0  0  0  0  0  0  0  0  0  0
    0.2827   -6.8799    1.8263 O   0  0  0  0  0  0  0  0  0  0  0  0
    2.1865   -5.8701    0.9508 C   0  0  0  0  0  0  0  0  0  0  0  0
    3.6887   -5.7569    0.6961 C   0  0  2  0  0  0  0  0  0  0  0  0
    3.8439   -4.7670   -0.2963 O   0  0  0  0  0  0  0  0  0  0  0  0
    4.2151   -7.0201    0.2313 O   0  0  0  0  0  0  0  0  0  0  0  0
    5.2449   -7.0114    1.2555 C   0  0  0  0  0  0  0  0  0  0  0  0
    4.7346   -5.6912    1.8401 C   0  0  1  0  0  0  0  0  0  0  0  0
    5.8230   -4.5991    1.8326 C   0  0  0  0  0  0  0  0  0  0  0  0
    4.2809   -6.0086    3.1770 O   0  0  0  0  0  0  0  0  0  0  0  0
    3.1739   -5.3988    3.8852 C   0  0  2  0  0  0  0  0  0  0  0  0
    3.4235   -6.0270    5.2437 C   0  0  0  0  0  0  0  0  0  0  0  0
    3.4081   -3.7882    4.1789 C   0  0  2  0  0  0  0  0  0  0  0  0
    4.6157   -3.4862    5.5674 S   0  0  0  0  0  0  0  0  0  0  0  0
    5.4724   -2.2892    5.2570 O   0  0  0  0  0  0  0  0  0  0  0  0
    2.5701   -2.4463    3.7760 C   0  0  0  0  0  0  0  0  0  0  0  0
    1.0903   -2.7716    3.3918 C   0  0  0  0  0  0  0  0  0  0  0  0
    3.0982   -2.2152    2.3203 C   0  0  0  0  0  0  0  0  0  0  0  0
    3.4579    1.7210    5.5187 H   0  0  0  0  0  0  0  0  0  0  0  0
    2.8641    2.2927    3.9826 H   0  0  0  0  0  0  0  0  0  0  0  0
    4.6142    2.0247    4.3814 H   0  0  0  0  0  0  0  0  0  0  0  0
    4.6337   -0.2289    4.0779 H   0  0  0  0  0  0  0  0  0  0  0  0
    2.3607    0.5961    2.5813 H   0  0  0  0  0  0  0  0  0  0  0  0
    0.2288   -1.5084    5.8607 H   0  0  0  0  0  0  0  0  0  0  0  0
   -1.0964    0.6633    6.5939 H   0  0  0  0  0  0  0  0  0  0  0  0
    0.0911    1.6261    2.7887 H   0  0  0  0  0  0  0  0  0  0  0  0
   -1.4707    1.0293    2.2195 H   0  0  0  0  0  0  0  0  0  0  0  0
   -0.2939   -0.1038    2.8292 H   0  0  0  0  0  0  0  0  0  0  0  0
   -2.9422    2.3175    3.0396 H   0  0  0  0  0  0  0  0  0  0  0  0
   -1.0632    4.5335    5.2159 H   0  0  0  0  0  0  0  0  0  0  0  0
    0.9320    2.0795    4.8861 H   0  0  0  0  0  0  0  0  0  0  0  0
    1.6559    4.0581    4.7648 H   0  0  0  0  0  0  0  0  0  0  0  0
    1.1659   -0.2435    7.7256 H   0  0  0  0  0  0  0  0  0  0  0  0
    5.0513   -0.8784    6.8435 H   0  0  0  0  0  0  0  0  0  0  0  0
    4.4747    0.6945    6.5131 H   0  0  0  0  0  0  0  0  0  0  0  0
    3.5408    0.7254    8.5142 H   0  0  0  0  0  0  0  0  0  0  0  0
    2.9496   -1.9005    8.2982 H   0  0  0  0  0  0  0  0  0  0  0  0
    0.9338   -3.0163    7.1263 H   0  0  0  0  0  0  0  0  0  0  0  0
    4.4396   -3.8649    8.9593 H   0  0  0  0  0  0  0  0  0  0  0  0
    3.9393   -5.6755    7.6950 H   0  0  0  0  0  0  0  0  0  0  0  0
    2.9041   -4.9034    9.4125 H   0  0  0  0  0  0  0  0  0  0  0  0
    0.3230   -4.9740    5.3215 H   0  0  0  0  0  0  0  0  0  0  0  0
    1.4341   -3.7211    5.7472 H   0  0  0  0  0  0  0  0  0  0  0  0
    0.4953   -4.6097    6.9361 H   0  0  0  0  0  0  0  0  0  0  0  0
    2.1315   -7.8179    6.5515 H   0  0  0  0  0  0  0  0  0  0  0  0
    0.6411   -7.0011    6.8299 H   0  0  0  0  0  0  0  0  0  0  0  0
    1.4323   -8.2170    4.4325 H   0  0  0  0  0  0  0  0  0  0  0  0
    0.0754   -7.1781    4.5516 H   0  0  0  0  0  0  0  0  0  0  0  0
    1.0642   -5.3736    3.4900 H   0  0  0  0  0  0  0  0  0  0  0  0
    3.1425   -8.3743    2.4741 H   0  0  0  0  0  0  0  0  0  0  0  0
    2.3129   -8.5403    0.9303 H   0  0  0  0  0  0  0  0  0  0  0  0
    1.5078   -8.9737    2.4018 H   0  0  0  0  0  0  0  0  0  0  0  0
   -0.0123   -7.7272    2.1304 H   0  0  0  0  0  0  0  0  0  0  0  0
    1.7326   -6.2020    0.0178 H   0  0  0  0  0  0  0  0  0  0  0  0
    1.7957   -4.8743    1.1071 H   0  0  0  0  0  0  0  0  0  0  0  0
    3.5939   -5.1650   -1.1245 H   0  0  0  0  0  0  0  0  0  0  0  0
    5.1797   -7.8818    1.9118 H   0  0  0  0  0  0  0  0  0  0  0  0
    6.2471   -6.9573    0.8135 H   0  0  0  0  0  0  0  0  0  0  0  0
    6.4677   -4.6853    0.9523 H   0  0  0  0  0  0  0  0  0  0  0  0
    6.4692   -4.6591    2.7098 H   0  0  0  0  0  0  0  0  0  0  0  0
    5.4173   -3.5930    1.7716 H   0  0  0  0  0  0  0  0  0  0  0  0
    4.4401   -5.9437    5.6282 H   0  0  0  0  0  0  0  0  0  0  0  0
    3.5342   -7.1070    5.0944 H   0  0  0  0  0  0  0  0  0  0  0  0
    4.2687   -3.6817    3.5415 H   0  0  0  0  0  0  0  0  0  0  0  0
    1.0342   -3.5662    2.6642 H   0  0  0  0  0  0  0  0  0  0  0  0
    0.6437   -1.9490    2.8483 H   0  0  0  0  0  0  0  0  0  0  0  0
    0.3959   -2.9805    4.1928 H   0  0  0  0  0  0  0  0  0  0  0  0
    3.1100   -3.1241    1.7329 H   0  0  0  0  0  0  0  0  0  0  0  0
    4.1241   -1.8396    2.3008 H   0  0  0  0  0  0  0  0  0  0  0  0
    2.4805   -1.5287    1.7414 H   0  0  0  0  0  0  0  0  0  0  0  0
  1  2  1  0
  1 55  1  0
  1 56  1  0
  1 57  1  0
  2  3  1  0
  2  4  1  0
  2 58  1  6
  3 59  1  0
  4 22  1  0
  4 52  1  0
  4  5  1  1
  5  6  1  0
  6 21  1  0
  6  7  1  0
  6 60  1  1
  7  9  1  0
  7  8  1  0
  7 61  1  1
  8  9  1  0
  9 10  1  6
  9 11  1  0
 10 62  1  0
 10 63  1  0
 10 64  1  0
 11 15  1  0
 11 12  1  6
 11 13  1  0
 12 65  1  0
 13 14  2  0
 13 15  1  0
 15 16  1  0
 15 66  1  6
 16 17  1  0
 17 18  1  0
 17 19  1  0
 17 67  1  6
 18 68  1  0
 19 20  2  0
 19 21  1  0
 21 22  1  0
 21 69  1  1
 22 23  1  6
 22 25  1  0
 23 24  1  0
 23 70  1  0
 23 71  1  0
 24 72  1  0
 25 26  1  0
 25 27  1  0
 25 73  1  1
 26 74  1  0
 50 27  1  1
 27 28  1  1
 27 29  1  0
 28 75  1  0
 29 30  1  0
 29 31  1  0
 29 76  1  1
 30 77  1  0
 31 48  1  0
 31 32  1  6
 31 33  1  0
 32 78  1  0
 32 79  1  0
 32 80  1  0
 33 34  1  0
 33 81  1  0
 33 82  1  0
 34 35  1  0
 34 83  1  0
 34 84  1  0
 35 47  1  0
 35 36  1  0
 35 85  1  6
 36 37  1  0
 36 38  1  6
 36 39  1  0
 37 86  1  0
 37 87  1  0
 37 88  1  0
 38 89  1  0
 39 40  1  0
 39 90  1  0
 39 91  1  0
 40 44  1  0
 40 41  1  6
 40 42  1  0
 41 92  1  0
 42 43  1  0
 43 44  1  0
 43 93  1  0
 43 94  1  0
 44 45  1  1
 44 46  1  0
 45 95  1  0
 45 96  1  0
 45 97  1  0
 47 46  1  6
 47 48  1  0
 47 49  1  0
 48 98  1  0
 48 99  1  0
 49 50  1  0
 49 52  1  0
 49100  1  6
 50 51  2  0
 52 53  1  0
 52 54  1  0
 53101  1  0
 53102  1  0
 53103  1  0
 54104  1  0
 54105  1  0
 54106  1  0
M  END
>  <i_m_ct_stereo_status>  (125) 
1

>  <s_m_source_file>  (125) 
/var/tmp/pbs.5075288.sched01/tmpd529dnjr/198klec4xt1.sdf

>  <i_m_source_file_index>  (125) 
26

>  <i_lp_mmshare_version>  (125) 
48012

>  <i_f3d_flags>  (125) 
0

>  <s_epik_input>  (125) 
Tz1DKFtDQEBIXTEyKVtDQEhdKFtPSF0pT1tDSF0oQzM9TylDMyhbT0hdKVtDQEBdKE80KShbQ0gzXSlbQ0hdNFtDQEhdMU9bQ0BdKFtDQEhdKFtDSDNdKVtPSF0pKEMoW0NIM10pKFtDSDNdKVtDQEhdNVtTK102W08tXSlbQ0BdMihbQ0gyXVtPSF0pW0NAQEhdKFtPSF0pW0NAQF02KFtPSF0pW0NAQEhdKFtPSF0pW0NAQF0oW0NIM10pKFtDSDJdNylbQ0gyXVtDSDJdW0NAQEhdKFtDQEBdNTc4KVtDQEBdKFtDSDNdKShbT0hdKVtDSDJdW0NAQF05KFtPSF0pW0NAQF0oTzgpKFtDSDJdTzkpW0NIM10=

>  <s_epik_cmdline>  (125) 
J2VwaWtfcHl0aG9uJywgJy1waHQnLCAnMi4wJywgJy1waCcsICc3LjAnLCAnLXRuJywgJzgnLCAnLW1hJywgJzIwMCcsICctaW1hZScsICc8aW5maWxlLm1hZT4nLCAnLW9tYWUnLCAnPG91dGZpbGUubWFlPic=

>  <r_lp_tautomer_probability>  (125) 
1

>  <r_epik_Ionization_Penalty>  (125) 
4.44335e-05

>  <r_epik_Ionization_Penalty_Charging>  (125) 
0

>  <r_epik_Ionization_Penalty_Neutral>  (125) 
4.44335e-05

>  <r_epik_State_Penalty>  (125) 
-0

>  <r_epik_Charging_Adjusted_Penalty>  (125) 
0

>  <i_epik_Tot_Q>  (125) 
0

>  <i_epik_Tot_abs_Q>  (125) 
2

>  <s_epik_Chemistry_Notes>  (125) 
This compound contains an acetal/aminal-like group ( X-CH(R)-Y where X, Y are N, S, or O) that may be acid/base labile, releasing an aldehyde.

>  <s_lp_Force_Field>  (125) 
OPLS3e

>  <r_lp_Energy>  (125) 
270.228

>  <b_lp_Chiralities_Consistent>  (125) 
1

>  <s_lp_Variant>  (125) 
86:0-6

>  <s_i_glide_gridfile>  (125) 
pfpi4k_grid

>  <i_i_glide_lignum>  (125) 
26

>  <i_i_glide_rotatable_bonds>  (125) 
11

>  <r_i_docking_score>  (125) 
-3.61579

>  <r_i_glide_ligand_efficiency>  (125) 
-0.0669591

>  <r_i_glide_ligand_efficiency_sa>  (125) 
-0.253089

>  <r_i_glide_ligand_efficiency_ln>  (125) 
-0.724755

>  <r_i_glide_gscore>  (125) 
-3.61579

>  <r_i_glide_lipo>  (125) 
-0.227017

>  <r_i_glide_hbond>  (125) 
0

>  <r_i_glide_metal>  (125) 
-0

>  <r_i_glide_rewards>  (125) 
-0.63542

>  <r_i_glide_evdw>  (125) 
-31.5937

>  <r_i_glide_ecoul>  (125) 
-8.42569

>  <r_i_glide_erotb>  (125) 
0.0698826

>  <r_i_glide_esite>  (125) 
-5.90727e-05

>  <r_i_glide_emodel>  (125) 
-44.9842

>  <r_i_glide_energy>  (125) 
-40.0194

>  <r_i_glide_einternal>  (125) 
14.0929

>  <r_i_glide_intrahb_reward>  (125) 
-0.5

>  <i_i_glide_confnum>  (125) 
4

>  <i_i_glide_posenum>  (125) 
1

>  <r_i_glide_eff_state_penalty>  (125) 
0

>  <ligand_id>  (125) 
86

>  <original_smiles>  (125) 
CC(O)C12OC3C4OC4(C)C4(O)C(=O)C4OC(O)C(=O)C3C1(CO)C(O)C1(O)C(O)C3(C)CCC4C(C)(O)CC5(O)OCC5(C)OC4(C3)C([S+]1[O-])C2(C)C

>  <smiles>  (125) 
[H]OC1([H])OC2([H])C(=O)C2(O[H])C2(C([H])([H])[H])OC2([H])C2([H])OC3(C([H])(O[H])C([H])([H])[H])C(C([H])([H])O[H])(C([H])(O[H])C4(O[H])S(=O)C([H])(C56OC7(C([H])([H])[H])C([H])([H])OC7(O[H])C([H])([H])C(O[H])(C([H])([H])[H])C5([H])C([H])([H])C([H])([H])C(C([H])([H])[H])(C6([H])[H])C4([H])O[H])C3(C([H])([H])[H])C([H])([H])[H])C2([H])C1=O

$$$$
86:7:0
     RDKit          3D

106114  0  0  1  0  0  0  0  0999 V2000
    2.8767    1.1459    2.1875 C   0  0  0  0  0  0  0  0  0  0  0  0
    3.5204    0.4758    3.4298 C   0  0  2  0  0  0  0  0  0  0  0  0
    4.7510   -0.0481    2.9999 O   0  0  0  0  0  0  0  0  0  0  0  0
    2.6608   -0.4624    4.4019 C   0  0  2  0  0  0  0  0  0  0  0  0
    1.4100    0.2761    4.4269 O   0  0  0  0  0  0  0  0  0  0  0  0
    0.8586    0.4275    5.7314 C   0  0  2  0  0  0  0  0  0  0  0  0
   -0.2996    1.4116    5.8959 C   0  0  2  0  0  0  0  0  0  0  0  0
   -1.6847    1.0832    5.7573 O   0  0  0  0  0  0  0  0  0  0  0  0
   -1.1156    1.9170    4.7289 C   0  0  2  0  0  0  0  0  0  0  0  0
   -1.2545    1.2464    3.3779 C   0  0  0  0  0  0  0  0  0  0  0  0
   -0.9974    3.4291    4.7702 C   0  0  2  0  0  0  0  0  0  0  0  0
   -1.3647    4.0753    5.9857 O   0  0  0  0  0  0  0  0  0  0  0  0
   -0.8680    4.5042    3.7184 C   0  0  0  0  0  0  0  0  0  0  0  0
   -1.3987    5.3334    2.9956 O   0  0  0  0  0  0  0  0  0  0  0  0
    0.3451    3.7625    4.0949 C   0  0  1  0  0  0  0  0  0  0  0  0
    1.2420    4.1403    5.1421 O   0  0  0  0  0  0  0  0  0  0  0  0
    2.3544    3.2630    5.1240 C   0  0  1  0  0  0  0  0  0  0  0  0
    3.5591    3.9887    5.0008 O   0  0  0  0  0  0  0  0  0  0  0  0
    2.4057    2.4113    6.4224 C   0  0  0  0  0  0  0  0  0  0  0  0
    2.6444    2.9839    7.4898 O   0  0  0  0  0  0  0  0  0  0  0  0
    2.1203    0.8605    6.4562 C   0  0  2  0  0  0  0  0  0  0  0  0
    3.1855   -0.2254    5.9898 C   0  0  2  0  0  0  0  0  0  0  0  0
    4.5755    0.5247    6.2964 C   0  0  0  0  0  0  0  0  0  0  0  0
    5.8088   -0.1723    6.2852 O   0  0  0  0  0  0  0  0  0  0  0  0
    3.1703   -1.4132    7.1136 C   0  0  1  0  0  0  0  0  0  0  0  0
    2.0090   -1.4712    7.9287 O   0  0  0  0  0  0  0  0  0  0  0  0
    3.8172   -2.8714    6.9140 C   0  0  1  0  0  0  0  0  0  0  0  0
    4.9602   -2.8823    7.7525 O   0  0  0  0  0  0  0  0  0  0  0  0
    3.0403   -4.2406    7.3687 C   0  0  1  0  0  0  0  0  0  0  0  0
    2.4895   -4.1586    8.6663 O   0  0  0  0  0  0  0  0  0  0  0  0
    2.0030   -4.7516    6.3026 C   0  0  2  0  0  0  0  0  0  0  0  0
    1.0210   -3.5479    6.2552 C   0  0  0  0  0  0  0  0  0  0  0  0
    0.9291   -5.8639    6.2763 C   0  0  0  0  0  0  0  0  0  0  0  0
    0.3084   -5.8393    4.7928 C   0  0  0  0  0  0  0  0  0  0  0  0
    1.3047   -5.6834    3.5344 C   0  0  2  0  0  0  0  0  0  0  0  0
    1.3704   -7.1545    2.8895 C   0  0  1  0  0  0  0  0  0  0  0  0
    1.3943   -8.3731    3.8684 C   0  0  0  0  0  0  0  0  0  0  0  0
    0.1458   -7.2800    2.1789 O   0  0  0  0  0  0  0  0  0  0  0  0
    2.4632   -7.5000    1.8467 C   0  0  0  0  0  0  0  0  0  0  0  0
    3.0779   -6.3935    0.9922 C   0  0  2  0  0  0  0  0  0  0  0  0
    2.1377   -5.8316    0.0907 O   0  0  0  0  0  0  0  0  0  0  0  0
    4.1932   -7.0488    0.3352 O   0  0  0  0  0  0  0  0  0  0  0  0
    5.0950   -6.4640    1.2950 C   0  0  0  0  0  0  0  0  0  0  0  0
    4.0361   -5.4164    1.6632 C   0  0  1  0  0  0  0  0  0  0  0  0
    4.3030   -4.0963    0.9457 C   0  0  0  0  0  0  0  0  0  0  0  0
    3.8296   -5.4266    3.0999 O   0  0  0  0  0  0  0  0  0  0  0  0
    2.6832   -4.8654    3.8084 C   0  0  2  0  0  0  0  0  0  0  0  0
    2.9359   -5.3793    5.2012 C   0  0  0  0  0  0  0  0  0  0  0  0
    2.9905   -3.2564    3.9401 C   0  0  2  0  0  0  0  0  0  0  0  0
    4.3933   -3.0277    5.1357 S   0  0  0  0  0  0  0  0  0  0  0  0
    5.4110   -2.0277    4.6026 O   0  0  0  0  0  0  0  0  0  0  0  0
    2.1528   -1.8940    3.6678 C   0  0  0  0  0  0  0  0  0  0  0  0
    0.5984   -2.0954    3.7190 C   0  0  0  0  0  0  0  0  0  0  0  0
    2.2176   -1.7593    2.1141 C   0  0  0  0  0  0  0  0  0  0  0  0
    1.8036    1.3069    2.2624 H   0  0  0  0  0  0  0  0  0  0  0  0
    3.0693    0.6062    1.2582 H   0  0  0  0  0  0  0  0  0  0  0  0
    3.3196    2.1297    2.0519 H   0  0  0  0  0  0  0  0  0  0  0  0
    3.8301    1.3439    3.9835 H   0  0  0  0  0  0  0  0  0  0  0  0
    4.5855   -0.8260    2.4899 H   0  0  0  0  0  0  0  0  0  0  0  0
    0.5205   -0.5130    6.1543 H   0  0  0  0  0  0  0  0  0  0  0  0
   -0.1949    2.0119    6.7968 H   0  0  0  0  0  0  0  0  0  0  0  0
   -0.3730    1.4132    2.7684 H   0  0  0  0  0  0  0  0  0  0  0  0
   -2.1113    1.6602    2.8469 H   0  0  0  0  0  0  0  0  0  0  0  0
   -1.3982    0.1739    3.4976 H   0  0  0  0  0  0  0  0  0  0  0  0
   -0.7653    3.8098    6.6721 H   0  0  0  0  0  0  0  0  0  0  0  0
    0.7559    3.1277    3.3204 H   0  0  0  0  0  0  0  0  0  0  0  0
    2.3022    2.6067    4.2635 H   0  0  0  0  0  0  0  0  0  0  0  0
    3.5839    4.3820    4.1370 H   0  0  0  0  0  0  0  0  0  0  0  0
    1.9352    0.7569    7.5204 H   0  0  0  0  0  0  0  0  0  0  0  0
    4.7570    1.4305    5.7288 H   0  0  0  0  0  0  0  0  0  0  0  0
    4.5213    0.9073    7.3207 H   0  0  0  0  0  0  0  0  0  0  0  0
    5.7377   -0.9980    6.7502 H   0  0  0  0  0  0  0  0  0  0  0  0
    3.7807   -0.9956    7.9122 H   0  0  0  0  0  0  0  0  0  0  0  0
    1.3241   -1.8849    7.4233 H   0  0  0  0  0  0  0  0  0  0  0  0
    4.8343   -3.5493    8.4140 H   0  0  0  0  0  0  0  0  0  0  0  0
    3.7798   -5.0311    7.5054 H   0  0  0  0  0  0  0  0  0  0  0  0
    1.9282   -3.3961    8.7053 H   0  0  0  0  0  0  0  0  0  0  0  0
    0.0998   -3.6036    5.7056 H   0  0  0  0  0  0  0  0  0  0  0  0
    1.4975   -2.6542    5.9288 H   0  0  0  0  0  0  0  0  0  0  0  0
    0.6036   -3.3757    7.2487 H   0  0  0  0  0  0  0  0  0  0  0  0
    1.3290   -6.8485    6.5256 H   0  0  0  0  0  0  0  0  0  0  0  0
    0.1419   -5.7080    7.0149 H   0  0  0  0  0  0  0  0  0  0  0  0
   -0.3520   -6.6930    4.6955 H   0  0  0  0  0  0  0  0  0  0  0  0
   -0.4786   -5.1058    4.6569 H   0  0  0  0  0  0  0  0  0  0  0  0
    0.8004   -5.0883    2.7730 H   0  0  0  0  0  0  0  0  0  0  0  0
    2.2756   -8.3722    4.5037 H   0  0  0  0  0  0  0  0  0  0  0  0
    1.4234   -9.3079    3.3096 H   0  0  0  0  0  0  0  0  0  0  0  0
    0.5274   -8.4773    4.5106 H   0  0  0  0  0  0  0  0  0  0  0  0
    0.1160   -8.1516    1.8001 H   0  0  0  0  0  0  0  0  0  0  0  0
    3.2757   -7.9603    2.4122 H   0  0  0  0  0  0  0  0  0  0  0  0
    2.1358   -8.3239    1.2102 H   0  0  0  0  0  0  0  0  0  0  0  0
    2.5438   -5.8176   -0.7742 H   0  0  0  0  0  0  0  0  0  0  0  0
    5.3736   -7.1596    2.0939 H   0  0  0  0  0  0  0  0  0  0  0  0
    5.9910   -6.0541    0.8195 H   0  0  0  0  0  0  0  0  0  0  0  0
    4.7531   -4.2716   -0.0315 H   0  0  0  0  0  0  0  0  0  0  0  0
    4.9896   -3.4451    1.4826 H   0  0  0  0  0  0  0  0  0  0  0  0
    3.3879   -3.5796    0.7039 H   0  0  0  0  0  0  0  0  0  0  0  0
    3.9899   -5.4191    5.4586 H   0  0  0  0  0  0  0  0  0  0  0  0
    2.8712   -6.4610    5.1807 H   0  0  0  0  0  0  0  0  0  0  0  0
    3.6974   -3.1612    3.1372 H   0  0  0  0  0  0  0  0  0  0  0  0
    0.3203   -3.1199    3.4895 H   0  0  0  0  0  0  0  0  0  0  0  0
    0.0786   -1.4711    2.9950 H   0  0  0  0  0  0  0  0  0  0  0  0
    0.0932   -1.8137    4.6315 H   0  0  0  0  0  0  0  0  0  0  0  0
    1.8056   -2.6575    1.6512 H   0  0  0  0  0  0  0  0  0  0  0  0
    3.2257   -1.6243    1.7219 H   0  0  0  0  0  0  0  0  0  0  0  0
    1.6065   -0.9498    1.7095 H   0  0  0  0  0  0  0  0  0  0  0  0
  1  2  1  0
  1 55  1  0
  1 56  1  0
  1 57  1  0
  2  3  1  0
  2  4  1  0
  2 58  1  1
  3 59  1  0
  4 22  1  0
  4 52  1  0
  4  5  1  1
  5  6  1  0
  6 21  1  0
  6  7  1  0
  6 60  1  1
  7  9  1  0
  7  8  1  0
  7 61  1  1
  8  9  1  0
  9 10  1  6
  9 11  1  0
 10 62  1  0
 10 63  1  0
 10 64  1  0
 11 15  1  0
 11 12  1  1
 11 13  1  0
 12 65  1  0
 13 14  2  0
 13 15  1  0
 15 16  1  0
 15 66  1  6
 16 17  1  0
 17 18  1  0
 17 19  1  0
 17 67  1  6
 18 68  1  0
 19 20  2  0
 19 21  1  0
 21 22  1  0
 21 69  1  1
 22 23  1  6
 22 25  1  0
 23 24  1  0
 23 70  1  0
 23 71  1  0
 24 72  1  0
 25 26  1  0
 25 27  1  0
 25 73  1  1
 26 74  1  0
 50 27  1  1
 27 28  1  1
 27 29  1  0
 28 75  1  0
 29 30  1  0
 29 31  1  0
 29 76  1  1
 30 77  1  0
 31 48  1  0
 31 32  1  6
 31 33  1  0
 32 78  1  0
 32 79  1  0
 32 80  1  0
 33 34  1  0
 33 81  1  0
 33 82  1  0
 34 35  1  0
 34 83  1  0
 34 84  1  0
 35 47  1  0
 35 36  1  0
 35 85  1  6
 36 37  1  0
 36 38  1  6
 36 39  1  0
 37 86  1  0
 37 87  1  0
 37 88  1  0
 38 89  1  0
 39 40  1  0
 39 90  1  0
 39 91  1  0
 40 44  1  0
 40 41  1  6
 40 42  1  0
 41 92  1  0
 42 43  1  0
 43 44  1  0
 43 93  1  0
 43 94  1  0
 44 45  1  6
 44 46  1  0
 45 95  1  0
 45 96  1  0
 45 97  1  0
 47 46  1  6
 47 48  1  0
 47 49  1  0
 48 98  1  0
 48 99  1  0
 49 50  1  0
 49 52  1  0
 49100  1  6
 50 51  2  0
 52 53  1  0
 52 54  1  0
 53101  1  0
 53102  1  0
 53103  1  0
 54104  1  0
 54105  1  0
 54106  1  0
M  END
>  <i_m_ct_stereo_status>  (126) 
1

>  <s_m_source_file>  (126) 
/var/tmp/pbs.5075288.sched01/tmpd529dnjr/198klec4xt1.sdf

>  <i_m_source_file_index>  (126) 
28

>  <i_lp_mmshare_version>  (126) 
48012

>  <i_f3d_flags>  (126) 
0

>  <s_epik_input>  (126) 
Tz1DKFtDQEBIXTEyKVtDQEhdKFtPSF0pT1tDSF0oQzM9TylDMyhbT0hdKVtDQEBdKE80KShbQ0gzXSlbQ0hdNFtDQEhdMU9bQ0BdKFtDQEhdKFtDSDNdKVtPSF0pKEMoW0NIM10pKFtDSDNdKVtDQEhdNVtTK102W08tXSlbQ0BdMihbQ0gyXVtPSF0pW0NAQEhdKFtPSF0pW0NAQF02KFtPSF0pW0NAQEhdKFtPSF0pW0NAQF0oW0NIM10pKFtDSDJdNylbQ0gyXVtDSDJdW0NAQEhdKFtDQEBdNTc4KVtDQEBdKFtDSDNdKShbT0hdKVtDSDJdW0NAQF05KFtPSF0pW0NAQF0oTzgpKFtDSDJdTzkpW0NIM10=

>  <s_epik_cmdline>  (126) 
J2VwaWtfcHl0aG9uJywgJy1waHQnLCAnMi4wJywgJy1waCcsICc3LjAnLCAnLXRuJywgJzgnLCAnLW1hJywgJzIwMCcsICctaW1hZScsICc8aW5maWxlLm1hZT4nLCAnLW9tYWUnLCAnPG91dGZpbGUubWFlPic=

>  <r_lp_tautomer_probability>  (126) 
1

>  <r_epik_Ionization_Penalty>  (126) 
4.44335e-05

>  <r_epik_Ionization_Penalty_Charging>  (126) 
0

>  <r_epik_Ionization_Penalty_Neutral>  (126) 
4.44335e-05

>  <r_epik_State_Penalty>  (126) 
-0

>  <r_epik_Charging_Adjusted_Penalty>  (126) 
0

>  <i_epik_Tot_Q>  (126) 
0

>  <i_epik_Tot_abs_Q>  (126) 
2

>  <s_epik_Chemistry_Notes>  (126) 
This compound contains an acetal/aminal-like group ( X-CH(R)-Y where X, Y are N, S, or O) that may be acid/base labile, releasing an aldehyde.

>  <s_lp_Force_Field>  (126) 
OPLS3e

>  <r_lp_Energy>  (126) 
322.731

>  <b_lp_Chiralities_Consistent>  (126) 
1

>  <s_lp_Variant>  (126) 
86:0-8

>  <s_i_glide_gridfile>  (126) 
pfpi4k_grid

>  <i_i_glide_lignum>  (126) 
28

>  <i_i_glide_rotatable_bonds>  (126) 
11

>  <r_i_docking_score>  (126) 
-4.24663

>  <r_i_glide_ligand_efficiency>  (126) 
-0.0786413

>  <r_i_glide_ligand_efficiency_sa>  (126) 
-0.297246

>  <r_i_glide_ligand_efficiency_ln>  (126) 
-0.851202

>  <r_i_glide_gscore>  (126) 
-4.24663

>  <r_i_glide_lipo>  (126) 
-0.175898

>  <r_i_glide_hbond>  (126) 
-0.16

>  <r_i_glide_metal>  (126) 
-0

>  <r_i_glide_rewards>  (126) 
-0.521154

>  <r_i_glide_evdw>  (126) 
-27.2469

>  <r_i_glide_ecoul>  (126) 
-13.2965

>  <r_i_glide_erotb>  (126) 
0.0698826

>  <r_i_glide_esite>  (126) 
-0.102646

>  <r_i_glide_emodel>  (126) 
-55.1494

>  <r_i_glide_energy>  (126) 
-40.5434

>  <r_i_glide_einternal>  (126) 
0.716324

>  <r_i_glide_intrahb_reward>  (126) 
-0.5

>  <i_i_glide_confnum>  (126) 
1

>  <i_i_glide_posenum>  (126) 
5

>  <r_i_glide_eff_state_penalty>  (126) 
0

>  <ligand_id>  (126) 
86

>  <original_smiles>  (126) 
CC(O)C12OC3C4OC4(C)C4(O)C(=O)C4OC(O)C(=O)C3C1(CO)C(O)C1(O)C(O)C3(C)CCC4C(C)(O)CC5(O)OCC5(C)OC4(C3)C([S+]1[O-])C2(C)C

>  <smiles>  (126) 
[H]OC1([H])OC2([H])C(=O)C2(O[H])C2(C([H])([H])[H])OC2([H])C2([H])OC3(C([H])(O[H])C([H])([H])[H])C(C([H])([H])O[H])(C([H])(O[H])C4(O[H])S(=O)C([H])(C56OC7(C([H])([H])[H])C([H])([H])OC7(O[H])C([H])([H])C(O[H])(C([H])([H])[H])C5([H])C([H])([H])C([H])([H])C(C([H])([H])[H])(C6([H])[H])C4([H])O[H])C3(C([H])([H])[H])C([H])([H])[H])C2([H])C1=O

$$$$
86:7:1
     RDKit          3D

106114  0  0  1  0  0  0  0  0999 V2000
    2.8749    1.2156    2.2528 C   0  0  0  0  0  0  0  0  0  0  0  0
    3.4772    0.5176    3.5029 C   0  0  2  0  0  0  0  0  0  0  0  0
    4.7111   -0.0266    3.1115 O   0  0  0  0  0  0  0  0  0  0  0  0
    2.5803   -0.4212    4.4399 C   0  0  2  0  0  0  0  0  0  0  0  0
    1.3347    0.3187    4.4261 O   0  0  0  0  0  0  0  0  0  0  0  0
    0.7430    0.4685    5.7116 C   0  0  2  0  0  0  0  0  0  0  0  0
   -0.4087    1.4506    5.8364 C   0  0  2  0  0  0  0  0  0  0  0  0
   -1.7894    1.1177    5.6479 O   0  0  0  0  0  0  0  0  0  0  0  0
   -1.1839    1.9552    4.6397 C   0  0  2  0  0  0  0  0  0  0  0  0
   -1.2877    1.3005    3.2843 C   0  0  0  0  0  0  0  0  0  0  0  0
   -1.0593    3.4523    4.7044 C   0  0  2  0  0  0  0  0  0  0  0  0
   -1.4625    4.0681    5.9184 O   0  0  0  0  0  0  0  0  0  0  0  0
   -0.9054    4.5430    3.6597 C   0  0  0  0  0  0  0  0  0  0  0  0
   -1.4117    5.3451    2.8863 O   0  0  0  0  0  0  0  0  0  0  0  0
    0.2974    3.7922    4.0821 C   0  0  1  0  0  0  0  0  0  0  0  0
    1.1603    4.1826    5.1480 O   0  0  0  0  0  0  0  0  0  0  0  0
    2.2650    3.2986    5.1709 C   0  0  1  0  0  0  0  0  0  0  0  0
    3.4813    4.0174    5.0889 O   0  0  0  0  0  0  0  0  0  0  0  0
    2.2641    2.4475    6.4681 C   0  0  0  0  0  0  0  0  0  0  0  0
    2.4812    3.0120    7.5434 O   0  0  0  0  0  0  0  0  0  0  0  0
    1.9745    0.8967    6.4832 C   0  0  2  0  0  0  0  0  0  0  0  0
    3.0505   -0.1896    6.0461 C   0  0  2  0  0  0  0  0  0  0  0  0
    4.4252    0.5688    6.3845 C   0  0  0  0  0  0  0  0  0  0  0  0
    5.6551   -0.1229    6.3499 O   0  0  0  0  0  0  0  0  0  0  0  0
    3.0025   -1.3818    7.1683 C   0  0  1  0  0  0  0  0  0  0  0  0
    1.8036   -1.4455    7.9337 O   0  0  0  0  0  0  0  0  0  0  0  0
    3.6501   -2.8430    6.9803 C   0  0  1  0  0  0  0  0  0  0  0  0
    4.7427   -2.8902    7.8835 O   0  0  0  0  0  0  0  0  0  0  0  0
    2.8436   -4.2113    7.3966 C   0  0  1  0  0  0  0  0  0  0  0  0
    2.2417   -4.1354    8.6747 O   0  0  0  0  0  0  0  0  0  0  0  0
    1.8438   -4.7145    6.2959 C   0  0  2  0  0  0  0  0  0  0  0  0
    0.8675   -3.5075    6.2248 C   0  0  0  0  0  0  0  0  0  0  0  0
    0.7677   -5.8226    6.2290 C   0  0  0  0  0  0  0  0  0  0  0  0
    0.2062   -5.7882    4.7240 C   0  0  0  0  0  0  0  0  0  0  0  0
    1.2429   -5.6387    3.5038 C   0  0  2  0  0  0  0  0  0  0  0  0
    1.3160   -7.1064    2.8560 C   0  0  1  0  0  0  0  0  0  0  0  0
    1.3001   -8.3270    3.8285 C   0  0  0  0  0  0  0  0  0  0  0  0
    0.1140   -7.2160    2.1038 O   0  0  0  0  0  0  0  0  0  0  0  0
    2.4383   -7.4533    1.8518 C   0  0  0  0  0  0  0  0  0  0  0  0
    3.0781   -6.3422    1.0219 C   0  0  2  0  0  0  0  0  0  0  0  0
    2.1603   -5.7751    0.0835 O   0  0  0  0  0  0  0  0  0  0  0  0
    4.2158   -7.0177    0.4115 O   0  0  0  0  0  0  0  0  0  0  0  0
    5.0885   -6.4281    1.3974 C   0  0  0  0  0  0  0  0  0  0  0  0
    4.0254   -5.3737    1.7273 C   0  0  1  0  0  0  0  0  0  0  0  0
    4.3284   -4.0495    1.0290 C   0  0  0  0  0  0  0  0  0  0  0  0
    3.7727   -5.3897    3.1577 O   0  0  0  0  0  0  0  0  0  0  0  0
    2.6110   -4.8182    3.8286 C   0  0  2  0  0  0  0  0  0  0  0  0
    2.8136   -5.3344    5.2257 C   0  0  0  0  0  0  0  0  0  0  0  0
    2.9198   -3.2080    3.9771 C   0  0  2  0  0  0  0  0  0  0  0  0
    4.2933   -2.9626    5.2134 S   0  0  0  0  0  0  0  0  0  0  0  0
    5.3979   -2.0367    4.7342 O   0  0  0  0  0  0  0  0  0  0  0  0
    2.0934   -1.8453    3.6830 C   0  0  0  0  0  0  0  0  0  0  0  0
    0.5388   -2.0385    3.6799 C   0  0  0  0  0  0  0  0  0  0  0  0
    2.2133   -1.7020    2.1333 C   0  0  0  0  0  0  0  0  0  0  0  0
    1.8062    1.4053    2.3172 H   0  0  0  0  0  0  0  0  0  0  0  0
    3.0641    0.6779    1.3235 H   0  0  0  0  0  0  0  0  0  0  0  0
    3.3446    2.1858    2.1085 H   0  0  0  0  0  0  0  0  0  0  0  0
    3.7882    1.3746    4.0703 H   0  0  0  0  0  0  0  0  0  0  0  0
    4.5420   -0.7737    2.5599 H   0  0  0  0  0  0  0  0  0  0  0  0
    0.3857   -0.4695    6.1227 H   0  0  0  0  0  0  0  0  0  0  0  0
   -0.3378    2.0575    6.7342 H   0  0  0  0  0  0  0  0  0  0  0  0
   -0.3867    1.4705    2.7037 H   0  0  0  0  0  0  0  0  0  0  0  0
   -2.1258    1.7278    2.7312 H   0  0  0  0  0  0  0  0  0  0  0  0
   -1.4418    0.2289    3.3961 H   0  0  0  0  0  0  0  0  0  0  0  0
   -2.3058    3.6978    6.1496 H   0  0  0  0  0  0  0  0  0  0  0  0
    0.7396    3.1759    3.3085 H   0  0  0  0  0  0  0  0  0  0  0  0
    2.2378    2.6390    4.3117 H   0  0  0  0  0  0  0  0  0  0  0  0
    3.5274    4.4221    4.2344 H   0  0  0  0  0  0  0  0  0  0  0  0
    1.7529    0.7880    7.5389 H   0  0  0  0  0  0  0  0  0  0  0  0
    4.5993    1.4944    5.8484 H   0  0  0  0  0  0  0  0  0  0  0  0
    4.3659    0.9225    7.4217 H   0  0  0  0  0  0  0  0  0  0  0  0
    5.7580   -0.5723    5.5123 H   0  0  0  0  0  0  0  0  0  0  0  0
    3.5960   -0.9733    7.9855 H   0  0  0  0  0  0  0  0  0  0  0  0
    1.1408   -1.8493    7.3936 H   0  0  0  0  0  0  0  0  0  0  0  0
    4.5514   -3.5327    8.5532 H   0  0  0  0  0  0  0  0  0  0  0  0
    3.5713   -5.0071    7.5587 H   0  0  0  0  0  0  0  0  0  0  0  0
    1.7038   -3.3568    8.7054 H   0  0  0  0  0  0  0  0  0  0  0  0
   -0.0354   -3.5533    5.6439 H   0  0  0  0  0  0  0  0  0  0  0  0
    1.3594   -2.6141    5.9203 H   0  0  0  0  0  0  0  0  0  0  0  0
    0.4131   -3.3437    7.2044 H   0  0  0  0  0  0  0  0  0  0  0  0
    1.1500   -6.8135    6.4899 H   0  0  0  0  0  0  0  0  0  0  0  0
   -0.0495   -5.6634    6.9335 H   0  0  0  0  0  0  0  0  0  0  0  0
   -0.4580   -6.6368    4.6039 H   0  0  0  0  0  0  0  0  0  0  0  0
   -0.5589   -5.0416    4.5532 H   0  0  0  0  0  0  0  0  0  0  0  0
    0.7649   -5.0428    2.7280 H   0  0  0  0  0  0  0  0  0  0  0  0
    2.1575   -8.3304    4.4954 H   0  0  0  0  0  0  0  0  0  0  0  0
    1.3441   -9.2588    3.2658 H   0  0  0  0  0  0  0  0  0  0  0  0
    0.4101   -8.4286    4.4374 H   0  0  0  0  0  0  0  0  0  0  0  0
    0.0879   -8.0853    1.7244 H   0  0  0  0  0  0  0  0  0  0  0  0
    3.2310   -7.9160    2.4449 H   0  0  0  0  0  0  0  0  0  0  0  0
    2.1317   -8.2706    1.1990 H   0  0  0  0  0  0  0  0  0  0  0  0
    2.5818   -5.8243   -0.7674 H   0  0  0  0  0  0  0  0  0  0  0  0
    5.3359   -7.1113    2.2121 H   0  0  0  0  0  0  0  0  0  0  0  0
    5.9969   -6.0201    0.9557 H   0  0  0  0  0  0  0  0  0  0  0  0
    4.8150   -4.2219    0.0697 H   0  0  0  0  0  0  0  0  0  0  0  0
    4.9982   -3.4050    1.5949 H   0  0  0  0  0  0  0  0  0  0  0  0
    3.4252   -3.5258    0.7562 H   0  0  0  0  0  0  0  0  0  0  0  0
    3.8571   -5.3729    5.5186 H   0  0  0  0  0  0  0  0  0  0  0  0
    2.7388   -6.4159    5.1993 H   0  0  0  0  0  0  0  0  0  0  0  0
    3.6412   -3.1230    3.1914 H   0  0  0  0  0  0  0  0  0  0  0  0
    0.2645   -3.0585    3.4302 H   0  0  0  0  0  0  0  0  0  0  0  0
    0.0565   -1.3985    2.9436 H   0  0  0  0  0  0  0  0  0  0  0  0
    0.0027   -1.7616    4.5757 H   0  0  0  0  0  0  0  0  0  0  0  0
    1.8103   -2.5957    1.6542 H   0  0  0  0  0  0  0  0  0  0  0  0
    3.2344   -1.5751    1.7730 H   0  0  0  0  0  0  0  0  0  0  0  0
    1.6245   -0.8838    1.7133 H   0  0  0  0  0  0  0  0  0  0  0  0
  1  2  1  0
  1 55  1  0
  1 56  1  0
  1 57  1  0
  2  3  1  0
  2  4  1  0
  2 58  1  1
  3 59  1  0
  4 22  1  0
  4 52  1  0
  4  5  1  1
  5  6  1  0
  6 21  1  0
  6  7  1  0
  6 60  1  1
  7  9  1  0
  7  8  1  0
  7 61  1  1
  8  9  1  0
  9 10  1  6
  9 11  1  0
 10 62  1  0
 10 63  1  0
 10 64  1  0
 11 15  1  0
 11 12  1  1
 11 13  1  0
 12 65  1  0
 13 14  2  0
 13 15  1  0
 15 16  1  0
 15 66  1  6
 16 17  1  0
 17 18  1  0
 17 19  1  0
 17 67  1  6
 18 68  1  0
 19 20  2  0
 19 21  1  0
 21 22  1  0
 21 69  1  1
 22 23  1  6
 22 25  1  0
 23 24  1  0
 23 70  1  0
 23 71  1  0
 24 72  1  0
 25 26  1  0
 25 27  1  0
 25 73  1  1
 26 74  1  0
 50 27  1  1
 27 28  1  1
 27 29  1  0
 28 75  1  0
 29 30  1  0
 29 31  1  0
 29 76  1  1
 30 77  1  0
 31 48  1  0
 31 32  1  6
 31 33  1  0
 32 78  1  0
 32 79  1  0
 32 80  1  0
 33 34  1  0
 33 81  1  0
 33 82  1  0
 34 35  1  0
 34 83  1  0
 34 84  1  0
 35 47  1  0
 35 36  1  0
 35 85  1  6
 36 37  1  0
 36 38  1  6
 36 39  1  0
 37 86  1  0
 37 87  1  0
 37 88  1  0
 38 89  1  0
 39 40  1  0
 39 90  1  0
 39 91  1  0
 40 44  1  0
 40 41  1  6
 40 42  1  0
 41 92  1  0
 42 43  1  0
 43 44  1  0
 43 93  1  0
 43 94  1  0
 44 45  1  6
 44 46  1  0
 45 95  1  0
 45 96  1  0
 45 97  1  0
 47 46  1  6
 47 48  1  0
 47 49  1  0
 48 98  1  0
 48 99  1  0
 49 50  1  0
 49 52  1  0
 49100  1  6
 50 51  2  0
 52 53  1  0
 52 54  1  0
 53101  1  0
 53102  1  0
 53103  1  0
 54104  1  0
 54105  1  0
 54106  1  0
M  END
>  <i_m_ct_stereo_status>  (127) 
1

>  <s_m_source_file>  (127) 
/var/tmp/pbs.5075288.sched01/tmpd529dnjr/198klec4xt1.sdf

>  <i_m_source_file_index>  (127) 
28

>  <i_lp_mmshare_version>  (127) 
48012

>  <i_f3d_flags>  (127) 
0

>  <s_epik_input>  (127) 
Tz1DKFtDQEBIXTEyKVtDQEhdKFtPSF0pT1tDSF0oQzM9TylDMyhbT0hdKVtDQEBdKE80KShbQ0gzXSlbQ0hdNFtDQEhdMU9bQ0BdKFtDQEhdKFtDSDNdKVtPSF0pKEMoW0NIM10pKFtDSDNdKVtDQEhdNVtTK102W08tXSlbQ0BdMihbQ0gyXVtPSF0pW0NAQEhdKFtPSF0pW0NAQF02KFtPSF0pW0NAQEhdKFtPSF0pW0NAQF0oW0NIM10pKFtDSDJdNylbQ0gyXVtDSDJdW0NAQEhdKFtDQEBdNTc4KVtDQEBdKFtDSDNdKShbT0hdKVtDSDJdW0NAQF05KFtPSF0pW0NAQF0oTzgpKFtDSDJdTzkpW0NIM10=

>  <s_epik_cmdline>  (127) 
J2VwaWtfcHl0aG9uJywgJy1waHQnLCAnMi4wJywgJy1waCcsICc3LjAnLCAnLXRuJywgJzgnLCAnLW1hJywgJzIwMCcsICctaW1hZScsICc8aW5maWxlLm1hZT4nLCAnLW9tYWUnLCAnPG91dGZpbGUubWFlPic=

>  <r_lp_tautomer_probability>  (127) 
1

>  <r_epik_Ionization_Penalty>  (127) 
4.44335e-05

>  <r_epik_Ionization_Penalty_Charging>  (127) 
0

>  <r_epik_Ionization_Penalty_Neutral>  (127) 
4.44335e-05

>  <r_epik_State_Penalty>  (127) 
-0

>  <r_epik_Charging_Adjusted_Penalty>  (127) 
0

>  <i_epik_Tot_Q>  (127) 
0

>  <i_epik_Tot_abs_Q>  (127) 
2

>  <s_epik_Chemistry_Notes>  (127) 
This compound contains an acetal/aminal-like group ( X-CH(R)-Y where X, Y are N, S, or O) that may be acid/base labile, releasing an aldehyde.

>  <s_lp_Force_Field>  (127) 
OPLS3e

>  <r_lp_Energy>  (127) 
322.731

>  <b_lp_Chiralities_Consistent>  (127) 
1

>  <s_lp_Variant>  (127) 
86:0-8

>  <s_i_glide_gridfile>  (127) 
pfpi4k_grid

>  <i_i_glide_lignum>  (127) 
28

>  <i_i_glide_rotatable_bonds>  (127) 
11

>  <r_i_docking_score>  (127) 
-4.09912

>  <r_i_glide_ligand_efficiency>  (127) 
-0.0759096

>  <r_i_glide_ligand_efficiency_sa>  (127) 
-0.28692

>  <r_i_glide_ligand_efficiency_ln>  (127) 
-0.821634

>  <r_i_glide_gscore>  (127) 
-4.09912

>  <r_i_glide_lipo>  (127) 
-0.148008

>  <r_i_glide_hbond>  (127) 
-0.16

>  <r_i_glide_metal>  (127) 
-0

>  <r_i_glide_rewards>  (127) 
-0.519257

>  <r_i_glide_evdw>  (127) 
-27.9557

>  <r_i_glide_ecoul>  (127) 
-12.2784

>  <r_i_glide_erotb>  (127) 
0.0698826

>  <r_i_glide_esite>  (127) 
-0.102195

>  <r_i_glide_emodel>  (127) 
-54.1187

>  <r_i_glide_energy>  (127) 
-40.2341

>  <r_i_glide_einternal>  (127) 
1.38186

>  <r_i_glide_intrahb_reward>  (127) 
-0.5

>  <i_i_glide_confnum>  (127) 
4

>  <i_i_glide_posenum>  (127) 
14

>  <r_i_glide_eff_state_penalty>  (127) 
0

>  <ligand_id>  (127) 
86

>  <original_smiles>  (127) 
CC(O)C12OC3C4OC4(C)C4(O)C(=O)C4OC(O)C(=O)C3C1(CO)C(O)C1(O)C(O)C3(C)CCC4C(C)(O)CC5(O)OCC5(C)OC4(C3)C([S+]1[O-])C2(C)C

>  <smiles>  (127) 
[H]OC1([H])OC2([H])C(=O)C2(O[H])C2(C([H])([H])[H])OC2([H])C2([H])OC3(C([H])(O[H])C([H])([H])[H])C(C([H])([H])O[H])(C([H])(O[H])C4(O[H])S(=O)C([H])(C56OC7(C([H])([H])[H])C([H])([H])OC7(O[H])C([H])([H])C(O[H])(C([H])([H])[H])C5([H])C([H])([H])C([H])([H])C(C([H])([H])[H])(C6([H])[H])C4([H])O[H])C3(C([H])([H])[H])C([H])([H])[H])C2([H])C1=O

$$$$
86:7:2
     RDKit          3D

106114  0  0  1  0  0  0  0  0999 V2000
    2.8935    1.1213    2.2153 C   0  0  0  0  0  0  0  0  0  0  0  0
    3.5224    0.4636    3.4713 C   0  0  2  0  0  0  0  0  0  0  0  0
    4.7684   -0.0455    3.0623 O   0  0  0  0  0  0  0  0  0  0  0  0
    2.6586   -0.4808    4.4359 C   0  0  2  0  0  0  0  0  0  0  0  0
    1.4065    0.2606    4.4598 O   0  0  0  0  0  0  0  0  0  0  0  0
    0.8482    0.4031    5.7632 C   0  0  2  0  0  0  0  0  0  0  0  0
   -0.3080    1.3856    5.9322 C   0  0  2  0  0  0  0  0  0  0  0  0
   -1.6937    1.0600    5.7847 O   0  0  0  0  0  0  0  0  0  0  0  0
   -1.1210    1.9007    4.7665 C   0  0  2  0  0  0  0  0  0  0  0  0
   -1.2515    1.2346    3.4089 C   0  0  0  0  0  0  0  0  0  0  0  0
   -1.0028    3.4102    4.8238 C   0  0  2  0  0  0  0  0  0  0  0  0
   -1.3791    4.0452    6.0425 O   0  0  0  0  0  0  0  0  0  0  0  0
   -0.8672    4.4892    3.7707 C   0  0  0  0  0  0  0  0  0  0  0  0
   -1.3910    5.3400    3.0580 O   0  0  0  0  0  0  0  0  0  0  0  0
    0.3440    3.7450    4.1559 C   0  0  1  0  0  0  0  0  0  0  0  0
    1.2433    4.1226    5.1995 O   0  0  0  0  0  0  0  0  0  0  0  0
    2.3501    3.2404    5.1794 C   0  0  1  0  0  0  0  0  0  0  0  0
    3.5576    3.9606    5.0646 O   0  0  0  0  0  0  0  0  0  0  0  0
    2.3968    2.3831    6.4743 C   0  0  0  0  0  0  0  0  0  0  0  0
    2.6344    2.9460    7.5451 O   0  0  0  0  0  0  0  0  0  0  0  0
    2.1115    0.8332    6.4942 C   0  0  2  0  0  0  0  0  0  0  0  0
    3.1789   -0.2503    6.0256 C   0  0  2  0  0  0  0  0  0  0  0  0
    4.5693    0.4909    6.3325 C   0  0  0  0  0  0  0  0  0  0  0  0
    5.7833   -0.2286    6.3383 O   0  0  0  0  0  0  0  0  0  0  0  0
    3.1635   -1.4450    7.1404 C   0  0  1  0  0  0  0  0  0  0  0  0
    1.9980   -1.4789    7.9537 O   0  0  0  0  0  0  0  0  0  0  0  0
    3.8106   -2.9068    6.9391 C   0  0  1  0  0  0  0  0  0  0  0  0
    4.9514   -2.9379    7.7864 O   0  0  0  0  0  0  0  0  0  0  0  0
    3.0276   -4.2787    7.3831 C   0  0  1  0  0  0  0  0  0  0  0  0
    2.4408   -4.2018    8.6677 O   0  0  0  0  0  0  0  0  0  0  0  0
    1.9913   -4.7825    6.3104 C   0  0  2  0  0  0  0  0  0  0  0  0
    1.0108   -3.5773    6.2678 C   0  0  0  0  0  0  0  0  0  0  0  0
    0.9155   -5.8954    6.2737 C   0  0  0  0  0  0  0  0  0  0  0  0
    0.2982   -5.8629    4.7885 C   0  0  0  0  0  0  0  0  0  0  0  0
    1.2976   -5.6978    3.5331 C   0  0  2  0  0  0  0  0  0  0  0  0
    1.3668   -7.1641    2.8795 C   0  0  1  0  0  0  0  0  0  0  0  0
    1.3862   -8.3892    3.8500 C   0  0  0  0  0  0  0  0  0  0  0  0
    0.1473   -7.2868    2.1604 O   0  0  0  0  0  0  0  0  0  0  0  0
    2.4634   -7.5078    1.8402 C   0  0  0  0  0  0  0  0  0  0  0  0
    3.0776   -6.4042    0.9858 C   0  0  2  0  0  0  0  0  0  0  0  0
    2.1409   -5.8520    0.0702 O   0  0  0  0  0  0  0  0  0  0  0  0
    4.2041   -7.0522    0.3320 O   0  0  0  0  0  0  0  0  0  0  0  0
    5.0990   -6.4674    1.3017 C   0  0  0  0  0  0  0  0  0  0  0  0
    4.0326   -5.4260    1.6703 C   0  0  1  0  0  0  0  0  0  0  0  0
    4.3081   -4.0983    0.9631 C   0  0  0  0  0  0  0  0  0  0  0  0
    3.8279   -5.4386    3.1063 O   0  0  0  0  0  0  0  0  0  0  0  0
    2.6778   -4.8845    3.8178 C   0  0  2  0  0  0  0  0  0  0  0  0
    2.9267   -5.4072    5.2084 C   0  0  0  0  0  0  0  0  0  0  0  0
    2.9868   -3.2769    3.9632 C   0  0  2  0  0  0  0  0  0  0  0  0
    4.3979   -3.0508    5.1546 S   0  0  0  0  0  0  0  0  0  0  0  0
    5.4204   -2.0755    4.6038 O   0  0  0  0  0  0  0  0  0  0  0  0
    2.1509   -1.9116    3.6927 C   0  0  0  0  0  0  0  0  0  0  0  0
    0.5956   -2.1121    3.7377 C   0  0  0  0  0  0  0  0  0  0  0  0
    2.2220   -1.7705    2.1405 C   0  0  0  0  0  0  0  0  0  0  0  0
    1.8167    1.2686    2.2740 H   0  0  0  0  0  0  0  0  0  0  0  0
    3.1078    0.5779    1.2927 H   0  0  0  0  0  0  0  0  0  0  0  0
    3.3291    2.1096    2.0783 H   0  0  0  0  0  0  0  0  0  0  0  0
    3.8138    1.3358    4.0292 H   0  0  0  0  0  0  0  0  0  0  0  0
    4.6223   -0.8433    2.5786 H   0  0  0  0  0  0  0  0  0  0  0  0
    0.5081   -0.5410    6.1776 H   0  0  0  0  0  0  0  0  0  0  0  0
   -0.2059    1.9791    6.8385 H   0  0  0  0  0  0  0  0  0  0  0  0
   -0.3661    1.4051    2.8039 H   0  0  0  0  0  0  0  0  0  0  0  0
   -2.1063    1.6518    2.8752 H   0  0  0  0  0  0  0  0  0  0  0  0
   -1.3967    0.1629    3.5204 H   0  0  0  0  0  0  0  0  0  0  0  0
   -0.7807    3.7737    6.7221 H   0  0  0  0  0  0  0  0  0  0  0  0
    0.7502    3.1225    3.3718 H   0  0  0  0  0  0  0  0  0  0  0  0
    2.2993    2.5907    4.3140 H   0  0  0  0  0  0  0  0  0  0  0  0
    3.5885    4.3610    4.2058 H   0  0  0  0  0  0  0  0  0  0  0  0
    1.9195    0.7316    7.5579 H   0  0  0  0  0  0  0  0  0  0  0  0
    4.7603    1.3991    5.7766 H   0  0  0  0  0  0  0  0  0  0  0  0
    4.5287    0.8641    7.3576 H   0  0  0  0  0  0  0  0  0  0  0  0
    6.4806    0.3683    6.5790 H   0  0  0  0  0  0  0  0  0  0  0  0
    3.7746   -1.0374    7.9413 H   0  0  0  0  0  0  0  0  0  0  0  0
    1.3478   -2.0022    7.5099 H   0  0  0  0  0  0  0  0  0  0  0  0
    4.8428   -3.6032    8.4460 H   0  0  0  0  0  0  0  0  0  0  0  0
    3.7653   -5.0747    7.5202 H   0  0  0  0  0  0  0  0  0  0  0  0
    3.1143   -4.0292    9.3072 H   0  0  0  0  0  0  0  0  0  0  0  0
    0.0899   -3.6305    5.7177 H   0  0  0  0  0  0  0  0  0  0  0  0
    1.4887   -2.6812    5.9509 H   0  0  0  0  0  0  0  0  0  0  0  0
    0.5960   -3.4076    7.2627 H   0  0  0  0  0  0  0  0  0  0  0  0
    1.3125   -6.8817    6.5191 H   0  0  0  0  0  0  0  0  0  0  0  0
    0.1258   -5.7438    7.0104 H   0  0  0  0  0  0  0  0  0  0  0  0
   -0.3648   -6.7125    4.6803 H   0  0  0  0  0  0  0  0  0  0  0  0
   -0.4858   -5.1273    4.6554 H   0  0  0  0  0  0  0  0  0  0  0  0
    0.7991   -5.0943    2.7747 H   0  0  0  0  0  0  0  0  0  0  0  0
    2.2651   -8.3933    4.4889 H   0  0  0  0  0  0  0  0  0  0  0  0
    1.4168   -9.3210    3.2866 H   0  0  0  0  0  0  0  0  0  0  0  0
    0.5174   -8.4963    4.4886 H   0  0  0  0  0  0  0  0  0  0  0  0
    0.1228   -8.1525    1.7704 H   0  0  0  0  0  0  0  0  0  0  0  0
    3.2755   -7.9678    2.4029 H   0  0  0  0  0  0  0  0  0  0  0  0
    2.1391   -8.3266    1.1956 H   0  0  0  0  0  0  0  0  0  0  0  0
    2.5750   -5.7855   -0.7733 H   0  0  0  0  0  0  0  0  0  0  0  0
    5.3725   -7.1714    2.0938 H   0  0  0  0  0  0  0  0  0  0  0  0
    5.9951   -6.0575    0.8301 H   0  0  0  0  0  0  0  0  0  0  0  0
    4.7632   -4.2669   -0.0122 H   0  0  0  0  0  0  0  0  0  0  0  0
    4.9944   -3.4514    1.5096 H   0  0  0  0  0  0  0  0  0  0  0  0
    3.3949   -3.5795    0.7229 H   0  0  0  0  0  0  0  0  0  0  0  0
    3.9799   -5.4487    5.4691 H   0  0  0  0  0  0  0  0  0  0  0  0
    2.8623   -6.4892    5.1823 H   0  0  0  0  0  0  0  0  0  0  0  0
    3.6989   -3.1758    3.1649 H   0  0  0  0  0  0  0  0  0  0  0  0
    0.3184   -3.1355    3.5030 H   0  0  0  0  0  0  0  0  0  0  0  0
    0.0762   -1.4856    3.0151 H   0  0  0  0  0  0  0  0  0  0  0  0
    0.0878   -1.8348    4.6508 H   0  0  0  0  0  0  0  0  0  0  0  0
    1.8115   -2.6654    1.6711 H   0  0  0  0  0  0  0  0  0  0  0  0
    3.2328   -1.6320    1.7570 H   0  0  0  0  0  0  0  0  0  0  0  0
    1.6116   -0.9603    1.7375 H   0  0  0  0  0  0  0  0  0  0  0  0
  1  2  1  0
  1 55  1  0
  1 56  1  0
  1 57  1  0
  2  3  1  0
  2  4  1  0
  2 58  1  1
  3 59  1  0
  4 22  1  0
  4 52  1  0
  4  5  1  1
  5  6  1  0
  6 21  1  0
  6  7  1  0
  6 60  1  1
  7  9  1  0
  7  8  1  0
  7 61  1  1
  8  9  1  0
  9 10  1  6
  9 11  1  0
 10 62  1  0
 10 63  1  0
 10 64  1  0
 11 15  1  0
 11 12  1  1
 11 13  1  0
 12 65  1  0
 13 14  2  0
 13 15  1  0
 15 16  1  0
 15 66  1  6
 16 17  1  0
 17 18  1  0
 17 19  1  0
 17 67  1  6
 18 68  1  0
 19 20  2  0
 19 21  1  0
 21 22  1  0
 21 69  1  1
 22 23  1  6
 22 25  1  0
 23 24  1  0
 23 70  1  0
 23 71  1  0
 24 72  1  0
 25 26  1  0
 25 27  1  0
 25 73  1  1
 26 74  1  0
 50 27  1  1
 27 28  1  1
 27 29  1  0
 28 75  1  0
 29 30  1  0
 29 31  1  0
 29 76  1  1
 30 77  1  0
 31 48  1  0
 31 32  1  6
 31 33  1  0
 32 78  1  0
 32 79  1  0
 32 80  1  0
 33 34  1  0
 33 81  1  0
 33 82  1  0
 34 35  1  0
 34 83  1  0
 34 84  1  0
 35 47  1  0
 35 36  1  0
 35 85  1  6
 36 37  1  0
 36 38  1  6
 36 39  1  0
 37 86  1  0
 37 87  1  0
 37 88  1  0
 38 89  1  0
 39 40  1  0
 39 90  1  0
 39 91  1  0
 40 44  1  0
 40 41  1  6
 40 42  1  0
 41 92  1  0
 42 43  1  0
 43 44  1  0
 43 93  1  0
 43 94  1  0
 44 45  1  6
 44 46  1  0
 45 95  1  0
 45 96  1  0
 45 97  1  0
 47 46  1  6
 47 48  1  0
 47 49  1  0
 48 98  1  0
 48 99  1  0
 49 50  1  0
 49 52  1  0
 49100  1  6
 50 51  2  0
 52 53  1  0
 52 54  1  0
 53101  1  0
 53102  1  0
 53103  1  0
 54104  1  0
 54105  1  0
 54106  1  0
M  END
>  <i_m_ct_stereo_status>  (128) 
1

>  <s_m_source_file>  (128) 
/var/tmp/pbs.5075288.sched01/tmpd529dnjr/198klec4xt1.sdf

>  <i_m_source_file_index>  (128) 
28

>  <i_lp_mmshare_version>  (128) 
48012

>  <i_f3d_flags>  (128) 
0

>  <s_epik_input>  (128) 
Tz1DKFtDQEBIXTEyKVtDQEhdKFtPSF0pT1tDSF0oQzM9TylDMyhbT0hdKVtDQEBdKE80KShbQ0gzXSlbQ0hdNFtDQEhdMU9bQ0BdKFtDQEhdKFtDSDNdKVtPSF0pKEMoW0NIM10pKFtDSDNdKVtDQEhdNVtTK102W08tXSlbQ0BdMihbQ0gyXVtPSF0pW0NAQEhdKFtPSF0pW0NAQF02KFtPSF0pW0NAQEhdKFtPSF0pW0NAQF0oW0NIM10pKFtDSDJdNylbQ0gyXVtDSDJdW0NAQEhdKFtDQEBdNTc4KVtDQEBdKFtDSDNdKShbT0hdKVtDSDJdW0NAQF05KFtPSF0pW0NAQF0oTzgpKFtDSDJdTzkpW0NIM10=

>  <s_epik_cmdline>  (128) 
J2VwaWtfcHl0aG9uJywgJy1waHQnLCAnMi4wJywgJy1waCcsICc3LjAnLCAnLXRuJywgJzgnLCAnLW1hJywgJzIwMCcsICctaW1hZScsICc8aW5maWxlLm1hZT4nLCAnLW9tYWUnLCAnPG91dGZpbGUubWFlPic=

>  <r_lp_tautomer_probability>  (128) 
1

>  <r_epik_Ionization_Penalty>  (128) 
4.44335e-05

>  <r_epik_Ionization_Penalty_Charging>  (128) 
0

>  <r_epik_Ionization_Penalty_Neutral>  (128) 
4.44335e-05

>  <r_epik_State_Penalty>  (128) 
-0

>  <r_epik_Charging_Adjusted_Penalty>  (128) 
0

>  <i_epik_Tot_Q>  (128) 
0

>  <i_epik_Tot_abs_Q>  (128) 
2

>  <s_epik_Chemistry_Notes>  (128) 
This compound contains an acetal/aminal-like group ( X-CH(R)-Y where X, Y are N, S, or O) that may be acid/base labile, releasing an aldehyde.

>  <s_lp_Force_Field>  (128) 
OPLS3e

>  <r_lp_Energy>  (128) 
322.731

>  <b_lp_Chiralities_Consistent>  (128) 
1

>  <s_lp_Variant>  (128) 
86:0-8

>  <s_i_glide_gridfile>  (128) 
pfpi4k_grid

>  <i_i_glide_lignum>  (128) 
28

>  <i_i_glide_rotatable_bonds>  (128) 
11

>  <r_i_docking_score>  (128) 
-3.76727

>  <r_i_glide_ligand_efficiency>  (128) 
-0.0697642

>  <r_i_glide_ligand_efficiency_sa>  (128) 
-0.263692

>  <r_i_glide_ligand_efficiency_ln>  (128) 
-0.755117

>  <r_i_glide_gscore>  (128) 
-3.76727

>  <r_i_glide_lipo>  (128) 
-0.177874

>  <r_i_glide_hbond>  (128) 
-0.16

>  <r_i_glide_metal>  (128) 
-0

>  <r_i_glide_rewards>  (128) 
-0.0205968

>  <r_i_glide_evdw>  (128) 
-26.6744

>  <r_i_glide_ecoul>  (128) 
-13.6194

>  <r_i_glide_erotb>  (128) 
0.0698826

>  <r_i_glide_esite>  (128) 
-0.102053

>  <r_i_glide_emodel>  (128) 
-48.6042

>  <r_i_glide_energy>  (128) 
-40.2938

>  <r_i_glide_einternal>  (128) 
1.21964

>  <r_i_glide_intrahb_reward>  (128) 
-0

>  <i_i_glide_confnum>  (128) 
4

>  <i_i_glide_posenum>  (128) 
8

>  <r_i_glide_eff_state_penalty>  (128) 
0

>  <ligand_id>  (128) 
86

>  <original_smiles>  (128) 
CC(O)C12OC3C4OC4(C)C4(O)C(=O)C4OC(O)C(=O)C3C1(CO)C(O)C1(O)C(O)C3(C)CCC4C(C)(O)CC5(O)OCC5(C)OC4(C3)C([S+]1[O-])C2(C)C

>  <smiles>  (128) 
[H]OC1([H])OC2([H])C(=O)C2(O[H])C2(C([H])([H])[H])OC2([H])C2([H])OC3(C([H])(O[H])C([H])([H])[H])C(C([H])([H])O[H])(C([H])(O[H])C4(O[H])S(=O)C([H])(C56OC7(C([H])([H])[H])C([H])([H])OC7(O[H])C([H])([H])C(O[H])(C([H])([H])[H])C5([H])C([H])([H])C([H])([H])C(C([H])([H])[H])(C6([H])[H])C4([H])O[H])C3(C([H])([H])[H])C([H])([H])[H])C2([H])C1=O

$$$$
87:1:0
     RDKit          3D

 98104  0  0  1  0  0  0  0  0999 V2000
   -3.2356    3.1536    6.5479 C   0  0  0  0  0  0  0  0  0  0  0  0
   -1.9744    3.6007    6.5368 C   0  0  0  0  0  0  0  0  0  0  0  0
   -1.1765    3.9012    7.7390 C   0  0  1  0  0  0  0  0  0  0  0  0
   -0.0945    4.9374    7.4998 C   0  0  0  0  0  0  0  0  0  0  0  0
   -0.2221    6.1272    7.7312 O   0  0  0  0  0  0  0  0  0  0  0  0
    1.1786    4.3813    6.8051 C   0  0  0  0  0  0  0  0  0  0  0  0
    1.8932    3.1814    7.5078 C   0  0  1  0  0  0  0  0  0  0  0  0
    2.2984    3.8757    8.6873 O   0  0  0  0  0  0  0  0  0  0  0  0
    0.8506    2.1072    7.9719 C   0  0  0  0  0  0  0  0  0  0  0  0
    1.1949    0.8097    8.0977 C   0  0  0  0  0  0  0  0  0  0  0  0
    0.2181   -0.2263    8.6378 C   0  0  0  0  0  0  0  0  0  0  0  0
    0.6419   -0.6355   10.0457 C   0  0  0  0  0  0  0  0  0  0  0  0
    2.4946   -0.9164   10.1434 S   0  0  0  0  0  0  0  0  0  0  0  0
    2.6622   -2.2929   10.7695 O   0  0  0  0  0  0  0  0  0  0  0  0
    2.8332   -1.1574    8.3308 C   0  0  2  0  0  0  0  0  0  0  0  0
    4.2302   -1.7304    8.0277 C   0  0  0  0  0  0  0  0  0  0  0  0
    4.3418   -2.2106    6.5369 C   0  0  1  0  0  0  0  0  0  0  0  0
    5.8410   -2.5256    6.3128 C   0  0  0  0  0  0  0  0  0  0  0  0
    3.5717   -3.5687    6.3481 C   0  0  0  0  0  0  0  0  0  0  0  0
    3.6976   -4.3305    5.0196 C   0  0  0  0  0  0  0  0  0  0  0  0
    2.8859   -4.0611    7.2297 O   0  0  0  0  0  0  0  0  0  0  0  0
    3.8464   -1.0329    5.5808 C   0  0  1  0  0  0  0  0  0  0  0  0
    3.8168   -1.4602    4.1975 O   0  0  0  0  0  0  0  0  0  0  0  0
    4.3321   -0.7573    3.1418 C   0  0  0  0  0  0  0  0  0  0  0  0
    3.7246    0.0788    2.4943 O   0  0  0  0  0  0  0  0  0  0  0  0
    5.6563   -1.2132    2.6845 C   0  0  0  0  0  0  0  0  0  0  0  0
    5.8077   -1.8813    1.5333 C   0  0  0  0  0  0  0  0  0  0  0  0
    4.7445   -2.4202    0.6163 C   0  0  0  0  0  0  0  0  0  0  0  0
    3.5522   -3.0119    1.0576 C   0  0  0  0  0  0  0  0  0  0  0  0
    2.6142   -3.5543    0.2250 N   0  0  0  0  0  0  0  0  0  0  0  0
    2.8322   -3.4486   -1.1005 C   0  0  0  0  0  0  0  0  0  0  0  0
    3.9620   -2.8404   -1.6502 C   0  0  0  0  0  0  0  0  0  0  0  0
    4.2078   -2.7656   -3.5337 Br  0  0  0  0  0  0  0  0  0  0  0  0
    4.9411   -2.3098   -0.7829 C   0  0  0  0  0  0  0  0  0  0  0  0
    2.5047   -0.2639    6.0351 C   0  0  2  0  0  0  0  0  0  0  0  0
    1.4882   -1.2371    5.8197 O   0  0  0  0  0  0  0  0  0  0  0  0
    2.1607    0.9730    5.1047 C   0  0  1  0  0  0  0  0  0  0  0  0
    0.7439    1.2618    5.0959 O   0  0  0  0  0  0  0  0  0  0  0  0
    0.0004    0.8333    4.0371 C   0  0  0  0  0  0  0  0  0  0  0  0
   -1.3932    1.3777    4.0233 C   0  0  0  0  0  0  0  0  0  0  0  0
    0.3834    0.1098    3.1170 O   0  0  0  0  0  0  0  0  0  0  0  0
    3.0821    2.2686    5.3103 C   0  0  1  0  0  0  0  0  0  0  0  0
    4.3638    1.8483    4.9201 O   0  0  0  0  0  0  0  0  0  0  0  0
    2.8055    3.4402    4.2883 C   0  0  0  0  0  0  0  0  0  0  0  0
    2.0421    3.3012    3.1788 C   0  0  0  0  0  0  0  0  0  0  0  0
    3.4345    4.8340    4.4753 C   0  0  0  0  0  0  0  0  0  0  0  0
    3.2501    2.6078    6.8759 C   0  0  1  0  0  0  0  0  0  0  0  0
    4.4989    3.5767    7.1344 C   0  0  0  0  0  0  0  0  0  0  0  0
    3.6427    1.2740    7.6430 C   0  0  1  0  0  0  0  0  0  0  0  0
    4.0171    1.5020    8.9963 O   0  0  0  0  0  0  0  0  0  0  0  0
    2.5275    0.1801    7.5657 C   0  0  1  0  0  0  0  0  0  0  0  0
   -0.3796    2.6579    8.1333 C   0  0  0  0  0  0  0  0  0  0  0  0
   -1.4609    2.8457    8.7937 C   0  0  0  0  0  0  0  0  0  0  0  0
   -2.2662    2.7755   10.0630 C   0  0  0  0  0  0  0  0  0  0  0  0
   -3.7779    2.9635    7.4637 H   0  0  0  0  0  0  0  0  0  0  0  0
   -3.7051    2.9522    5.6146 H   0  0  0  0  0  0  0  0  0  0  0  0
   -1.4421    3.6881    5.6161 H   0  0  0  0  0  0  0  0  0  0  0  0
    0.9265    4.1191    5.7664 H   0  0  0  0  0  0  0  0  0  0  0  0
    1.8079    5.2671    6.8523 H   0  0  0  0  0  0  0  0  0  0  0  0
    2.7574    3.2739    9.2471 H   0  0  0  0  0  0  0  0  0  0  0  0
   -0.7746    0.1905    8.6478 H   0  0  0  0  0  0  0  0  0  0  0  0
    0.1542   -1.0734    7.9510 H   0  0  0  0  0  0  0  0  0  0  0  0
    0.3803    0.1710   10.7333 H   0  0  0  0  0  0  0  0  0  0  0  0
    0.0945   -1.5272   10.3504 H   0  0  0  0  0  0  0  0  0  0  0  0
    2.1242   -1.9485    8.0665 H   0  0  0  0  0  0  0  0  0  0  0  0
    5.0335   -1.0258    8.2817 H   0  0  0  0  0  0  0  0  0  0  0  0
    4.3787   -2.5812    8.6900 H   0  0  0  0  0  0  0  0  0  0  0  0
    6.4623   -1.6634    6.5545 H   0  0  0  0  0  0  0  0  0  0  0  0
    6.0609   -2.7980    5.2811 H   0  0  0  0  0  0  0  0  0  0  0  0
    6.1925   -3.3517    6.9395 H   0  0  0  0  0  0  0  0  0  0  0  0
    4.7150   -4.3446    4.6392 H   0  0  0  0  0  0  0  0  0  0  0  0
    3.0530   -3.8766    4.2710 H   0  0  0  0  0  0  0  0  0  0  0  0
    3.3894   -5.3725    5.1424 H   0  0  0  0  0  0  0  0  0  0  0  0
    4.6932   -0.3575    5.6222 H   0  0  0  0  0  0  0  0  0  0  0  0
    6.5047   -0.8899    3.2701 H   0  0  0  0  0  0  0  0  0  0  0  0
    6.8270   -2.0776    1.2193 H   0  0  0  0  0  0  0  0  0  0  0  0
    3.3137   -3.1325    2.1063 H   0  0  0  0  0  0  0  0  0  0  0  0
    2.0610   -3.8763   -1.7314 H   0  0  0  0  0  0  0  0  0  0  0  0
    5.8251   -1.8432   -1.1765 H   0  0  0  0  0  0  0  0  0  0  0  0
    1.7321   -2.0416    6.2546 H   0  0  0  0  0  0  0  0  0  0  0  0
    2.3558    0.6206    4.1216 H   0  0  0  0  0  0  0  0  0  0  0  0
   -1.3136    2.4433    3.8350 H   0  0  0  0  0  0  0  0  0  0  0  0
   -1.8567    1.1749    4.9885 H   0  0  0  0  0  0  0  0  0  0  0  0
   -1.9796    0.9419    3.2094 H   0  0  0  0  0  0  0  0  0  0  0  0
    4.3909    1.8020    3.9746 H   0  0  0  0  0  0  0  0  0  0  0  0
    1.6215    2.3777    2.8172 H   0  0  0  0  0  0  0  0  0  0  0  0
    1.8369    4.1795    2.5767 H   0  0  0  0  0  0  0  0  0  0  0  0
    3.1612    5.3440    5.3897 H   0  0  0  0  0  0  0  0  0  0  0  0
    3.0566    5.5039    3.6822 H   0  0  0  0  0  0  0  0  0  0  0  0
    4.5377    4.7628    4.4241 H   0  0  0  0  0  0  0  0  0  0  0  0
    5.3722    3.3089    6.5334 H   0  0  0  0  0  0  0  0  0  0  0  0
    4.8496    3.5493    8.1719 H   0  0  0  0  0  0  0  0  0  0  0  0
    4.3095    4.6336    6.9761 H   0  0  0  0  0  0  0  0  0  0  0  0
    4.5651    0.9074    7.2139 H   0  0  0  0  0  0  0  0  0  0  0  0
    3.2355    1.6422    9.5016 H   0  0  0  0  0  0  0  0  0  0  0  0
   -2.2889    3.7707   10.5264 H   0  0  0  0  0  0  0  0  0  0  0  0
   -2.0089    2.0388   10.8307 H   0  0  0  0  0  0  0  0  0  0  0  0
   -3.2956    2.6561    9.7504 H   0  0  0  0  0  0  0  0  0  0  0  0
  1  2  2  0
  1 55  1  0
  1 56  1  0
  3  2  1  6
  2 57  1  0
  3 52  1  0
  3 53  1  0
  3  4  1  0
  4  5  2  0
  4  6  1  0
  6  7  1  0
  6 58  1  0
  6 59  1  0
  7 47  1  0
  7  8  1  1
  7  9  1  0
  8 60  1  0
  9 10  2  0
  9 52  1  0
 51 10  1  1
 10 11  1  0
 11 12  1  0
 11 61  1  0
 11 62  1  0
 13 12  1  6
 12 63  1  0
 12 64  1  0
 13 14  2  0
 13 15  1  0
 15 51  1  0
 15 16  1  0
 15 65  1  6
 16 17  1  0
 16 66  1  0
 16 67  1  0
 17 18  1  6
 17 19  1  0
 17 22  1  0
 18 68  1  0
 18 69  1  0
 18 70  1  0
 19 20  1  0
 19 21  2  0
 20 71  1  0
 20 72  1  0
 20 73  1  0
 22 23  1  0
 22 35  1  0
 22 74  1  6
 23 24  1  0
 24 25  2  0
 24 26  1  0
 26 27  2  3
 26 75  1  0
 27 28  1  0
 27 76  1  0
 28 34  1  0
 28 29  2  0
 29 30  1  0
 29 77  1  0
 30 31  2  0
 31 32  1  0
 31 78  1  0
 32 33  1  0
 32 34  2  0
 34 79  1  0
 35 51  1  0
 35 36  1  1
 35 37  1  0
 36 80  1  0
 37 38  1  0
 37 42  1  0
 37 81  1  6
 38 39  1  0
 39 40  1  0
 39 41  2  0
 40 82  1  0
 40 83  1  0
 40 84  1  0
 42 43  1  6
 42 44  1  0
 42 47  1  0
 43 85  1  0
 44 45  2  0
 44 46  1  0
 45 86  1  0
 45 87  1  0
 46 88  1  0
 46 89  1  0
 46 90  1  0
 47 48  1  6
 47 49  1  0
 48 91  1  0
 48 92  1  0
 48 93  1  0
 49 50  1  0
 49 51  1  0
 49 94  1  6
 50 95  1  0
 52 53  2  0
 53 54  1  0
 54 96  1  0
 54 97  1  0
 54 98  1  0
M  END
>  <i_m_ct_stereo_status>  (129) 
1

>  <s_m_source_file>  (129) 
/var/tmp/pbs.5075288.sched01/tmpd529dnjr/198klec4xt1.sdf

>  <i_m_source_file_index>  (129) 
30

>  <i_lp_mmshare_version>  (129) 
48012

>  <i_f3d_flags>  (129) 
0

>  <s_epik_input>  (129) 
W0NIM11DMT1DMkMxKFtDSF09W0NIMl0pQyg9TylbQ0gyXVtDQEBdKFtPSF0pKEMyPUMzW0NAQF00NTYpW0NAQF0oW0NIM10pKFtDQEhdNltPSF0pW0NAXShbT0hdKShDKD1bQ0gyXSlbQ0gzXSlbQ0BIXShPQyg9TylbQ0gzXSlbQ0BAXTUoW09IXSlbQ0BASF0oW0NAXShbQ0gzXSkoQyg9TylbQ0gzXSlbQ0gyXVtDQEhdNFtTK10oW08tXSlbQ0gyXVtDSDJdMylPQyg9TykvW0NIXT1bQ0hdL2M3W2NIXW5bY0hdYyhCcilbY0hdNw==

>  <s_epik_cmdline>  (129) 
J2VwaWtfcHl0aG9uJywgJy1waHQnLCAnMi4wJywgJy1waCcsICc3LjAnLCAnLXRuJywgJzgnLCAnLW1hJywgJzIwMCcsICctaW1hZScsICc8aW5maWxlLm1hZT4nLCAnLW9tYWUnLCAnPG91dGZpbGUubWFlPic=

>  <r_lp_tautomer_probability>  (129) 
1

>  <r_epik_Ionization_Penalty>  (129) 
2.15316e-05

>  <r_epik_Ionization_Penalty_Charging>  (129) 
0

>  <r_epik_Ionization_Penalty_Neutral>  (129) 
2.15316e-05

>  <r_epik_State_Penalty>  (129) 
-0

>  <r_epik_Charging_Adjusted_Penalty>  (129) 
0

>  <i_epik_Tot_Q>  (129) 
0

>  <i_epik_Tot_abs_Q>  (129) 
2

>  <s_epik_Chemistry_Notes>  (129) 
This compound has an ester and may undergo hydrolysis at high or low pH.

>  <s_lp_Force_Field>  (129) 
OPLS3e

>  <r_lp_Energy>  (129) 
96.049

>  <b_lp_Chiralities_Consistent>  (129) 
1

>  <s_lp_Variant>  (129) 
87:0-2

>  <s_i_glide_gridfile>  (129) 
pfpi4k_grid

>  <i_i_glide_lignum>  (129) 
30

>  <i_i_glide_rotatable_bonds>  (129) 
13

>  <r_i_docking_score>  (129) 
-1.95409

>  <r_i_glide_ligand_efficiency>  (129) 
-0.0361868

>  <r_i_glide_ligand_efficiency_sa>  (129) 
-0.136778

>  <r_i_glide_ligand_efficiency_ln>  (129) 
-0.391681

>  <r_i_glide_gscore>  (129) 
-1.95409

>  <r_i_glide_lipo>  (129) 
-0.68254

>  <r_i_glide_hbond>  (129) 
0

>  <r_i_glide_metal>  (129) 
-0

>  <r_i_glide_rewards>  (129) 
-0.561668

>  <r_i_glide_evdw>  (129) 
-37.4999

>  <r_i_glide_ecoul>  (129) 
-1.11468

>  <r_i_glide_erotb>  (129) 
0.191859

>  <r_i_glide_esite>  (129) 
-0.0178115

>  <r_i_glide_emodel>  (129) 
-31.492

>  <r_i_glide_energy>  (129) 
-38.6146

>  <r_i_glide_einternal>  (129) 
22.6588

>  <r_i_glide_intrahb_reward>  (129) 
-0.5

>  <i_i_glide_confnum>  (129) 
2

>  <i_i_glide_posenum>  (129) 
24

>  <r_i_glide_eff_state_penalty>  (129) 
0

>  <ligand_id>  (129) 
87

>  <original_smiles>  (129) 
C=CC12C(=O)CC3(O)C(=C4CC[S+]([O-])C5CC(C)(C(C)=O)C(OC(=O)C=Cc6cncc(Br)c6)C6(O)C(OC(C)=O)C(O)(C(=C)C)C3(C)C(O)C456)C1=C2C

>  <smiles>  (129) 
[H]OC1([H])C23C4=C5C6=C(C([H])([H])[H])C6(C([H])=C([H])[H])C(=O)C([H])([H])C5(O[H])C1(C([H])([H])[H])C(O[H])(C(=C([H])[H])C([H])([H])[H])C([H])(OC(=O)C([H])([H])[H])C2(O[H])C([H])(OC(=O)C([H])=C([H])c1c([H])nc([H])c(Br)c1[H])C(C(=O)C([H])([H])[H])(C([H])([H])[H])C([H])([H])C3([H])S(=O)C([H])([H])C4([H])[H]

$$$$
88:0:0
     RDKit          3D

136146  0  0  1  0  0  0  0  0999 V2000
   -0.7659    2.0626    6.0619 C   0  0  0  0  0  0  0  0  0  0  0  0
   -0.0593    1.0858    5.4810 C   0  0  0  0  0  0  0  0  0  0  0  0
   -0.6792   -0.2815    5.2633 C   0  0  0  0  0  0  0  0  0  0  0  0
    1.3521    1.3282    4.9435 C   0  0  1  0  0  0  0  0  0  0  0  0
    1.8602    2.6489    5.2343 O   0  0  0  0  0  0  0  0  0  0  0  0
    3.1866    2.1053    5.2011 C   0  0  1  0  0  0  0  0  0  0  0  0
    4.1038    2.6775    6.1119 O   0  0  0  0  0  0  0  0  0  0  0  0
    4.3198    4.0634    5.9108 C   0  0  0  0  0  0  0  0  0  0  0  0
    5.4152    4.5622    6.8617 C   0  0  0  0  0  0  0  0  0  0  0  0
    2.6455    0.6662    5.5336 C   0  0  1  0  0  0  0  0  0  0  0  0
    2.6580    0.3744    7.1594 C   0  0  2  0  0  0  0  0  0  0  0  0
    2.1857    1.6370    7.9647 C   0  0  0  0  0  0  0  0  0  0  0  0
    4.0570    0.0655    7.8216 C   0  0  0  0  0  0  0  0  0  0  0  0
    4.0165   -1.0807    8.8936 C   0  0  1  0  0  0  0  0  0  0  0  0
    5.2216   -1.1183    9.6148 O   0  0  0  0  0  0  0  0  0  0  0  0
    2.8870   -0.6661    9.7030 O   0  0  0  0  0  0  0  0  0  0  0  0
    2.0375   -1.5451    8.8994 C   0  0  1  0  0  0  0  0  0  0  0  0
    0.8373   -1.9930    9.8411 C   0  0  0  0  0  0  0  0  0  0  0  0
   -0.0856   -3.0963    9.3113 C   0  0  0  0  0  0  0  0  0  0  0  0
   -0.0408   -0.8409   10.3629 C   0  0  0  0  0  0  0  0  0  0  0  0
    1.6306   -0.7130    7.6338 C   0  0  0  0  0  0  0  0  0  0  0  0
    3.2697   -2.4712    8.7165 C   0  0  2  0  0  0  0  0  0  0  0  0
    3.4574   -3.3091    9.8372 O   0  0  0  0  0  0  0  0  0  0  0  0
    3.3927   -3.4102    7.4624 C   0  0  2  0  0  0  0  0  0  0  0  0
    1.9783   -3.9320    7.0437 C   0  0  0  0  0  0  0  0  0  0  0  0
    4.4469   -4.5740    7.5885 C   0  0  1  0  0  0  0  0  0  0  0  0
    3.8351   -5.8924    7.4625 O   0  0  0  0  0  0  0  0  0  0  0  0
    4.4790   -6.0550    6.1632 C   0  0  2  0  0  0  0  0  0  0  0  0
    5.1974   -4.8236    6.3636 O   0  0  0  0  0  0  0  0  0  0  0  0
    3.4912   -6.1201    4.9340 C   0  0  2  0  0  0  0  0  0  0  0  0
    2.8196   -7.5556    4.8811 C   0  0  0  0  0  0  0  0  0  0  0  0
    2.3466   -8.0387    6.2744 C   0  0  0  0  0  0  0  0  0  0  0  0
    1.5419   -7.6416    4.0071 C   0  0  0  0  0  0  0  0  0  0  0  0
    3.8660   -8.5748    4.3783 C   0  0  0  0  0  0  0  0  0  0  0  0
    4.6077   -8.1122    3.1218 C   0  0  0  0  0  0  0  0  0  0  0  0
    5.2018   -6.7032    3.3021 C   0  0  1  0  0  0  0  0  0  0  0  0
    6.1494   -6.5572    2.2773 O   0  0  0  0  0  0  0  0  0  0  0  0
    4.0976   -5.5920    3.5543 C   0  0  2  0  0  0  0  0  0  0  0  0
    4.6114   -4.0987    3.5262 C   0  0  1  0  0  0  0  0  0  0  0  0
    5.3883   -3.9794    2.2911 O   0  0  0  0  0  0  0  0  0  0  0  0
    4.7817   -4.0764    0.9955 C   0  0  2  0  0  0  0  0  0  0  0  0
    5.8440   -4.4942   -0.0707 C   0  0  0  0  0  0  0  0  0  0  0  0
    6.9837   -3.4751   -0.1417 C   0  0  0  0  0  0  0  0  0  0  0  0
    6.4264   -2.0928   -0.4353 C   0  0  1  0  0  0  0  0  0  0  0  0
    5.8286   -1.9677   -1.8493 C   0  0  0  0  0  0  0  0  0  0  0  0
    5.3547   -1.7856    0.5925 C   0  0  0  0  0  0  0  0  0  0  0  0
    4.3303   -2.8017    0.5998 O   0  0  0  0  0  0  0  0  0  0  0  0
    3.5643   -5.0741    1.0018 C   0  0  1  0  0  0  0  0  0  0  0  0
    2.4923   -4.6451   -0.0365 C   0  0  0  0  0  0  0  0  0  0  0  0
    3.9166   -6.3360    0.4973 O   0  0  0  0  0  0  0  0  0  0  0  0
    3.0124   -5.2840    2.4550 C   0  0  2  0  0  0  0  0  0  0  0  0
    2.2772   -4.0239    2.9906 C   0  0  0  0  0  0  0  0  0  0  0  0
    3.3872   -3.0685    3.4891 C   0  0  1  0  0  0  0  0  0  0  0  0
    3.0015   -2.0191    4.6568 C   0  0  1  0  0  0  0  0  0  0  0  0
    4.1001   -2.3540    6.1129 S   0  0  0  0  0  0  0  0  0  0  0  0
    5.6196   -2.2649    5.9580 O   0  0  0  0  0  0  0  0  0  0  0  0
    3.1185   -0.4164    4.3922 C   0  0  2  0  0  0  0  0  0  0  0  0
    4.6366   -0.1815    4.0671 C   0  0  0  0  0  0  0  0  0  0  0  0
    2.1963    0.0411    3.1409 C   0  0  0  0  0  0  0  0  0  0  0  0
    2.8640    0.7723    1.9564 C   0  0  0  0  0  0  0  0  0  0  0  0
    1.2265   -0.9801    2.5102 C   0  0  0  0  0  0  0  0  0  0  0  0
    1.3311    1.0743    3.5710 O   0  0  0  0  0  0  0  0  0  0  0  0
   -1.7753    1.8902    6.3989 H   0  0  0  0  0  0  0  0  0  0  0  0
   -0.3576    3.0587    6.1913 H   0  0  0  0  0  0  0  0  0  0  0  0
   -0.9804   -0.3557    4.2269 H   0  0  0  0  0  0  0  0  0  0  0  0
   -1.5689   -0.4149    5.8778 H   0  0  0  0  0  0  0  0  0  0  0  0
   -0.0057   -1.1098    5.4587 H   0  0  0  0  0  0  0  0  0  0  0  0
    3.5891    2.2142    4.2099 H   0  0  0  0  0  0  0  0  0  0  0  0
    4.6146    4.2684    4.8822 H   0  0  0  0  0  0  0  0  0  0  0  0
    3.3990    4.6134    6.0958 H   0  0  0  0  0  0  0  0  0  0  0  0
    5.6071    5.6265    6.7244 H   0  0  0  0  0  0  0  0  0  0  0  0
    6.3488    4.0335    6.6790 H   0  0  0  0  0  0  0  0  0  0  0  0
    5.1333    4.4046    7.8999 H   0  0  0  0  0  0  0  0  0  0  0  0
    1.9449    1.3981    8.9917 H   0  0  0  0  0  0  0  0  0  0  0  0
    1.2973    2.1021    7.5693 H   0  0  0  0  0  0  0  0  0  0  0  0
    2.9285    2.4276    8.0539 H   0  0  0  0  0  0  0  0  0  0  0  0
    4.8335   -0.1229    7.0922 H   0  0  0  0  0  0  0  0  0  0  0  0
    4.4693    0.9680    8.2801 H   0  0  0  0  0  0  0  0  0  0  0  0
    5.9144   -1.3762    9.0121 H   0  0  0  0  0  0  0  0  0  0  0  0
    1.2708   -2.4056   10.7559 H   0  0  0  0  0  0  0  0  0  0  0  0
   -0.5899   -2.7923    8.3936 H   0  0  0  0  0  0  0  0  0  0  0  0
   -0.8692   -3.3413   10.0296 H   0  0  0  0  0  0  0  0  0  0  0  0
    0.5265   -3.9574    9.0187 H   0  0  0  0  0  0  0  0  0  0  0  0
   -0.5815   -0.3328    9.5655 H   0  0  0  0  0  0  0  0  0  0  0  0
    0.5383   -0.0997   10.9203 H   0  0  0  0  0  0  0  0  0  0  0  0
   -0.7842   -1.2434   11.0539 H   0  0  0  0  0  0  0  0  0  0  0  0
    0.6637   -0.2690    7.8109 H   0  0  0  0  0  0  0  0  0  0  0  0
    1.5178   -1.3614    6.7942 H   0  0  0  0  0  0  0  0  0  0  0  0
    3.4651   -2.6972   10.5691 H   0  0  0  0  0  0  0  0  0  0  0  0
    1.7407   -4.9025    7.4872 H   0  0  0  0  0  0  0  0  0  0  0  0
    1.8629   -4.0015    5.9662 H   0  0  0  0  0  0  0  0  0  0  0  0
    1.1717   -3.3311    7.3993 H   0  0  0  0  0  0  0  0  0  0  0  0
    5.1284   -4.5244    8.4572 H   0  0  0  0  0  0  0  0  0  0  0  0
    5.1779   -6.8881    6.2067 H   0  0  0  0  0  0  0  0  0  0  0  0
    2.6772   -5.4933    5.1524 H   0  0  0  0  0  0  0  0  0  0  0  0
    1.8052   -8.9808    6.2067 H   0  0  0  0  0  0  0  0  0  0  0  0
    1.6915   -7.3124    6.7471 H   0  0  0  0  0  0  0  0  0  0  0  0
    3.1775   -8.2318    6.9481 H   0  0  0  0  0  0  0  0  0  0  0  0
    0.8545   -8.4180    4.3428 H   0  0  0  0  0  0  0  0  0  0  0  0
    1.7688   -7.9184    2.9812 H   0  0  0  0  0  0  0  0  0  0  0  0
    0.9838   -6.7072    4.0098 H   0  0  0  0  0  0  0  0  0  0  0  0
    4.6084   -8.7736    5.1551 H   0  0  0  0  0  0  0  0  0  0  0  0
    3.3892   -9.5315    4.1743 H   0  0  0  0  0  0  0  0  0  0  0  0
    5.4096   -8.8204    2.9241 H   0  0  0  0  0  0  0  0  0  0  0  0
    3.9532   -8.1560    2.2527 H   0  0  0  0  0  0  0  0  0  0  0  0
    5.8639   -6.7247    4.1708 H   0  0  0  0  0  0  0  0  0  0  0  0
    5.6640   -6.4763    1.4649 H   0  0  0  0  0  0  0  0  0  0  0  0
    5.3569   -3.8893    4.2779 H   0  0  0  0  0  0  0  0  0  0  0  0
    6.3034   -5.4472    0.1343 H   0  0  0  0  0  0  0  0  0  0  0  0
    5.3476   -4.5816   -1.0308 H   0  0  0  0  0  0  0  0  0  0  0  0
    7.5379   -3.4755    0.7995 H   0  0  0  0  0  0  0  0  0  0  0  0
    7.6894   -3.7687   -0.9292 H   0  0  0  0  0  0  0  0  0  0  0  0
    7.2265   -1.3657   -0.2945 H   0  0  0  0  0  0  0  0  0  0  0  0
    4.9575   -2.6072   -1.9812 H   0  0  0  0  0  0  0  0  0  0  0  0
    6.5633   -2.2646   -2.5946 H   0  0  0  0  0  0  0  0  0  0  0  0
    5.4804   -0.9475   -2.0500 H   0  0  0  0  0  0  0  0  0  0  0  0
    5.7938   -1.6754    1.5839 H   0  0  0  0  0  0  0  0  0  0  0  0
    4.9393   -0.8259    0.3046 H   0  0  0  0  0  0  0  0  0  0  0  0
    2.0809   -3.6524    0.1278 H   0  0  0  0  0  0  0  0  0  0  0  0
    1.6686   -5.3632   -0.0942 H   0  0  0  0  0  0  0  0  0  0  0  0
    2.9301   -4.5986   -1.0272 H   0  0  0  0  0  0  0  0  0  0  0  0
    4.0762   -6.2429   -0.4401 H   0  0  0  0  0  0  0  0  0  0  0  0
    2.2762   -6.0633    2.3300 H   0  0  0  0  0  0  0  0  0  0  0  0
    1.6234   -3.5934    2.2410 H   0  0  0  0  0  0  0  0  0  0  0  0
    1.6010   -4.2954    3.7976 H   0  0  0  0  0  0  0  0  0  0  0  0
    3.5820   -2.3915    2.6754 H   0  0  0  0  0  0  0  0  0  0  0  0
    1.9629   -2.1909    4.9184 H   0  0  0  0  0  0  0  0  0  0  0  0
    5.0898   -1.0278    3.5591 H   0  0  0  0  0  0  0  0  0  0  0  0
    5.2371   -0.0262    4.9635 H   0  0  0  0  0  0  0  0  0  0  0  0
    4.8593    0.6802    3.4442 H   0  0  0  0  0  0  0  0  0  0  0  0
    3.6509    0.1695    1.5240 H   0  0  0  0  0  0  0  0  0  0  0  0
    3.2713    1.7484    2.2173 H   0  0  0  0  0  0  0  0  0  0  0  0
    2.1264    0.9666    1.1724 H   0  0  0  0  0  0  0  0  0  0  0  0
    1.7065   -1.5581    1.7208 H   0  0  0  0  0  0  0  0  0  0  0  0
    0.4213   -0.4512    2.0018 H   0  0  0  0  0  0  0  0  0  0  0  0
    0.7397   -1.6458    3.2176 H   0  0  0  0  0  0  0  0  0  0  0  0
  1  2  2  0
  1 63  1  0
  1 64  1  0
  2  3  1  0
  4  2  1  1
  3 65  1  0
  3 66  1  0
  3 67  1  0
 10  4  1  6
  4 62  1  0
  4  5  1  0
  5  6  1  0
  6  7  1  0
  6 10  1  0
  6 68  1  6
  7  8  1  0
  8  9  1  0
  8 69  1  0
  8 70  1  0
  9 71  1  0
  9 72  1  0
  9 73  1  0
 10 57  1  0
 10 11  1  0
 11 21  1  0
 11 12  1  1
 11 13  1  0
 12 74  1  0
 12 75  1  0
 12 76  1  0
 13 14  1  0
 13 77  1  0
 13 78  1  0
 14 22  1  0
 14 15  1  1
 14 16  1  0
 15 79  1  0
 16 17  1  0
 17 18  1  1
 17 21  1  0
 17 22  1  0
 18 19  1  0
 18 20  1  0
 18 80  1  0
 19 81  1  0
 19 82  1  0
 19 83  1  0
 20 84  1  0
 20 85  1  0
 20 86  1  0
 21 87  1  0
 21 88  1  0
 22 23  1  1
 22 24  1  0
 23 89  1  0
 55 24  1  6
 24 25  1  6
 24 26  1  0
 25 90  1  0
 25 91  1  0
 25 92  1  0
 26 29  1  0
 26 27  1  0
 26 93  1  1
 27 28  1  0
 28 29  1  0
 28 30  1  0
 28 94  1  1
 30 38  1  0
 30 31  1  0
 30 95  1  1
 31 32  1  0
 31 33  1  0
 31 34  1  0
 32 96  1  0
 32 97  1  0
 32 98  1  0
 33 99  1  0
 33100  1  0
 33101  1  0
 34 35  1  0
 34102  1  0
 34103  1  0
 35 36  1  0
 35104  1  0
 35105  1  0
 36 37  1  0
 38 36  1  6
 36106  1  1
 37107  1  0
 38 51  1  0
 38 39  1  0
 39 53  1  0
 39 40  1  0
 39108  1  1
 41 40  1  1
 41 47  1  0
 41 42  1  0
 41 48  1  0
 42 43  1  0
 42109  1  0
 42110  1  0
 43 44  1  0
 43111  1  0
 43112  1  0
 44 45  1  0
 44 46  1  0
 44113  1  6
 45114  1  0
 45115  1  0
 45116  1  0
 46 47  1  0
 46117  1  0
 46118  1  0
 48 49  1  0
 48 50  1  6
 48 51  1  0
 49119  1  0
 49120  1  0
 49121  1  0
 50122  1  0
 51 52  1  0
 51123  1  6
 52 53  1  0
 52124  1  0
 52125  1  0
 53 54  1  0
 53126  1  6
 54 55  1  0
 54 57  1  0
 54127  1  1
 55 56  2  0
 57 58  1  6
 57 59  1  0
 58128  1  0
 58129  1  0
 58130  1  0
 59 60  1  0
 59 61  1  0
 59 62  1  0
 60131  1  0
 60132  1  0
 60133  1  0
 61134  1  0
 61135  1  0
 61136  1  0
M  END
>  <i_m_ct_stereo_status>  (130) 
1

>  <s_m_source_file>  (130) 
/var/tmp/pbs.5075288.sched01/tmpd529dnjr/198klec4xt1.sdf

>  <i_m_source_file_index>  (130) 
33

>  <i_lp_mmshare_version>  (130) 
48012

>  <i_f3d_flags>  (130) 
0

>  <s_epik_input>  (130) 
W0NIM11bQ0gyXU9bQ0BASF0xT1tDQEBdKFtDQEBdMTIzKShDKD1bQ0gyXSlbQ0gzXSlPQyhbQ0gzXSkoW0NIM10pW0NAXTMoW0NIM10pW0NASF00W0NASF01W0NASF02W0NAXTcoW0NAQEhdKFtDSDJdNSlbQ0BdKFtDSDNdKShbT0hdKVtDQEBdOChPNilbQ0gyXVtDSDJdW0NAQEhdKFtDSDNdKVtDSDJdTzgpW0NAQEhdKEMoW0NIM10pKFtDSDNdKVtDSDJdW0NIMl1bQ0BIXTdbT0hdKVtDQEBIXTlPW0NAQEhdKE85KVtDQF0oW0NIM10pKFtTK100W08tXSlbQ0BAXTEoW09IXSlbQ0BAXTMoW09IXSlbQ0gyXVtDQF0yKFtDSDNdKVtDSDJdW0NAQF0xKE8zKVtDSF0oW0NIM10pW0NIM10=

>  <s_epik_cmdline>  (130) 
J2VwaWtfcHl0aG9uJywgJy1waHQnLCAnMi4wJywgJy1waCcsICc3LjAnLCAnLXRuJywgJzgnLCAnLW1hJywgJzIwMCcsICctaW1hZScsICc8aW5maWxlLm1hZT4nLCAnLW9tYWUnLCAnPG91dGZpbGUubWFlPic=

>  <r_lp_tautomer_probability>  (130) 
1

>  <r_epik_Ionization_Penalty>  (130) 
1.1743e-06

>  <r_epik_Ionization_Penalty_Charging>  (130) 
0

>  <r_epik_Ionization_Penalty_Neutral>  (130) 
1.1743e-06

>  <r_epik_State_Penalty>  (130) 
-0

>  <r_epik_Charging_Adjusted_Penalty>  (130) 
0

>  <i_epik_Tot_Q>  (130) 
0

>  <i_epik_Tot_abs_Q>  (130) 
2

>  <s_epik_Chemistry_Notes>  (130) 
This compound contains an acetal/aminal-like group ( X-CH(R)-Y where X, Y are N, S, or O) that may be acid/base labile, releasing an aldehyde.

>  <s_lp_Force_Field>  (130) 
OPLS3e

>  <r_lp_Energy>  (130) 
233.062

>  <b_lp_Chiralities_Consistent>  (130) 
1

>  <s_lp_Variant>  (130) 
88:0-1

>  <s_i_glide_gridfile>  (130) 
pfpi4k_grid

>  <i_i_glide_lignum>  (130) 
33

>  <i_i_glide_rotatable_bonds>  (130) 
8

>  <r_i_docking_score>  (130) 
-2.75132

>  <r_i_glide_ligand_efficiency>  (130) 
-0.0443761

>  <r_i_glide_ligand_efficiency_sa>  (130) 
-0.175636

>  <r_i_glide_ligand_efficiency_ln>  (130) 
-0.536619

>  <r_i_glide_gscore>  (130) 
-2.75132

>  <r_i_glide_lipo>  (130) 
-0.400659

>  <r_i_glide_hbond>  (130) 
0

>  <r_i_glide_metal>  (130) 
-0

>  <r_i_glide_rewards>  (130) 
-0.544252

>  <r_i_glide_evdw>  (130) 
-29.8614

>  <r_i_glide_ecoul>  (130) 
-2.43686

>  <r_i_glide_erotb>  (130) 
0.055475

>  <r_i_glide_esite>  (130) 
-0.00328265

>  <r_i_glide_emodel>  (130) 
-38.6791

>  <r_i_glide_energy>  (130) 
-32.2983

>  <r_i_glide_einternal>  (130) 
1.20566

>  <r_i_glide_intrahb_reward>  (130) 
-0.5

>  <i_i_glide_confnum>  (130) 
1

>  <i_i_glide_posenum>  (130) 
10

>  <r_i_glide_eff_state_penalty>  (130) 
0

>  <ligand_id>  (130) 
88

>  <original_smiles>  (130) 
C=C(C)C12OC(OCC)C13C1(C)CC4(O)OC(C(C)C)(C1)C4(O)C1(C)C4OC(O4)C4C(C)(C)CCC(O)C45C4OC6(CCC(C)CO6)C(C)(O)C5CC4C([S+]1[O-])C3(C)C(C)(C)O2

>  <smiles>  (130) 
[H]OC1([H])C([H])([H])C([H])([H])C(C([H])([H])[H])(C([H])([H])[H])C2([H])C3([H])OC([H])(O3)C3(C([H])([H])[H])S(=O)C([H])(C4([H])C([H])([H])C5([H])C(O[H])(C([H])([H])[H])C6(OC([H])([H])C([H])(C([H])([H])[H])C([H])([H])C6([H])[H])OC4([H])C152)C1(C([H])([H])[H])C(C([H])([H])[H])(C([H])([H])[H])OC2(C(=C([H])[H])C([H])([H])[H])OC([H])(OC([H])([H])C([H])([H])[H])C21C1(C([H])([H])[H])C([H])([H])C2(O[H])OC(C([H])(C([H])([H])[H])C([H])([H])[H])(C1([H])[H])C23O[H]

$$$$
88:0:1
     RDKit          3D

136146  0  0  1  0  0  0  0  0999 V2000
    4.4366    0.6041    5.4354 C   0  0  0  0  0  0  0  0  0  0  0  0
    4.2512   -0.7301    5.2767 C   0  0  0  0  0  0  0  0  0  0  0  0
    3.5535   -1.2572    4.0384 C   0  0  0  0  0  0  0  0  0  0  0  0
    4.8162   -1.7255    6.2817 C   0  0  1  0  0  0  0  0  0  0  0  0
    5.3352   -1.1004    7.4711 O   0  0  0  0  0  0  0  0  0  0  0  0
    5.0550   -2.3166    8.1822 C   0  0  1  0  0  0  0  0  0  0  0  0
    4.6768   -2.1038    9.5513 O   0  0  0  0  0  0  0  0  0  0  0  0
    4.6369   -3.2443   10.4212 C   0  0  0  0  0  0  0  0  0  0  0  0
    6.0494   -3.7938   10.7384 C   0  0  0  0  0  0  0  0  0  0  0  0
    3.9587   -2.7261    7.1324 C   0  0  1  0  0  0  0  0  0  0  0  0
    2.4676   -2.1999    7.6170 C   0  0  2  0  0  0  0  0  0  0  0  0
    2.5413   -0.7535    8.2200 C   0  0  0  0  0  0  0  0  0  0  0  0
    1.7490   -3.0213    8.7521 C   0  0  0  0  0  0  0  0  0  0  0  0
    0.2310   -3.2451    8.5292 C   0  0  1  0  0  0  0  0  0  0  0  0
   -0.3499   -3.7562    9.7051 O   0  0  0  0  0  0  0  0  0  0  0  0
   -0.1671   -1.9076    8.2069 O   0  0  0  0  0  0  0  0  0  0  0  0
   -0.0620   -2.2320    6.7984 C   0  0  1  0  0  0  0  0  0  0  0  0
   -1.0814   -1.3390    5.9719 C   0  0  0  0  0  0  0  0  0  0  0  0
   -1.0027   -1.3456    4.4379 C   0  0  0  0  0  0  0  0  0  0  0  0
   -1.1140    0.1392    6.3963 C   0  0  0  0  0  0  0  0  0  0  0  0
    1.4420   -1.9925    6.4599 C   0  0  0  0  0  0  0  0  0  0  0  0
   -0.4260   -3.7015    7.1516 C   0  0  2  0  0  0  0  0  0  0  0  0
   -1.8338   -3.8721    7.2167 O   0  0  0  0  0  0  0  0  0  0  0  0
    0.1339   -4.8930    6.2811 C   0  0  2  0  0  0  0  0  0  0  0  0
    0.2456   -4.5096    4.7872 C   0  0  0  0  0  0  0  0  0  0  0  0
   -0.5772   -6.2475    6.4752 C   0  0  1  0  0  0  0  0  0  0  0  0
   -1.2656   -6.6973    5.2838 O   0  0  0  0  0  0  0  0  0  0  0  0
   -0.3608   -7.8202    5.1903 C   0  0  2  0  0  0  0  0  0  0  0  0
    0.2281   -7.4378    6.4235 O   0  0  0  0  0  0  0  0  0  0  0  0
    0.5969   -7.7653    3.9493 C   0  0  2  0  0  0  0  0  0  0  0  0
   -0.1902   -8.2520    2.6671 C   0  0  0  0  0  0  0  0  0  0  0  0
   -1.6236   -7.6764    2.6041 C   0  0  0  0  0  0  0  0  0  0  0  0
    0.4696   -7.8234    1.3311 C   0  0  0  0  0  0  0  0  0  0  0  0
   -0.3522   -9.7804    2.7216 C   0  0  0  0  0  0  0  0  0  0  0  0
    0.9403  -10.5266    3.0638 C   0  0  0  0  0  0  0  0  0  0  0  0
    1.6143   -9.9581    4.3306 C   0  0  1  0  0  0  0  0  0  0  0  0
    2.5137  -10.9121    4.8495 O   0  0  0  0  0  0  0  0  0  0  0  0
    2.0335   -8.4312    4.1721 C   0  0  2  0  0  0  0  0  0  0  0  0
    2.9138   -7.8440    5.3489 C   0  0  1  0  0  0  0  0  0  0  0  0
    3.9910   -8.7953    5.5231 O   0  0  0  0  0  0  0  0  0  0  0  0
    4.9970   -9.0130    4.5469 C   0  0  2  0  0  0  0  0  0  0  0  0
    5.6229  -10.4424    4.7226 C   0  0  0  0  0  0  0  0  0  0  0  0
    6.2726  -10.5846    6.0981 C   0  0  0  0  0  0  0  0  0  0  0  0
    7.3064   -9.4852    6.3000 C   0  0  1  0  0  0  0  0  0  0  0  0
    8.5310   -9.6299    5.3788 C   0  0  0  0  0  0  0  0  0  0  0  0
    6.6317   -8.1505    6.0364 C   0  0  0  0  0  0  0  0  0  0  0  0
    6.0484   -8.1166    4.7239 O   0  0  0  0  0  0  0  0  0  0  0  0
    4.4188   -8.8239    3.0830 C   0  0  1  0  0  0  0  0  0  0  0  0
    5.5150   -8.3392    2.1018 C   0  0  0  0  0  0  0  0  0  0  0  0
    4.1223  -10.0357    2.4548 O   0  0  0  0  0  0  0  0  0  0  0  0
    3.1060   -7.9942    3.0978 C   0  0  2  0  0  0  0  0  0  0  0  0
    3.3713   -6.5039    3.4067 C   0  0  0  0  0  0  0  0  0  0  0  0
    3.5181   -6.4200    4.9417 C   0  0  1  0  0  0  0  0  0  0  0  0
    3.1720   -5.0086    5.6371 C   0  0  1  0  0  0  0  0  0  0  0  0
    1.8198   -5.2965    6.8767 S   0  0  0  0  0  0  0  0  0  0  0  0
    1.9717   -6.3222    8.0016 O   0  0  0  0  0  0  0  0  0  0  0  0
    4.2907   -4.2050    6.4760 C   0  0  2  0  0  0  0  0  0  0  0  0
    4.7066   -5.2336    7.5888 C   0  0  0  0  0  0  0  0  0  0  0  0
    5.5718   -3.8595    5.5586 C   0  0  0  0  0  0  0  0  0  0  0  0
    6.9510   -4.3912    6.0514 C   0  0  0  0  0  0  0  0  0  0  0  0
    5.4819   -4.1399    4.0396 C   0  0  0  0  0  0  0  0  0  0  0  0
    5.8131   -2.4706    5.6228 O   0  0  0  0  0  0  0  0  0  0  0  0
    4.0492    1.2896    4.7070 H   0  0  0  0  0  0  0  0  0  0  0  0
    4.9677    1.0069    6.2869 H   0  0  0  0  0  0  0  0  0  0  0  0
    4.3015   -1.6148    3.3366 H   0  0  0  0  0  0  0  0  0  0  0  0
    2.9689   -0.4731    3.5546 H   0  0  0  0  0  0  0  0  0  0  0  0
    2.8940   -2.0990    4.2167 H   0  0  0  0  0  0  0  0  0  0  0  0
    5.9504   -2.9124    8.1348 H   0  0  0  0  0  0  0  0  0  0  0  0
    4.1469   -2.9429   11.3611 H   0  0  0  0  0  0  0  0  0  0  0  0
    4.0120   -4.0389   10.0529 H   0  0  0  0  0  0  0  0  0  0  0  0
    5.9689   -4.6866   11.3689 H   0  0  0  0  0  0  0  0  0  0  0  0
    6.6447   -3.0380   11.2523 H   0  0  0  0  0  0  0  0  0  0  0  0
    6.6153   -4.1122    9.8568 H   0  0  0  0  0  0  0  0  0  0  0  0
    1.5614   -0.2972    8.2973 H   0  0  0  0  0  0  0  0  0  0  0  0
    3.1308   -0.0635    7.6316 H   0  0  0  0  0  0  0  0  0  0  0  0
    2.9195   -0.6990    9.2358 H   0  0  0  0  0  0  0  0  0  0  0  0
    2.2049   -3.9827    8.9357 H   0  0  0  0  0  0  0  0  0  0  0  0
    1.9107   -2.5395    9.7197 H   0  0  0  0  0  0  0  0  0  0  0  0
    0.0611   -3.2921   10.4379 H   0  0  0  0  0  0  0  0  0  0  0  0
   -2.0890   -1.6960    6.1631 H   0  0  0  0  0  0  0  0  0  0  0  0
   -0.0147   -1.0603    4.0721 H   0  0  0  0  0  0  0  0  0  0  0  0
   -1.7407   -0.6528    4.0210 H   0  0  0  0  0  0  0  0  0  0  0  0
   -1.2421   -2.3202    4.0532 H   0  0  0  0  0  0  0  0  0  0  0  0
   -0.1861    0.6551    6.1450 H   0  0  0  0  0  0  0  0  0  0  0  0
   -1.3202    0.2882    7.4565 H   0  0  0  0  0  0  0  0  0  0  0  0
   -1.9185    0.6379    5.8482 H   0  0  0  0  0  0  0  0  0  0  0  0
    1.5493   -1.0168    5.9986 H   0  0  0  0  0  0  0  0  0  0  0  0
    1.7693   -2.7208    5.7568 H   0  0  0  0  0  0  0  0  0  0  0  0
   -1.9869   -4.7131    7.6556 H   0  0  0  0  0  0  0  0  0  0  0  0
   -0.5655   -4.8801    4.2136 H   0  0  0  0  0  0  0  0  0  0  0  0
    1.0662   -4.9211    4.2455 H   0  0  0  0  0  0  0  0  0  0  0  0
    0.2855   -3.4668    4.6422 H   0  0  0  0  0  0  0  0  0  0  0  0
   -1.2348   -6.2517    7.3479 H   0  0  0  0  0  0  0  0  0  0  0  0
   -0.9138   -8.7491    5.2974 H   0  0  0  0  0  0  0  0  0  0  0  0
    0.7754   -6.7434    3.7580 H   0  0  0  0  0  0  0  0  0  0  0  0
   -2.1116   -7.9829    1.6772 H   0  0  0  0  0  0  0  0  0  0  0  0
   -1.5981   -6.5961    2.6589 H   0  0  0  0  0  0  0  0  0  0  0  0
   -2.2680   -8.0264    3.4148 H   0  0  0  0  0  0  0  0  0  0  0  0
   -0.2566   -7.7273    0.5272 H   0  0  0  0  0  0  0  0  0  0  0  0
    1.1799   -8.5736    0.9901 H   0  0  0  0  0  0  0  0  0  0  0  0
    1.0013   -6.8779    1.4012 H   0  0  0  0  0  0  0  0  0  0  0  0
   -1.0902  -10.0282    3.4805 H   0  0  0  0  0  0  0  0  0  0  0  0
   -0.7688  -10.1616    1.7882 H   0  0  0  0  0  0  0  0  0  0  0  0
    0.6854  -11.5759    3.2271 H   0  0  0  0  0  0  0  0  0  0  0  0
    1.6156  -10.4989    2.2102 H   0  0  0  0  0  0  0  0  0  0  0  0
    0.8773  -10.0054    5.1334 H   0  0  0  0  0  0  0  0  0  0  0  0
    3.0227  -11.3431    4.1857 H   0  0  0  0  0  0  0  0  0  0  0  0
    2.4240   -7.8730    6.3089 H   0  0  0  0  0  0  0  0  0  0  0  0
    4.8995  -11.2380    4.6322 H   0  0  0  0  0  0  0  0  0  0  0  0
    6.3511  -10.5991    3.9298 H   0  0  0  0  0  0  0  0  0  0  0  0
    5.5060  -10.5423    6.8746 H   0  0  0  0  0  0  0  0  0  0  0  0
    6.7542  -11.5610    6.1750 H   0  0  0  0  0  0  0  0  0  0  0  0
    7.6328   -9.4871    7.3433 H   0  0  0  0  0  0  0  0  0  0  0  0
    8.2620   -9.5238    4.3264 H   0  0  0  0  0  0  0  0  0  0  0  0
    8.9861  -10.6087    5.5116 H   0  0  0  0  0  0  0  0  0  0  0  0
    9.2732   -8.8565    5.5860 H   0  0  0  0  0  0  0  0  0  0  0  0
    5.8851   -7.9417    6.7989 H   0  0  0  0  0  0  0  0  0  0  0  0
    7.4140   -7.4093    6.1292 H   0  0  0  0  0  0  0  0  0  0  0  0
    5.9453   -7.3800    2.3665 H   0  0  0  0  0  0  0  0  0  0  0  0
    5.1267   -8.2759    1.0795 H   0  0  0  0  0  0  0  0  0  0  0  0
    6.3347   -9.0547    2.0744 H   0  0  0  0  0  0  0  0  0  0  0  0
    3.4713  -10.4837    2.9640 H   0  0  0  0  0  0  0  0  0  0  0  0
    2.7588   -8.0607    2.0845 H   0  0  0  0  0  0  0  0  0  0  0  0
    4.2279   -6.1408    2.8503 H   0  0  0  0  0  0  0  0  0  0  0  0
    2.5500   -5.8890    3.0591 H   0  0  0  0  0  0  0  0  0  0  0  0
    4.5740   -6.4721    5.1413 H   0  0  0  0  0  0  0  0  0  0  0  0
    2.8441   -4.3172    4.8670 H   0  0  0  0  0  0  0  0  0  0  0  0
    4.7083   -6.2682    7.2411 H   0  0  0  0  0  0  0  0  0  0  0  0
    3.9991   -5.2506    8.3964 H   0  0  0  0  0  0  0  0  0  0  0  0
    5.6862   -5.0712    8.0385 H   0  0  0  0  0  0  0  0  0  0  0  0
    6.9206   -5.4557    6.1980 H   0  0  0  0  0  0  0  0  0  0  0  0
    7.3242   -3.9001    6.9590 H   0  0  0  0  0  0  0  0  0  0  0  0
    7.7328   -4.3107    5.3043 H   0  0  0  0  0  0  0  0  0  0  0  0
    5.8098   -5.1533    3.8078 H   0  0  0  0  0  0  0  0  0  0  0  0
    6.1564   -3.5034    3.4713 H   0  0  0  0  0  0  0  0  0  0  0  0
    4.5092   -3.9392    3.5974 H   0  0  0  0  0  0  0  0  0  0  0  0
  1  2  2  0
  1 63  1  0
  1 64  1  0
  2  3  1  0
  4  2  1  6
  3 65  1  0
  3 66  1  0
  3 67  1  0
 10  4  1  6
  4 62  1  0
  4  5  1  0
  5  6  1  0
  6  7  1  0
  6 10  1  0
  6 68  1  1
  7  8  1  0
  8  9  1  0
  8 69  1  0
  8 70  1  0
  9 71  1  0
  9 72  1  0
  9 73  1  0
 10 57  1  0
 10 11  1  0
 11 21  1  0
 11 12  1  1
 11 13  1  0
 12 74  1  0
 12 75  1  0
 12 76  1  0
 13 14  1  0
 13 77  1  0
 13 78  1  0
 14 22  1  0
 14 15  1  1
 14 16  1  0
 15 79  1  0
 16 17  1  0
 17 18  1  6
 17 21  1  0
 17 22  1  0
 18 19  1  0
 18 20  1  0
 18 80  1  0
 19 81  1  0
 19 82  1  0
 19 83  1  0
 20 84  1  0
 20 85  1  0
 20 86  1  0
 21 87  1  0
 21 88  1  0
 22 23  1  1
 22 24  1  0
 23 89  1  0
 55 24  1  6
 24 25  1  6
 24 26  1  0
 25 90  1  0
 25 91  1  0
 25 92  1  0
 26 29  1  0
 26 27  1  0
 26 93  1  1
 27 28  1  0
 28 29  1  0
 28 30  1  0
 28 94  1  1
 30 38  1  0
 30 31  1  0
 30 95  1  6
 31 32  1  0
 31 33  1  0
 31 34  1  0
 32 96  1  0
 32 97  1  0
 32 98  1  0
 33 99  1  0
 33100  1  0
 33101  1  0
 34 35  1  0
 34102  1  0
 34103  1  0
 35 36  1  0
 35104  1  0
 35105  1  0
 36 37  1  0
 38 36  1  1
 36106  1  1
 37107  1  0
 38 51  1  0
 38 39  1  0
 39 53  1  0
 39 40  1  0
 39108  1  1
 41 40  1  1
 41 47  1  0
 41 42  1  0
 41 48  1  0
 42 43  1  0
 42109  1  0
 42110  1  0
 43 44  1  0
 43111  1  0
 43112  1  0
 44 45  1  0
 44 46  1  0
 44113  1  1
 45114  1  0
 45115  1  0
 45116  1  0
 46 47  1  0
 46117  1  0
 46118  1  0
 48 49  1  0
 48 50  1  6
 48 51  1  0
 49119  1  0
 49120  1  0
 49121  1  0
 50122  1  0
 51 52  1  0
 51123  1  6
 52 53  1  0
 52124  1  0
 52125  1  0
 53 54  1  0
 53126  1  6
 54 55  1  0
 54 57  1  0
 54127  1  6
 55 56  2  0
 57 58  1  1
 57 59  1  0
 58128  1  0
 58129  1  0
 58130  1  0
 59 60  1  0
 59 61  1  0
 59 62  1  0
 60131  1  0
 60132  1  0
 60133  1  0
 61134  1  0
 61135  1  0
 61136  1  0
M  END
>  <i_m_ct_stereo_status>  (131) 
1

>  <s_m_source_file>  (131) 
/var/tmp/pbs.5075288.sched01/tmpd529dnjr/198klec4xt1.sdf

>  <i_m_source_file_index>  (131) 
33

>  <i_lp_mmshare_version>  (131) 
48012

>  <i_f3d_flags>  (131) 
0

>  <s_epik_input>  (131) 
W0NIM11bQ0gyXU9bQ0BASF0xT1tDQEBdKFtDQEBdMTIzKShDKD1bQ0gyXSlbQ0gzXSlPQyhbQ0gzXSkoW0NIM10pW0NAXTMoW0NIM10pW0NASF00W0NASF01W0NASF02W0NAXTcoW0NAQEhdKFtDSDJdNSlbQ0BdKFtDSDNdKShbT0hdKVtDQEBdOChPNilbQ0gyXVtDSDJdW0NAQEhdKFtDSDNdKVtDSDJdTzgpW0NAQEhdKEMoW0NIM10pKFtDSDNdKVtDSDJdW0NIMl1bQ0BIXTdbT0hdKVtDQEBIXTlPW0NAQEhdKE85KVtDQF0oW0NIM10pKFtTK100W08tXSlbQ0BAXTEoW09IXSlbQ0BAXTMoW09IXSlbQ0gyXVtDQF0yKFtDSDNdKVtDSDJdW0NAQF0xKE8zKVtDSF0oW0NIM10pW0NIM10=

>  <s_epik_cmdline>  (131) 
J2VwaWtfcHl0aG9uJywgJy1waHQnLCAnMi4wJywgJy1waCcsICc3LjAnLCAnLXRuJywgJzgnLCAnLW1hJywgJzIwMCcsICctaW1hZScsICc8aW5maWxlLm1hZT4nLCAnLW9tYWUnLCAnPG91dGZpbGUubWFlPic=

>  <r_lp_tautomer_probability>  (131) 
1

>  <r_epik_Ionization_Penalty>  (131) 
1.1743e-06

>  <r_epik_Ionization_Penalty_Charging>  (131) 
0

>  <r_epik_Ionization_Penalty_Neutral>  (131) 
1.1743e-06

>  <r_epik_State_Penalty>  (131) 
-0

>  <r_epik_Charging_Adjusted_Penalty>  (131) 
0

>  <i_epik_Tot_Q>  (131) 
0

>  <i_epik_Tot_abs_Q>  (131) 
2

>  <s_epik_Chemistry_Notes>  (131) 
This compound contains an acetal/aminal-like group ( X-CH(R)-Y where X, Y are N, S, or O) that may be acid/base labile, releasing an aldehyde.

>  <s_lp_Force_Field>  (131) 
OPLS3e

>  <r_lp_Energy>  (131) 
233.062

>  <b_lp_Chiralities_Consistent>  (131) 
1

>  <s_lp_Variant>  (131) 
88:0-1

>  <s_i_glide_gridfile>  (131) 
pfpi4k_grid

>  <i_i_glide_lignum>  (131) 
33

>  <i_i_glide_rotatable_bonds>  (131) 
8

>  <r_i_docking_score>  (131) 
-1.91161

>  <r_i_glide_ligand_efficiency>  (131) 
-0.0308324

>  <r_i_glide_ligand_efficiency_sa>  (131) 
-0.122031

>  <r_i_glide_ligand_efficiency_ln>  (131) 
-0.372842

>  <r_i_glide_gscore>  (131) 
-1.91161

>  <r_i_glide_lipo>  (131) 
-0.234116

>  <r_i_glide_hbond>  (131) 
-0.115189

>  <r_i_glide_metal>  (131) 
-0

>  <r_i_glide_rewards>  (131) 
-0.00591686

>  <r_i_glide_evdw>  (131) 
-17.2889

>  <r_i_glide_ecoul>  (131) 
-5.64614

>  <r_i_glide_erotb>  (131) 
0.055475

>  <r_i_glide_esite>  (131) 
-0.0723729

>  <r_i_glide_emodel>  (131) 
-18.777

>  <r_i_glide_energy>  (131) 
-22.935

>  <r_i_glide_einternal>  (131) 
6.43164

>  <r_i_glide_intrahb_reward>  (131) 
-0

>  <i_i_glide_confnum>  (131) 
1

>  <i_i_glide_posenum>  (131) 
1

>  <r_i_glide_eff_state_penalty>  (131) 
0

>  <ligand_id>  (131) 
88

>  <original_smiles>  (131) 
C=C(C)C12OC(OCC)C13C1(C)CC4(O)OC(C(C)C)(C1)C4(O)C1(C)C4OC(O4)C4C(C)(C)CCC(O)C45C4OC6(CCC(C)CO6)C(C)(O)C5CC4C([S+]1[O-])C3(C)C(C)(C)O2

>  <smiles>  (131) 
[H]OC1([H])C([H])([H])C([H])([H])C(C([H])([H])[H])(C([H])([H])[H])C2([H])C3([H])OC([H])(O3)C3(C([H])([H])[H])S(=O)C([H])(C4([H])C([H])([H])C5([H])C(O[H])(C([H])([H])[H])C6(OC([H])([H])C([H])(C([H])([H])[H])C([H])([H])C6([H])[H])OC4([H])C152)C1(C([H])([H])[H])C(C([H])([H])[H])(C([H])([H])[H])OC2(C(=C([H])[H])C([H])([H])[H])OC([H])(OC([H])([H])C([H])([H])[H])C21C1(C([H])([H])[H])C([H])([H])C2(O[H])OC(C([H])(C([H])([H])[H])C([H])([H])[H])(C1([H])[H])C23O[H]

$$$$
90:0:0
     RDKit          3D

 66 70  0  0  1  0  0  0  0  0999 V2000
    4.4470  -10.9852    3.3591 C   0  0  0  0  0  0  0  0  0  0  0  0
    4.4046   -9.4728    3.5159 C   0  0  0  0  0  0  0  0  0  0  0  0
    5.4212   -8.7838    3.4476 O   0  0  0  0  0  0  0  0  0  0  0  0
    3.1567   -9.0206    3.7066 O   0  0  0  0  0  0  0  0  0  0  0  0
    2.8736   -7.6358    3.8579 C   0  0  2  0  0  0  0  0  0  0  0  0
    1.8025   -7.4755    4.9495 C   0  0  1  0  0  0  0  0  0  0  0  0
    0.3859   -7.9768    4.7633 C   0  0  2  0  0  0  0  0  0  0  0  0
    0.2193   -8.7914    6.0137 C   0  0  0  0  0  0  0  0  0  0  0  0
    1.1268   -8.4030    6.9377 C   0  0  0  0  0  0  0  0  0  0  0  0
    2.2160   -7.4754    6.3983 C   0  0  1  0  0  0  0  0  0  0  0  0
    3.4790   -8.0822    6.5915 O   0  0  0  0  0  0  0  0  0  0  0  0
    2.2596   -5.9589    6.8279 C   0  0  1  0  0  0  0  0  0  0  0  0
    2.9547   -5.7277    8.1835 C   0  0  0  0  0  0  0  0  0  0  0  0
    3.2127   -4.9469    5.5202 S   0  0  0  0  0  0  0  0  0  0  0  0
    3.6502   -3.6462    6.1940 O   0  0  0  0  0  0  0  0  0  0  0  0
    2.0585   -4.4478    4.0849 C   0  0  1  0  0  0  0  0  0  0  0  0
    0.7052   -4.0165    4.7081 C   0  0  0  0  0  0  0  0  0  0  0  0
    2.5250   -3.2108    3.5452 O   0  0  0  0  0  0  0  0  0  0  0  0
    2.2046   -3.0425    2.1808 C   0  0  1  0  0  0  0  0  0  0  0  0
    3.1688   -1.9745    1.5694 C   0  0  0  0  0  0  0  0  0  0  0  0
    2.8137   -0.5721    2.0914 C   0  0  0  0  0  0  0  0  0  0  0  0
    4.6613   -2.2663    1.8530 C   0  0  0  0  0  0  0  0  0  0  0  0
    3.0189   -1.9303    0.1671 O   0  0  0  0  0  0  0  0  0  0  0  0
    2.3362   -4.4820    1.6675 C   0  0  0  0  0  0  0  0  0  0  0  0
    1.9177   -5.4374    2.7901 C   0  0  2  0  0  0  0  0  0  0  0  0
    0.5103   -5.8485    2.6360 O   0  0  0  0  0  0  0  0  0  0  0  0
    0.8415   -7.2547    2.3581 C   0  0  2  0  0  0  0  0  0  0  0  0
    0.0628   -8.2949    3.2833 C   0  0  1  0  0  0  0  0  0  0  0  0
    0.2592   -9.7853    2.9069 C   0  0  0  0  0  0  0  0  0  0  0  0
   -1.3266   -8.1202    3.0597 O   0  0  0  0  0  0  0  0  0  0  0  0
    2.3404   -6.9549    2.6137 C   0  0  2  0  0  0  0  0  0  0  0  0
    3.2565   -7.2666    1.4208 C   0  0  0  0  0  0  0  0  0  0  0  0
    3.7843  -11.2944    2.5494 H   0  0  0  0  0  0  0  0  0  0  0  0
    4.1179  -11.4702    4.2785 H   0  0  0  0  0  0  0  0  0  0  0  0
    5.4588  -11.3178    3.1185 H   0  0  0  0  0  0  0  0  0  0  0  0
    3.7873   -7.1274    4.1607 H   0  0  0  0  0  0  0  0  0  0  0  0
    1.4084   -6.5108    4.8326 H   0  0  0  0  0  0  0  0  0  0  0  0
   -0.3312   -7.1838    4.9986 H   0  0  0  0  0  0  0  0  0  0  0  0
   -0.6058   -9.4624    6.1871 H   0  0  0  0  0  0  0  0  0  0  0  0
    1.1648   -8.7836    7.9446 H   0  0  0  0  0  0  0  0  0  0  0  0
    3.4112   -8.9950    6.3573 H   0  0  0  0  0  0  0  0  0  0  0  0
    1.2431   -5.5741    6.9221 H   0  0  0  0  0  0  0  0  0  0  0  0
    2.5415   -6.3839    8.9489 H   0  0  0  0  0  0  0  0  0  0  0  0
    2.8281   -4.7026    8.5268 H   0  0  0  0  0  0  0  0  0  0  0  0
    4.0281   -5.9192    8.1318 H   0  0  0  0  0  0  0  0  0  0  0  0
    0.0850   -3.4751    3.9964 H   0  0  0  0  0  0  0  0  0  0  0  0
    0.8739   -3.3440    5.5451 H   0  0  0  0  0  0  0  0  0  0  0  0
    0.0981   -4.8425    5.0731 H   0  0  0  0  0  0  0  0  0  0  0  0
    1.1716   -2.6932    2.1083 H   0  0  0  0  0  0  0  0  0  0  0  0
    2.9175   -0.5084    3.1760 H   0  0  0  0  0  0  0  0  0  0  0  0
    1.7826   -0.3096    1.8469 H   0  0  0  0  0  0  0  0  0  0  0  0
    3.4572    0.1958    1.6577 H   0  0  0  0  0  0  0  0  0  0  0  0
    4.8740   -2.2895    2.9218 H   0  0  0  0  0  0  0  0  0  0  0  0
    5.2983   -1.4972    1.4193 H   0  0  0  0  0  0  0  0  0  0  0  0
    4.9936   -3.2106    1.4316 H   0  0  0  0  0  0  0  0  0  0  0  0
    2.1636   -1.5545   -0.0605 H   0  0  0  0  0  0  0  0  0  0  0  0
    1.8041   -4.6520    0.7303 H   0  0  0  0  0  0  0  0  0  0  0  0
    3.3870   -4.6543    1.4426 H   0  0  0  0  0  0  0  0  0  0  0  0
    0.6873   -7.4643    1.3024 H   0  0  0  0  0  0  0  0  0  0  0  0
    1.2696  -10.1588    3.0088 H   0  0  0  0  0  0  0  0  0  0  0  0
   -0.0348   -9.9808    1.8773 H   0  0  0  0  0  0  0  0  0  0  0  0
   -0.3609  -10.4321    3.5297 H   0  0  0  0  0  0  0  0  0  0  0  0
   -1.7878   -8.8193    3.5077 H   0  0  0  0  0  0  0  0  0  0  0  0
    2.9006   -6.7904    0.5088 H   0  0  0  0  0  0  0  0  0  0  0  0
    3.3046   -8.3342    1.1973 H   0  0  0  0  0  0  0  0  0  0  0  0
    4.2700   -6.9088    1.5975 H   0  0  0  0  0  0  0  0  0  0  0  0
  1  2  1  0
  1 33  1  0
  1 34  1  0
  1 35  1  0
  2  3  2  0
  2  4  1  0
  4  5  1  0
  5 31  1  0
  5  6  1  0
  5 36  1  1
  6 10  1  0
  6  7  1  0
  6 37  1  6
  7 28  1  0
  7  8  1  0
  7 38  1  1
  8  9  2  0
  8 39  1  0
  9 10  1  0
  9 40  1  0
 10 11  1  6
 10 12  1  0
 11 41  1  0
 12 13  1  0
 12 14  1  0
 12 42  1  1
 13 43  1  0
 13 44  1  0
 13 45  1  0
 14 15  2  0
 14 16  1  6
 16 25  1  0
 16 17  1  1
 16 18  1  0
 17 46  1  0
 17 47  1  0
 17 48  1  0
 18 19  1  0
 19 20  1  0
 19 24  1  0
 19 49  1  1
 20 21  1  0
 20 22  1  0
 20 23  1  0
 21 50  1  0
 21 51  1  0
 21 52  1  0
 22 53  1  0
 22 54  1  0
 22 55  1  0
 23 56  1  0
 24 25  1  0
 24 57  1  0
 24 58  1  0
 25 31  1  0
 25 26  1  6
 26 27  1  0
 27 28  1  0
 27 31  1  0
 27 59  1  6
 28 29  1  0
 28 30  1  1
 29 60  1  0
 29 61  1  0
 29 62  1  0
 30 63  1  0
 31 32  1  6
 32 64  1  0
 32 65  1  0
 32 66  1  0
M  END
>  <i_m_ct_stereo_status>  (132) 
1

>  <s_m_source_file>  (132) 
/var/tmp/pbs.5075288.sched01/tmpd529dnjr/198klec4xt1.sdf

>  <i_m_source_file_index>  (132) 
37

>  <i_lp_mmshare_version>  (132) 
48012

>  <i_f3d_flags>  (132) 
0

>  <s_epik_input>  (132) 
W0NIM11DKD1PKU9bQ0BIXTFbQ0BAXTIoW0NIM10pW0NASF0oTzMpW0NAXShbQ0gzXSkoW09IXSlbQ0BASF0oW0NIXT1bQ0hdNClbQ0BIXTFbQ0BAXTQoW09IXSlbQ0BASF0oW0NIM10pW1MrXShbTy1dKVtDQEBdKFtDQEBdMjM1KShbQ0gzXSlPW0NASF0oW0NIMl01KUMoW0NIM10pKFtDSDNdKVtPSF0=

>  <s_epik_cmdline>  (132) 
J2VwaWtfcHl0aG9uJywgJy1waHQnLCAnMi4wJywgJy1waCcsICc3LjAnLCAnLXRuJywgJzgnLCAnLW1hJywgJzIwMCcsICctaW1hZScsICc8aW5maWxlLm1hZT4nLCAnLW9tYWUnLCAnPG91dGZpbGUubWFlPic=

>  <r_lp_tautomer_probability>  (132) 
1

>  <r_epik_Ionization_Penalty>  (132) 
2.26716e-07

>  <r_epik_Ionization_Penalty_Charging>  (132) 
0

>  <r_epik_Ionization_Penalty_Neutral>  (132) 
2.26716e-07

>  <r_epik_State_Penalty>  (132) 
-0

>  <r_epik_Charging_Adjusted_Penalty>  (132) 
0

>  <i_epik_Tot_Q>  (132) 
0

>  <i_epik_Tot_abs_Q>  (132) 
2

>  <s_epik_Chemistry_Notes>  (132) 
This compound has an ester and may undergo hydrolysis at high or low pH.

>  <s_lp_Force_Field>  (132) 
OPLS3e

>  <r_lp_Energy>  (132) 
71.4681

>  <b_lp_Chiralities_Consistent>  (132) 
1

>  <s_lp_Variant>  (132) 
90:0-1

>  <s_i_glide_gridfile>  (132) 
pfpi4k_grid

>  <i_i_glide_lignum>  (132) 
37

>  <i_i_glide_rotatable_bonds>  (132) 
6

>  <r_i_docking_score>  (132) 
-2.61808

>  <r_i_glide_ligand_efficiency>  (132) 
-0.0818151

>  <r_i_glide_ligand_efficiency_sa>  (132) 
-0.259747

>  <r_i_glide_ligand_efficiency_ln>  (132) 
-0.58626

>  <r_i_glide_gscore>  (132) 
-2.61808

>  <r_i_glide_lipo>  (132) 
-0.102283

>  <r_i_glide_hbond>  (132) 
-0.266911

>  <r_i_glide_metal>  (132) 
-0

>  <r_i_glide_rewards>  (132) 
-0.20061

>  <r_i_glide_evdw>  (132) 
-19.1177

>  <r_i_glide_ecoul>  (132) 
-8.45626

>  <r_i_glide_erotb>  (132) 
0.182495

>  <r_i_glide_esite>  (132) 
-0.00645216

>  <r_i_glide_emodel>  (132) 
-32.6595

>  <r_i_glide_energy>  (132) 
-27.5739

>  <r_i_glide_einternal>  (132) 
0.421059

>  <r_i_glide_intrahb_reward>  (132) 
-0

>  <i_i_glide_confnum>  (132) 
2

>  <i_i_glide_posenum>  (132) 
6

>  <r_i_glide_eff_state_penalty>  (132) 
0

>  <ligand_id>  (132) 
90

>  <original_smiles>  (132) 
CC(=O)OC1C2C3C=CC2(O)C(C)[S+]([O-])C2(C)OC(C(C)(C)O)CC24OC(C3(C)O)C14C

>  <smiles>  (132) 
[H]OC12C([H])=C([H])C3([H])C1([H])C([H])(OC(=O)C([H])([H])[H])C1(C([H])([H])[H])C([H])(OC14C([H])([H])C([H])(C(O[H])(C([H])([H])[H])C([H])([H])[H])OC4(C([H])([H])[H])S(=O)C2([H])C([H])([H])[H])C3(O[H])C([H])([H])[H]

$$$$
90:0:1
     RDKit          3D

 66 70  0  0  1  0  0  0  0  0999 V2000
    4.6771  -10.9112    3.5115 C   0  0  0  0  0  0  0  0  0  0  0  0
    4.6182   -9.3946    3.6150 C   0  0  0  0  0  0  0  0  0  0  0  0
    5.6333   -8.7029    3.5633 O   0  0  0  0  0  0  0  0  0  0  0  0
    3.3596   -8.9434    3.7318 O   0  0  0  0  0  0  0  0  0  0  0  0
    3.0558   -7.5565    3.8002 C   0  0  2  0  0  0  0  0  0  0  0  0
    1.9037   -7.3603    4.7997 C   0  0  1  0  0  0  0  0  0  0  0  0
    0.5069   -7.8770    4.5255 C   0  0  2  0  0  0  0  0  0  0  0  0
    0.2541   -8.6429    5.7964 C   0  0  0  0  0  0  0  0  0  0  0  0
    1.0844   -8.2077    6.7683 C   0  0  0  0  0  0  0  0  0  0  0  0
    2.2076   -7.2943    6.2731 C   0  0  1  0  0  0  0  0  0  0  0  0
    3.4562   -7.8814    6.5897 O   0  0  0  0  0  0  0  0  0  0  0  0
    2.2139   -5.7594    6.6382 C   0  0  1  0  0  0  0  0  0  0  0  0
    2.7999   -5.4636    8.0325 C   0  0  0  0  0  0  0  0  0  0  0  0
    3.2561   -4.7974    5.3616 S   0  0  0  0  0  0  0  0  0  0  0  0
    3.6392   -3.4660    6.0118 O   0  0  0  0  0  0  0  0  0  0  0  0
    2.2124   -4.3689    3.8229 C   0  0  1  0  0  0  0  0  0  0  0  0
    0.8147   -3.9212    4.3221 C   0  0  0  0  0  0  0  0  0  0  0  0
    2.7209   -3.1593    3.2655 O   0  0  0  0  0  0  0  0  0  0  0  0
    2.4977   -3.0519    1.8774 C   0  0  1  0  0  0  0  0  0  0  0  0
    3.5029   -2.0048    1.3018 C   0  0  0  0  0  0  0  0  0  0  0  0
    3.1597   -0.5907    1.8029 C   0  0  0  0  0  0  0  0  0  0  0  0
    4.9840   -2.3185    1.6169 C   0  0  0  0  0  0  0  0  0  0  0  0
    3.3648   -1.9611   -0.1051 O   0  0  0  0  0  0  0  0  0  0  0  0
    2.6551   -4.5092    1.4312 C   0  0  0  0  0  0  0  0  0  0  0  0
    2.1641   -5.4161    2.5661 C   0  0  2  0  0  0  0  0  0  0  0  0
    0.7730   -5.8474    2.3227 O   0  0  0  0  0  0  0  0  0  0  0  0
    1.1431   -7.2600    2.1320 C   0  0  2  0  0  0  0  0  0  0  0  0
    0.3103   -8.2672    3.0370 C   0  0  1  0  0  0  0  0  0  0  0  0
    0.5380   -9.7741    2.7513 C   0  0  0  0  0  0  0  0  0  0  0  0
   -1.0471   -8.1087    2.6628 O   0  0  0  0  0  0  0  0  0  0  0  0
    2.6139   -6.9348    2.4882 C   0  0  2  0  0  0  0  0  0  0  0  0
    3.6254   -7.2893    1.3849 C   0  0  0  0  0  0  0  0  0  0  0  0
    4.0490  -11.2530    2.6872 H   0  0  0  0  0  0  0  0  0  0  0  0
    4.3151  -11.3682    4.4332 H   0  0  0  0  0  0  0  0  0  0  0  0
    5.6998  -11.2441    3.3239 H   0  0  0  0  0  0  0  0  0  0  0  0
    3.9452   -7.0318    4.1499 H   0  0  0  0  0  0  0  0  0  0  0  0
    1.5188   -6.4060    4.6096 H   0  0  0  0  0  0  0  0  0  0  0  0
   -0.2335   -7.0821    4.6709 H   0  0  0  0  0  0  0  0  0  0  0  0
   -0.5835   -9.3148    5.9317 H   0  0  0  0  0  0  0  0  0  0  0  0
    1.0462   -8.5391    7.7935 H   0  0  0  0  0  0  0  0  0  0  0  0
    3.4098   -8.8039    6.3943 H   0  0  0  0  0  0  0  0  0  0  0  0
    1.1918   -5.3781    6.6361 H   0  0  0  0  0  0  0  0  0  0  0  0
    2.3323   -6.0887    8.7918 H   0  0  0  0  0  0  0  0  0  0  0  0
    2.6419   -4.4253    8.3179 H   0  0  0  0  0  0  0  0  0  0  0  0
    3.8736   -5.6483    8.0701 H   0  0  0  0  0  0  0  0  0  0  0  0
    0.2435   -3.4208    3.5409 H   0  0  0  0  0  0  0  0  0  0  0  0
    0.9148   -3.2099    5.1402 H   0  0  0  0  0  0  0  0  0  0  0  0
    0.1883   -4.7367    4.6774 H   0  0  0  0  0  0  0  0  0  0  0  0
    1.4708   -2.7148    1.7105 H   0  0  0  0  0  0  0  0  0  0  0  0
    3.2378   -0.5274    2.8875 H   0  0  0  0  0  0  0  0  0  0  0  0
    2.1431   -0.3085    1.5313 H   0  0  0  0  0  0  0  0  0  0  0  0
    3.8303    0.1619    1.3865 H   0  0  0  0  0  0  0  0  0  0  0  0
    5.1610   -2.3497    2.6917 H   0  0  0  0  0  0  0  0  0  0  0  0
    5.6443   -1.5552    1.2065 H   0  0  0  0  0  0  0  0  0  0  0  0
    5.3181   -3.2652    1.1988 H   0  0  0  0  0  0  0  0  0  0  0  0
    2.5012   -1.6111   -0.3195 H   0  0  0  0  0  0  0  0  0  0  0  0
    2.1691   -4.7109    0.4754 H   0  0  0  0  0  0  0  0  0  0  0  0
    3.7178   -4.6935    1.2866 H   0  0  0  0  0  0  0  0  0  0  0  0
    1.0701   -7.5150    1.0795 H   0  0  0  0  0  0  0  0  0  0  0  0
    1.5357  -10.1305    2.9609 H   0  0  0  0  0  0  0  0  0  0  0  0
    0.3543  -10.0198    1.7069 H   0  0  0  0  0  0  0  0  0  0  0  0
   -0.1380  -10.3936    3.3461 H   0  0  0  0  0  0  0  0  0  0  0  0
   -1.1958   -8.6159    1.8742 H   0  0  0  0  0  0  0  0  0  0  0  0
    3.3452   -6.8528    0.4321 H   0  0  0  0  0  0  0  0  0  0  0  0
    3.6911   -8.3619    1.2065 H   0  0  0  0  0  0  0  0  0  0  0  0
    4.6214   -6.9201    1.6251 H   0  0  0  0  0  0  0  0  0  0  0  0
  1  2  1  0
  1 33  1  0
  1 34  1  0
  1 35  1  0
  2  3  2  0
  2  4  1  0
  4  5  1  0
  5 31  1  0
  5  6  1  0
  5 36  1  1
  6 10  1  0
  6  7  1  0
  6 37  1  6
  7 28  1  0
  7  8  1  0
  7 38  1  1
  8  9  2  0
  8 39  1  0
  9 10  1  0
  9 40  1  0
 10 11  1  6
 10 12  1  0
 11 41  1  0
 12 13  1  0
 12 14  1  0
 12 42  1  1
 13 43  1  0
 13 44  1  0
 13 45  1  0
 14 15  2  0
 14 16  1  6
 16 25  1  0
 16 17  1  1
 16 18  1  0
 17 46  1  0
 17 47  1  0
 17 48  1  0
 18 19  1  0
 19 20  1  0
 19 24  1  0
 19 49  1  1
 20 21  1  0
 20 22  1  0
 20 23  1  0
 21 50  1  0
 21 51  1  0
 21 52  1  0
 22 53  1  0
 22 54  1  0
 22 55  1  0
 23 56  1  0
 24 25  1  0
 24 57  1  0
 24 58  1  0
 25 31  1  0
 25 26  1  6
 26 27  1  0
 27 28  1  0
 27 31  1  0
 27 59  1  6
 28 29  1  0
 28 30  1  6
 29 60  1  0
 29 61  1  0
 29 62  1  0
 30 63  1  0
 31 32  1  6
 32 64  1  0
 32 65  1  0
 32 66  1  0
M  END
>  <i_m_ct_stereo_status>  (133) 
1

>  <s_m_source_file>  (133) 
/var/tmp/pbs.5075288.sched01/tmpd529dnjr/198klec4xt1.sdf

>  <i_m_source_file_index>  (133) 
37

>  <i_lp_mmshare_version>  (133) 
48012

>  <i_f3d_flags>  (133) 
0

>  <s_epik_input>  (133) 
W0NIM11DKD1PKU9bQ0BIXTFbQ0BAXTIoW0NIM10pW0NASF0oTzMpW0NAXShbQ0gzXSkoW09IXSlbQ0BASF0oW0NIXT1bQ0hdNClbQ0BIXTFbQ0BAXTQoW09IXSlbQ0BASF0oW0NIM10pW1MrXShbTy1dKVtDQEBdKFtDQEBdMjM1KShbQ0gzXSlPW0NASF0oW0NIMl01KUMoW0NIM10pKFtDSDNdKVtPSF0=

>  <s_epik_cmdline>  (133) 
J2VwaWtfcHl0aG9uJywgJy1waHQnLCAnMi4wJywgJy1waCcsICc3LjAnLCAnLXRuJywgJzgnLCAnLW1hJywgJzIwMCcsICctaW1hZScsICc8aW5maWxlLm1hZT4nLCAnLW9tYWUnLCAnPG91dGZpbGUubWFlPic=

>  <r_lp_tautomer_probability>  (133) 
1

>  <r_epik_Ionization_Penalty>  (133) 
2.26716e-07

>  <r_epik_Ionization_Penalty_Charging>  (133) 
0

>  <r_epik_Ionization_Penalty_Neutral>  (133) 
2.26716e-07

>  <r_epik_State_Penalty>  (133) 
-0

>  <r_epik_Charging_Adjusted_Penalty>  (133) 
0

>  <i_epik_Tot_Q>  (133) 
0

>  <i_epik_Tot_abs_Q>  (133) 
2

>  <s_epik_Chemistry_Notes>  (133) 
This compound has an ester and may undergo hydrolysis at high or low pH.

>  <s_lp_Force_Field>  (133) 
OPLS3e

>  <r_lp_Energy>  (133) 
71.4681

>  <b_lp_Chiralities_Consistent>  (133) 
1

>  <s_lp_Variant>  (133) 
90:0-1

>  <s_i_glide_gridfile>  (133) 
pfpi4k_grid

>  <i_i_glide_lignum>  (133) 
37

>  <i_i_glide_rotatable_bonds>  (133) 
6

>  <r_i_docking_score>  (133) 
-2.61312

>  <r_i_glide_ligand_efficiency>  (133) 
-0.08166

>  <r_i_glide_ligand_efficiency_sa>  (133) 
-0.259254

>  <r_i_glide_ligand_efficiency_ln>  (133) 
-0.585149

>  <r_i_glide_gscore>  (133) 
-2.61312

>  <r_i_glide_lipo>  (133) 
-0.162193

>  <r_i_glide_hbond>  (133) 
-0.25225

>  <r_i_glide_metal>  (133) 
-0

>  <r_i_glide_rewards>  (133) 
-0.20061

>  <r_i_glide_evdw>  (133) 
-20.0718

>  <r_i_glide_ecoul>  (133) 
-7.82051

>  <r_i_glide_erotb>  (133) 
0.182495

>  <r_i_glide_esite>  (133) 
-0.00389374

>  <r_i_glide_emodel>  (133) 
-32.8049

>  <r_i_glide_energy>  (133) 
-27.8924

>  <r_i_glide_einternal>  (133) 
0.64077

>  <r_i_glide_intrahb_reward>  (133) 
-0

>  <i_i_glide_confnum>  (133) 
2

>  <i_i_glide_posenum>  (133) 
7

>  <r_i_glide_eff_state_penalty>  (133) 
0

>  <ligand_id>  (133) 
90

>  <original_smiles>  (133) 
CC(=O)OC1C2C3C=CC2(O)C(C)[S+]([O-])C2(C)OC(C(C)(C)O)CC24OC(C3(C)O)C14C

>  <smiles>  (133) 
[H]OC12C([H])=C([H])C3([H])C1([H])C([H])(OC(=O)C([H])([H])[H])C1(C([H])([H])[H])C([H])(OC14C([H])([H])C([H])(C(O[H])(C([H])([H])[H])C([H])([H])[H])OC4(C([H])([H])[H])S(=O)C2([H])C([H])([H])[H])C3(O[H])C([H])([H])[H]

$$$$
90:0:2
     RDKit          3D

 66 70  0  0  1  0  0  0  0  0999 V2000
    3.9384  -12.1018    4.0816 C   0  0  0  0  0  0  0  0  0  0  0  0
    4.2842  -10.6309    3.9016 C   0  0  0  0  0  0  0  0  0  0  0  0
    5.4497  -10.2411    3.8513 O   0  0  0  0  0  0  0  0  0  0  0  0
    3.1880   -9.8629    3.7836 O   0  0  0  0  0  0  0  0  0  0  0  0
    3.2658   -8.4603    3.5677 C   0  0  2  0  0  0  0  0  0  0  0  0
    2.1613   -7.7808    4.3935 C   0  0  1  0  0  0  0  0  0  0  0  0
    0.6912   -7.9713    4.0815 C   0  0  2  0  0  0  0  0  0  0  0  0
    0.1853   -8.3717    5.4381 C   0  0  0  0  0  0  0  0  0  0  0  0
    1.0523   -7.9707    6.3927 C   0  0  0  0  0  0  0  0  0  0  0  0
    2.4026   -7.4943    5.8543 C   0  0  1  0  0  0  0  0  0  0  0  0
    3.4290   -8.3049    6.3981 O   0  0  0  0  0  0  0  0  0  0  0  0
    2.8035   -5.9699    5.9280 C   0  0  1  0  0  0  0  0  0  0  0  0
    3.3764   -5.5542    7.2959 C   0  0  0  0  0  0  0  0  0  0  0  0
    4.1277   -5.5850    4.6092 S   0  0  0  0  0  0  0  0  0  0  0  0
    4.8255   -4.2911    5.0357 O   0  0  0  0  0  0  0  0  0  0  0  0
    3.3126   -5.2274    2.9214 C   0  0  1  0  0  0  0  0  0  0  0  0
    2.0620   -4.3498    3.1842 C   0  0  0  0  0  0  0  0  0  0  0  0
    4.1502   -4.3282    2.2023 O   0  0  0  0  0  0  0  0  0  0  0  0
    4.0264   -4.4592    0.8038 C   0  0  1  0  0  0  0  0  0  0  0  0
    5.3025   -3.8430    0.1523 C   0  0  0  0  0  0  0  0  0  0  0  0
    5.3389   -2.3182    0.3602 C   0  0  0  0  0  0  0  0  0  0  0  0
    6.6306   -4.4607    0.6515 C   0  0  0  0  0  0  0  0  0  0  0  0
    5.2186   -4.0330   -1.2443 O   0  0  0  0  0  0  0  0  0  0  0  0
    3.8170   -5.9658    0.6524 C   0  0  0  0  0  0  0  0  0  0  0  0
    3.0481   -6.4597    1.8801 C   0  0  2  0  0  0  0  0  0  0  0  0
    1.6073   -6.5477    1.5864 O   0  0  0  0  0  0  0  0  0  0  0  0
    1.5811   -8.0178    1.7030 C   0  0  2  0  0  0  0  0  0  0  0  0
    0.4687   -8.5909    2.6781 C   0  0  1  0  0  0  0  0  0  0  0  0
    0.2961  -10.1334    2.6844 C   0  0  0  0  0  0  0  0  0  0  0  0
   -0.7721   -8.1740    2.1430 O   0  0  0  0  0  0  0  0  0  0  0  0
    3.0673   -8.0261    2.1270 C   0  0  2  0  0  0  0  0  0  0  0  0
    3.9975   -8.8483    1.2156 C   0  0  0  0  0  0  0  0  0  0  0  0
    3.3020  -12.4367    3.2612 H   0  0  0  0  0  0  0  0  0  0  0  0
    3.4026  -12.2560    5.0194 H   0  0  0  0  0  0  0  0  0  0  0  0
    4.8442  -12.7112    4.0843 H   0  0  0  0  0  0  0  0  0  0  0  0
    4.2453   -8.1184    3.9035 H   0  0  0  0  0  0  0  0  0  0  0  0
    2.0584   -6.8187    3.9957 H   0  0  0  0  0  0  0  0  0  0  0  0
    0.1876   -7.0016    4.0026 H   0  0  0  0  0  0  0  0  0  0  0  0
   -0.8074   -8.7721    5.6079 H   0  0  0  0  0  0  0  0  0  0  0  0
    0.8772   -8.0641    7.4532 H   0  0  0  0  0  0  0  0  0  0  0  0
    3.1618   -9.2080    6.3393 H   0  0  0  0  0  0  0  0  0  0  0  0
    1.9240   -5.3503    5.7500 H   0  0  0  0  0  0  0  0  0  0  0  0
    2.7207   -5.8727    8.1052 H   0  0  0  0  0  0  0  0  0  0  0  0
    3.4882   -4.4745    7.3670 H   0  0  0  0  0  0  0  0  0  0  0  0
    4.3577   -5.9937    7.4750 H   0  0  0  0  0  0  0  0  0  0  0  0
    1.6881   -3.8961    2.2664 H   0  0  0  0  0  0  0  0  0  0  0  0
    2.3068   -3.5331    3.8610 H   0  0  0  0  0  0  0  0  0  0  0  0
    1.2217   -4.8889    3.6170 H   0  0  0  0  0  0  0  0  0  0  0  0
    3.1264   -3.9359    0.4649 H   0  0  0  0  0  0  0  0  0  0  0  0
    5.3855   -2.0612    1.4188 H   0  0  0  0  0  0  0  0  0  0  0  0
    4.4502   -1.8425   -0.0550 H   0  0  0  0  0  0  0  0  0  0  0  0
    6.2073   -1.8666   -0.1209 H   0  0  0  0  0  0  0  0  0  0  0  0
    6.7493   -4.3214    1.7253 H   0  0  0  0  0  0  0  0  0  0  0  0
    7.4894   -3.9886    0.1773 H   0  0  0  0  0  0  0  0  0  0  0  0
    6.7204   -5.5241    0.4489 H   0  0  0  0  0  0  0  0  0  0  0  0
    4.9897   -4.9338   -1.4195 H   0  0  0  0  0  0  0  0  0  0  0  0
    3.3335   -6.2251   -0.2901 H   0  0  0  0  0  0  0  0  0  0  0  0
    4.7952   -6.4426    0.6510 H   0  0  0  0  0  0  0  0  0  0  0  0
    1.4822   -8.4602    0.7222 H   0  0  0  0  0  0  0  0  0  0  0  0
    1.1449  -10.6842    3.0626 H   0  0  0  0  0  0  0  0  0  0  0  0
    0.0915  -10.5380    1.6932 H   0  0  0  0  0  0  0  0  0  0  0  0
   -0.5376  -10.4221    3.3273 H   0  0  0  0  0  0  0  0  0  0  0  0
   -0.9055   -8.6529    1.3322 H   0  0  0  0  0  0  0  0  0  0  0  0
    3.8877   -8.5869    0.1674 H   0  0  0  0  0  0  0  0  0  0  0  0
    3.7846   -9.9130    1.2635 H   0  0  0  0  0  0  0  0  0  0  0  0
    5.0450   -8.7032    1.4758 H   0  0  0  0  0  0  0  0  0  0  0  0
  1  2  1  0
  1 33  1  0
  1 34  1  0
  1 35  1  0
  2  3  2  0
  2  4  1  0
  4  5  1  0
  5 31  1  0
  5  6  1  0
  5 36  1  1
  6 10  1  0
  6  7  1  0
  6 37  1  6
  7 28  1  0
  7  8  1  0
  7 38  1  6
  8  9  2  0
  8 39  1  0
  9 10  1  0
  9 40  1  0
 10 11  1  1
 10 12  1  0
 11 41  1  0
 12 13  1  0
 12 14  1  0
 12 42  1  6
 13 43  1  0
 13 44  1  0
 13 45  1  0
 14 15  2  0
 14 16  1  6
 16 25  1  0
 16 17  1  1
 16 18  1  0
 17 46  1  0
 17 47  1  0
 17 48  1  0
 18 19  1  0
 19 20  1  0
 19 24  1  0
 19 49  1  6
 20 21  1  0
 20 22  1  0
 20 23  1  0
 21 50  1  0
 21 51  1  0
 21 52  1  0
 22 53  1  0
 22 54  1  0
 22 55  1  0
 23 56  1  0
 24 25  1  0
 24 57  1  0
 24 58  1  0
 25 31  1  0
 25 26  1  6
 26 27  1  0
 27 28  1  0
 27 31  1  0
 27 59  1  6
 28 29  1  0
 28 30  1  6
 29 60  1  0
 29 61  1  0
 29 62  1  0
 30 63  1  0
 31 32  1  6
 32 64  1  0
 32 65  1  0
 32 66  1  0
M  END
>  <i_m_ct_stereo_status>  (134) 
1

>  <s_m_source_file>  (134) 
/var/tmp/pbs.5075288.sched01/tmpd529dnjr/198klec4xt1.sdf

>  <i_m_source_file_index>  (134) 
37

>  <i_lp_mmshare_version>  (134) 
48012

>  <i_f3d_flags>  (134) 
0

>  <s_epik_input>  (134) 
W0NIM11DKD1PKU9bQ0BIXTFbQ0BAXTIoW0NIM10pW0NASF0oTzMpW0NAXShbQ0gzXSkoW09IXSlbQ0BASF0oW0NIXT1bQ0hdNClbQ0BIXTFbQ0BAXTQoW09IXSlbQ0BASF0oW0NIM10pW1MrXShbTy1dKVtDQEBdKFtDQEBdMjM1KShbQ0gzXSlPW0NASF0oW0NIMl01KUMoW0NIM10pKFtDSDNdKVtPSF0=

>  <s_epik_cmdline>  (134) 
J2VwaWtfcHl0aG9uJywgJy1waHQnLCAnMi4wJywgJy1waCcsICc3LjAnLCAnLXRuJywgJzgnLCAnLW1hJywgJzIwMCcsICctaW1hZScsICc8aW5maWxlLm1hZT4nLCAnLW9tYWUnLCAnPG91dGZpbGUubWFlPic=

>  <r_lp_tautomer_probability>  (134) 
1

>  <r_epik_Ionization_Penalty>  (134) 
2.26716e-07

>  <r_epik_Ionization_Penalty_Charging>  (134) 
0

>  <r_epik_Ionization_Penalty_Neutral>  (134) 
2.26716e-07

>  <r_epik_State_Penalty>  (134) 
-0

>  <r_epik_Charging_Adjusted_Penalty>  (134) 
0

>  <i_epik_Tot_Q>  (134) 
0

>  <i_epik_Tot_abs_Q>  (134) 
2

>  <s_epik_Chemistry_Notes>  (134) 
This compound has an ester and may undergo hydrolysis at high or low pH.

>  <s_lp_Force_Field>  (134) 
OPLS3e

>  <r_lp_Energy>  (134) 
71.4681

>  <b_lp_Chiralities_Consistent>  (134) 
1

>  <s_lp_Variant>  (134) 
90:0-1

>  <s_i_glide_gridfile>  (134) 
pfpi4k_grid

>  <i_i_glide_lignum>  (134) 
37

>  <i_i_glide_rotatable_bonds>  (134) 
6

>  <r_i_docking_score>  (134) 
-2.5458

>  <r_i_glide_ligand_efficiency>  (134) 
-0.0795563

>  <r_i_glide_ligand_efficiency_sa>  (134) 
-0.252575

>  <r_i_glide_ligand_efficiency_ln>  (134) 
-0.570074

>  <r_i_glide_gscore>  (134) 
-2.5458

>  <r_i_glide_lipo>  (134) 
-0.397085

>  <r_i_glide_hbond>  (134) 
0

>  <r_i_glide_metal>  (134) 
-0

>  <r_i_glide_rewards>  (134) 
-0.20061

>  <r_i_glide_evdw>  (134) 
-22.8041

>  <r_i_glide_ecoul>  (134) 
-6.49434

>  <r_i_glide_erotb>  (134) 
0.182495

>  <r_i_glide_esite>  (134) 
-0.0162455

>  <r_i_glide_emodel>  (134) 
-34.0499

>  <r_i_glide_energy>  (134) 
-29.2984

>  <r_i_glide_einternal>  (134) 
0.537114

>  <r_i_glide_intrahb_reward>  (134) 
-0

>  <i_i_glide_confnum>  (134) 
2

>  <i_i_glide_posenum>  (134) 
10

>  <r_i_glide_eff_state_penalty>  (134) 
0

>  <ligand_id>  (134) 
90

>  <original_smiles>  (134) 
CC(=O)OC1C2C3C=CC2(O)C(C)[S+]([O-])C2(C)OC(C(C)(C)O)CC24OC(C3(C)O)C14C

>  <smiles>  (134) 
[H]OC12C([H])=C([H])C3([H])C1([H])C([H])(OC(=O)C([H])([H])[H])C1(C([H])([H])[H])C([H])(OC14C([H])([H])C([H])(C(O[H])(C([H])([H])[H])C([H])([H])[H])OC4(C([H])([H])[H])S(=O)C2([H])C([H])([H])[H])C3(O[H])C([H])([H])[H]

$$$$
92:0:0
     RDKit          3D

107113  0  0  1  0  0  0  0  0999 V2000
    4.2930   -0.6412    7.6366 C   0  0  0  0  0  0  0  0  0  0  0  0
    3.7434   -0.7996    6.4066 C   0  0  0  0  0  0  0  0  0  0  0  0
    3.5280    0.4814    5.5947 C   0  0  0  0  0  0  0  0  0  0  0  0
    3.3115   -2.1411    5.7213 C   0  0  1  0  0  0  0  0  0  0  0  0
    3.7080   -1.9706    4.3655 O   0  0  0  0  0  0  0  0  0  0  0  0
    4.0766   -3.4900    5.9660 C   0  0  1  0  0  0  0  0  0  0  0  0
    4.8261   -3.6357    7.1733 O   0  0  0  0  0  0  0  0  0  0  0  0
    6.0872   -3.1800    7.2966 C   0  0  0  0  0  0  0  0  0  0  0  0
    6.6927   -3.4530    8.6565 C   0  0  0  0  0  0  0  0  0  0  0  0
    6.7163   -2.5494    6.4637 O   0  0  0  0  0  0  0  0  0  0  0  0
    3.0015   -4.6200    5.8092 C   0  0  1  0  0  0  0  0  0  0  0  0
    2.8408   -4.7619    4.4086 O   0  0  0  0  0  0  0  0  0  0  0  0
    3.5069   -6.0424    6.2260 C   0  0  1  0  0  0  0  0  0  0  0  0
    4.9320   -6.2357    6.0776 O   0  0  0  0  0  0  0  0  0  0  0  0
    5.5178   -6.5729    4.8787 C   0  0  0  0  0  0  0  0  0  0  0  0
    4.8540   -6.8335    3.8654 O   0  0  0  0  0  0  0  0  0  0  0  0
    6.9695   -6.5480    4.9090 C   0  0  0  0  0  0  0  0  0  0  0  0
    7.7846   -6.0311    6.3758 S   0  0  0  0  0  0  0  0  0  0  0  0
    9.3259   -6.2640    5.5933 C   0  0  0  0  0  0  0  0  0  0  0  0
    9.2353   -6.7019    4.3400 N   0  0  0  0  0  0  0  0  0  0  0  0
    7.9305   -6.8728    3.9111 C   0  0  0  0  0  0  0  0  0  0  0  0
    7.7192   -7.3691    2.5129 C   0  0  0  0  0  0  0  0  0  0  0  0
    2.8942   -6.6428    7.5050 C   0  0  2  0  0  0  0  0  0  0  0  0
    4.0102   -6.9821    8.3142 O   0  0  0  0  0  0  0  0  0  0  0  0
    1.8902   -7.8386    7.2813 C   0  0  1  0  0  0  0  0  0  0  0  0
    2.3485   -9.0167    7.9293 O   0  0  0  0  0  0  0  0  0  0  0  0
    0.8719   -7.0774    8.1428 C   0  0  1  0  0  0  0  0  0  0  0  0
    0.3657   -7.7693    9.2780 O   0  0  0  0  0  0  0  0  0  0  0  0
    1.8193   -5.8807    8.3539 C   0  0  1  0  0  0  0  0  0  0  0  0
    2.1259   -5.8654    9.7413 O   0  0  0  0  0  0  0  0  0  0  0  0
    1.4548   -4.3677    7.9578 C   0  0  2  0  0  0  0  0  0  0  0  0
    2.4342   -3.4903    8.8045 C   0  0  0  0  0  0  0  0  0  0  0  0
   -0.0331   -3.9931    8.4087 C   0  0  1  0  0  0  0  0  0  0  0  0
   -0.7000   -4.7213    9.5957 C   0  0  0  0  0  0  0  0  0  0  0  0
   -0.1744   -2.6710    8.8918 O   0  0  0  0  0  0  0  0  0  0  0  0
   -1.1028   -4.3508    6.9406 S   0  0  0  0  0  0  0  0  0  0  0  0
   -1.8186   -3.0673    6.5140 O   0  0  0  0  0  0  0  0  0  0  0  0
    0.2529   -4.7367    5.7306 C   0  0  2  0  0  0  0  0  0  0  0  0
   -0.1314   -6.2021    5.2595 C   0  0  0  0  0  0  0  0  0  0  0  0
    0.8468   -7.3069    4.7761 C   0  0  2  0  0  0  0  0  0  0  0  0
    0.3584   -7.9776    3.4353 C   0  0  0  0  0  0  0  0  0  0  0  0
   -1.0879   -8.5334    3.4539 C   0  0  0  0  0  0  0  0  0  0  0  0
    0.4691   -6.9863    2.2497 C   0  0  0  0  0  0  0  0  0  0  0  0
    1.2783   -8.9705    2.9753 O   0  0  0  0  0  0  0  0  0  0  0  0
    1.8073   -9.9641    3.8428 C   0  0  0  0  0  0  0  0  0  0  0  0
    0.8115  -11.1291    4.0506 C   0  0  0  0  0  0  0  0  0  0  0  0
    3.0047  -10.5248    3.0559 C   0  0  0  0  0  0  0  0  0  0  0  0
    2.3359   -9.3101    5.1430 C   0  0  0  0  0  0  0  0  0  0  0  0
    1.3444   -8.3524    5.8655 C   0  0  1  0  0  0  0  0  0  0  0  0
    0.2325   -9.1237    6.2917 O   0  0  0  0  0  0  0  0  0  0  0  0
    1.6023   -4.0839    6.3558 C   0  0  2  0  0  0  0  0  0  0  0  0
    1.7455   -2.5027    5.8333 C   0  0  0  0  0  0  0  0  0  0  0  0
    0.9721   -1.4099    6.6339 C   0  0  0  0  0  0  0  0  0  0  0  0
    1.0959   -2.2362    4.4188 C   0  0  0  0  0  0  0  0  0  0  0  0
    4.6068    0.3458    7.9425 H   0  0  0  0  0  0  0  0  0  0  0  0
    4.4326   -1.4399    8.3444 H   0  0  0  0  0  0  0  0  0  0  0  0
    2.5358    0.5562    5.1460 H   0  0  0  0  0  0  0  0  0  0  0  0
    4.2672    0.5939    4.8003 H   0  0  0  0  0  0  0  0  0  0  0  0
    3.6196    1.3454    6.2532 H   0  0  0  0  0  0  0  0  0  0  0  0
    3.2138   -1.2555    3.9894 H   0  0  0  0  0  0  0  0  0  0  0  0
    4.8134   -3.6561    5.1759 H   0  0  0  0  0  0  0  0  0  0  0  0
    6.0415   -3.0295    9.4074 H   0  0  0  0  0  0  0  0  0  0  0  0
    7.6755   -2.9868    8.7439 H   0  0  0  0  0  0  0  0  0  0  0  0
    6.7946   -4.5279    8.8304 H   0  0  0  0  0  0  0  0  0  0  0  0
    3.6645   -5.0505    4.0387 H   0  0  0  0  0  0  0  0  0  0  0  0
    3.1850   -6.7291    5.4766 H   0  0  0  0  0  0  0  0  0  0  0  0
   10.2694   -6.0723    6.0772 H   0  0  0  0  0  0  0  0  0  0  0  0
    6.7070   -7.6530    2.2796 H   0  0  0  0  0  0  0  0  0  0  0  0
    8.3437   -8.2546    2.3283 H   0  0  0  0  0  0  0  0  0  0  0  0
    8.0302   -6.6246    1.7725 H   0  0  0  0  0  0  0  0  0  0  0  0
    4.4700   -7.6575    7.8325 H   0  0  0  0  0  0  0  0  0  0  0  0
    1.7529   -9.7047    7.6518 H   0  0  0  0  0  0  0  0  0  0  0  0
    0.0050   -6.7610    7.6015 H   0  0  0  0  0  0  0  0  0  0  0  0
    1.0857   -8.2579    9.6657 H   0  0  0  0  0  0  0  0  0  0  0  0
    2.4599   -6.7282    9.9268 H   0  0  0  0  0  0  0  0  0  0  0  0
    2.6519   -2.5314    8.3876 H   0  0  0  0  0  0  0  0  0  0  0  0
    3.3949   -3.9727    8.9471 H   0  0  0  0  0  0  0  0  0  0  0  0
    2.0776   -3.3184    9.8225 H   0  0  0  0  0  0  0  0  0  0  0  0
   -0.0794   -4.7270   10.4946 H   0  0  0  0  0  0  0  0  0  0  0  0
   -0.9680   -5.7375    9.3546 H   0  0  0  0  0  0  0  0  0  0  0  0
   -1.6476   -4.2583    9.8735 H   0  0  0  0  0  0  0  0  0  0  0  0
    0.6010   -2.4594    9.3943 H   0  0  0  0  0  0  0  0  0  0  0  0
   -0.0525   -4.2175    4.8402 H   0  0  0  0  0  0  0  0  0  0  0  0
   -0.9121   -6.6525    5.8629 H   0  0  0  0  0  0  0  0  0  0  0  0
   -0.7643   -5.9913    4.4016 H   0  0  0  0  0  0  0  0  0  0  0  0
    1.6922   -6.7883    4.3789 H   0  0  0  0  0  0  0  0  0  0  0  0
   -1.8250   -7.7391    3.3308 H   0  0  0  0  0  0  0  0  0  0  0  0
   -1.3423   -9.0525    4.3746 H   0  0  0  0  0  0  0  0  0  0  0  0
   -1.2299   -9.2381    2.6318 H   0  0  0  0  0  0  0  0  0  0  0  0
   -0.1849   -6.1270    2.3496 H   0  0  0  0  0  0  0  0  0  0  0  0
    0.2153   -7.4827    1.3121 H   0  0  0  0  0  0  0  0  0  0  0  0
    1.4870   -6.6053    2.1437 H   0  0  0  0  0  0  0  0  0  0  0  0
    1.2495  -11.9186    4.6651 H   0  0  0  0  0  0  0  0  0  0  0  0
    0.5320  -11.5709    3.0930 H   0  0  0  0  0  0  0  0  0  0  0  0
   -0.1157  -10.8362    4.5281 H   0  0  0  0  0  0  0  0  0  0  0  0
    3.5198  -11.2988    3.6254 H   0  0  0  0  0  0  0  0  0  0  0  0
    3.7276   -9.7406    2.8224 H   0  0  0  0  0  0  0  0  0  0  0  0
    2.6867  -10.9656    2.1107 H   0  0  0  0  0  0  0  0  0  0  0  0
    2.6963  -10.1110    5.7845 H   0  0  0  0  0  0  0  0  0  0  0  0
    3.2282   -8.7419    4.8874 H   0  0  0  0  0  0  0  0  0  0  0  0
   -0.0754   -9.6599    5.5707 H   0  0  0  0  0  0  0  0  0  0  0  0
   -0.0857   -1.6310    6.7144 H   0  0  0  0  0  0  0  0  0  0  0  0
    0.9670   -0.4551    6.1210 H   0  0  0  0  0  0  0  0  0  0  0  0
    1.3636   -1.1896    7.6199 H   0  0  0  0  0  0  0  0  0  0  0  0
    0.0055   -2.1867    4.4582 H   0  0  0  0  0  0  0  0  0  0  0  0
    1.3599   -2.9678    3.6549 H   0  0  0  0  0  0  0  0  0  0  0  0
    1.3716   -1.2631    4.0136 H   0  0  0  0  0  0  0  0  0  0  0  0
  1  2  2  0
  1 55  1  0
  1 56  1  0
  2  3  1  0
  2  4  1  0
  3 57  1  0
  3 58  1  0
  3 59  1  0
  4 52  1  0
  4  5  1  6
  4  6  1  0
  5 60  1  0
  6  7  1  0
  6 11  1  0
  6 61  1  6
  7  8  1  0
  8  9  1  0
  8 10  2  0
  9 62  1  0
  9 63  1  0
  9 64  1  0
 11 51  1  0
 11 12  1  6
 11 13  1  0
 12 65  1  0
 13 14  1  0
 13 23  1  0
 13 66  1  6
 14 15  1  0
 15 16  2  0
 15 17  1  0
 17 21  2  0
 17 18  1  0
 18 19  1  0
 19 20  2  0
 19 67  1  0
 20 21  1  0
 21 22  1  0
 22 68  1  0
 22 69  1  0
 22 70  1  0
 23 29  1  0
 23 24  1  1
 23 25  1  0
 24 71  1  0
 25 49  1  0
 25 26  1  1
 25 27  1  0
 26 72  1  0
 27 28  1  0
 27 29  1  0
 27 73  1  6
 28 74  1  0
 29 30  1  1
 29 31  1  0
 30 75  1  0
 31 51  1  0
 31 32  1  1
 31 33  1  0
 32 76  1  0
 32 77  1  0
 32 78  1  0
 33 34  1  0
 33 35  1  1
 36 33  1  1
 34 79  1  0
 34 80  1  0
 34 81  1  0
 35 82  1  0
 36 37  2  0
 36 38  1  0
 38 39  1  0
 38 51  1  0
 38 83  1  6
 39 40  1  0
 39 84  1  0
 39 85  1  0
 40 49  1  0
 40 41  1  0
 40 86  1  6
 41 42  1  0
 41 43  1  0
 41 44  1  0
 42 87  1  0
 42 88  1  0
 42 89  1  0
 43 90  1  0
 43 91  1  0
 43 92  1  0
 44 45  1  0
 45 46  1  0
 45 47  1  0
 45 48  1  0
 46 93  1  0
 46 94  1  0
 46 95  1  0
 47 96  1  0
 47 97  1  0
 47 98  1  0
 48 49  1  0
 48 99  1  0
 48100  1  0
 49 50  1  1
 50101  1  0
 51 52  1  1
 52 53  1  0
 52 54  1  0
 53102  1  0
 53103  1  0
 53104  1  0
 54105  1  0
 54106  1  0
 54107  1  0
M  END
>  <i_m_ct_stereo_status>  (135) 
1

>  <s_m_source_file>  (135) 
/var/tmp/pbs.5075288.sched01/tmpd529dnjr/198klec4xt1.sdf

>  <i_m_source_file_index>  (135) 
39

>  <i_lp_mmshare_version>  (135) 
48012

>  <i_f3d_flags>  (135) 
0

>  <s_epik_input>  (135) 
W0NIM11jMW5bY0hdc2MxQyg9TylPW0NASF0oW0NAXShbQ0BdMjM0KShbT0hdKVtDQEBIXShbQ0BdKFtPSF0pKEMoPVtDSDJdKVtDSDNdKUM0KFtDSDNdKVtDSDNdKU9DKD1PKVtDSDNdKVtDQF01KFtPSF0pW0NAXTYoW09IXSlbQ0BAXTcoW09IXSlbQ0BASF0oQyhbQ0gzXSkoW0NIM10pT0MoW0NIM10pKFtDSDNdKVtDSDJdNylbQ0gyXVtDQEhdM1tTK10oW08tXSlbQ0BdKFtDSDNdKShbT0hdKVtDQEBdMihbQ0gzXSlbQ0BAXTUoW09IXSlbQ0BASF02W09IXQ==

>  <s_epik_cmdline>  (135) 
J2VwaWtfcHl0aG9uJywgJy1waHQnLCAnMi4wJywgJy1waCcsICc3LjAnLCAnLXRuJywgJzgnLCAnLW1hJywgJzIwMCcsICctaW1hZScsICc8aW5maWxlLm1hZT4nLCAnLW9tYWUnLCAnPG91dGZpbGUubWFlPic=

>  <r_lp_tautomer_probability>  (135) 
1

>  <r_epik_Ionization_Penalty>  (135) 
2.35411e-05

>  <r_epik_Ionization_Penalty_Charging>  (135) 
0

>  <r_epik_Ionization_Penalty_Neutral>  (135) 
2.35411e-05

>  <r_epik_State_Penalty>  (135) 
-0

>  <r_epik_Charging_Adjusted_Penalty>  (135) 
0

>  <i_epik_Tot_Q>  (135) 
0

>  <i_epik_Tot_abs_Q>  (135) 
2

>  <s_epik_Chemistry_Notes>  (135) 
This compound has an ester and may undergo hydrolysis at high or low pH.

>  <s_lp_Force_Field>  (135) 
OPLS3e

>  <r_lp_Energy>  (135) 
193.237

>  <b_lp_Chiralities_Consistent>  (135) 
1

>  <s_lp_Variant>  (135) 
92:0-1

>  <s_i_glide_gridfile>  (135) 
pfpi4k_grid

>  <i_i_glide_lignum>  (135) 
39

>  <i_i_glide_rotatable_bonds>  (135) 
14

>  <r_i_docking_score>  (135) 
-3.25913

>  <r_i_glide_ligand_efficiency>  (135) 
-0.0603542

>  <r_i_glide_ligand_efficiency_sa>  (135) 
-0.228125

>  <r_i_glide_ligand_efficiency_ln>  (135) 
-0.653265

>  <r_i_glide_gscore>  (135) 
-3.25913

>  <r_i_glide_lipo>  (135) 
-0.0892745

>  <r_i_glide_hbond>  (135) 
-0.000244625

>  <r_i_glide_metal>  (135) 
-0

>  <r_i_glide_rewards>  (135) 
-0.504126

>  <r_i_glide_evdw>  (135) 
-30.9034

>  <r_i_glide_ecoul>  (135) 
-8.54911

>  <r_i_glide_erotb>  (135) 
0.17016

>  <r_i_glide_esite>  (135) 
-0.00810374

>  <r_i_glide_emodel>  (135) 
-51.072

>  <r_i_glide_energy>  (135) 
-39.4525

>  <r_i_glide_einternal>  (135) 
3.40537

>  <r_i_glide_intrahb_reward>  (135) 
-0.5

>  <i_i_glide_confnum>  (135) 
4

>  <i_i_glide_posenum>  (135) 
27

>  <r_i_glide_eff_state_penalty>  (135) 
0

>  <ligand_id>  (135) 
92

>  <original_smiles>  (135) 
C=C(C)C1(O)C(OC(C)=O)C2(O)C(OC(=O)c3scnc3C)C3(O)C4(O)C(O)C3(O)C3(C)C(C)(O)[S+]([O-])C(CC5C(C)(C)OC(C)(C)CC54O)C23C1(C)C

>  <smiles>  (135) 
[H]OC1([H])C2(O[H])C3(O[H])C([H])([H])C(C([H])([H])[H])(C([H])([H])[H])OC(C([H])([H])[H])(C([H])([H])[H])C3([H])C([H])([H])C3([H])S(=O)C(O[H])(C([H])([H])[H])C4(C([H])([H])[H])C1(O[H])C2(O[H])C([H])(OC(=O)c1sc([H])nc1C([H])([H])[H])C1(O[H])C([H])(OC(=O)C([H])([H])[H])C(O[H])(C(=C([H])[H])C([H])([H])[H])C(C([H])([H])[H])(C([H])([H])[H])C314

$$$$
92:0:1
     RDKit          3D

107113  0  0  1  0  0  0  0  0999 V2000
    4.2090   -0.5648    7.7167 C   0  0  0  0  0  0  0  0  0  0  0  0
    3.6522   -0.6816    6.4867 C   0  0  0  0  0  0  0  0  0  0  0  0
    3.4116    0.6309    5.7348 C   0  0  0  0  0  0  0  0  0  0  0  0
    3.2478   -2.0000    5.7442 C   0  0  1  0  0  0  0  0  0  0  0  0
    3.6319   -1.7578    4.3976 O   0  0  0  0  0  0  0  0  0  0  0  0
    4.0453   -3.3455    5.9246 C   0  0  1  0  0  0  0  0  0  0  0  0
    4.8064   -3.5352    7.1162 O   0  0  0  0  0  0  0  0  0  0  0  0
    6.0699   -3.0946    7.2425 C   0  0  0  0  0  0  0  0  0  0  0  0
    6.6776   -3.4027    8.5946 C   0  0  0  0  0  0  0  0  0  0  0  0
    6.6756   -2.4143    6.4214 O   0  0  0  0  0  0  0  0  0  0  0  0
    2.9890   -4.4869    5.7207 C   0  0  1  0  0  0  0  0  0  0  0  0
    2.8219   -4.5622    4.3179 O   0  0  0  0  0  0  0  0  0  0  0  0
    3.5295   -5.9087    6.0620 C   0  0  1  0  0  0  0  0  0  0  0  0
    4.9585   -6.0619    5.9061 O   0  0  0  0  0  0  0  0  0  0  0  0
    5.5371   -6.3736    4.7049 C   0  0  0  0  0  0  0  0  0  0  0  0
    4.8802   -6.5449    3.6738 O   0  0  0  0  0  0  0  0  0  0  0  0
    6.9939   -6.4155    4.7534 C   0  0  0  0  0  0  0  0  0  0  0  0
    7.7933   -5.9295    6.2402 S   0  0  0  0  0  0  0  0  0  0  0  0
    9.3465   -6.2582    5.5013 C   0  0  0  0  0  0  0  0  0  0  0  0
    9.2598   -6.6995    4.2371 N   0  0  0  0  0  0  0  0  0  0  0  0
    7.9472   -6.7946    3.7806 C   0  0  0  0  0  0  0  0  0  0  0  0
    7.7360   -7.2827    2.3783 C   0  0  0  0  0  0  0  0  0  0  0  0
    2.9308   -6.5832    7.3074 C   0  0  2  0  0  0  0  0  0  0  0  0
    4.0866   -6.9228    8.0499 O   0  0  0  0  0  0  0  0  0  0  0  0
    1.9496   -7.7925    7.0540 C   0  0  1  0  0  0  0  0  0  0  0  0
    2.4547   -8.9571    7.6884 O   0  0  0  0  0  0  0  0  0  0  0  0
    0.9280   -7.0847    7.9571 C   0  0  1  0  0  0  0  0  0  0  0  0
    0.4427   -7.8356    9.0659 O   0  0  0  0  0  0  0  0  0  0  0  0
    1.8552   -5.8799    8.2111 C   0  0  1  0  0  0  0  0  0  0  0  0
    2.1815   -5.9079    9.5924 O   0  0  0  0  0  0  0  0  0  0  0  0
    1.4533   -4.3600    7.8856 C   0  0  2  0  0  0  0  0  0  0  0  0
    2.4167   -3.4977    8.7665 C   0  0  0  0  0  0  0  0  0  0  0  0
   -0.0412   -4.0381    8.3574 C   0  0  1  0  0  0  0  0  0  0  0  0
   -0.6951   -4.8371    9.5061 C   0  0  0  0  0  0  0  0  0  0  0  0
   -0.1867   -2.7385    8.8954 O   0  0  0  0  0  0  0  0  0  0  0  0
   -1.1079   -4.3521    6.8860 S   0  0  0  0  0  0  0  0  0  0  0  0
   -1.8444   -3.0647    6.4805 O   0  0  0  0  0  0  0  0  0  0  0  0
    0.2457   -4.6585    5.6435 C   0  0  2  0  0  0  0  0  0  0  0  0
   -0.1092   -6.1141    5.1161 C   0  0  0  0  0  0  0  0  0  0  0  0
    0.8929   -7.1707    4.5823 C   0  0  2  0  0  0  0  0  0  0  0  0
    0.4130   -7.7848    3.2118 C   0  0  0  0  0  0  0  0  0  0  0  0
   -1.0243   -8.3709    3.2008 C   0  0  0  0  0  0  0  0  0  0  0  0
    0.4887   -6.7416    2.0674 C   0  0  0  0  0  0  0  0  0  0  0  0
    1.3472   -8.7335    2.6967 O   0  0  0  0  0  0  0  0  0  0  0  0
    1.8992   -9.7501    3.5210 C   0  0  0  0  0  0  0  0  0  0  0  0
    0.9293  -10.9462    3.6767 C   0  0  0  0  0  0  0  0  0  0  0  0
    3.1022  -10.2490    2.7012 C   0  0  0  0  0  0  0  0  0  0  0  0
    2.4183   -9.1539    4.8514 C   0  0  0  0  0  0  0  0  0  0  0  0
    1.4069   -8.2596    5.6244 C   0  0  1  0  0  0  0  0  0  0  0  0
    0.2802   -9.0348    6.0035 O   0  0  0  0  0  0  0  0  0  0  0  0
    1.5809   -4.0047    6.2980 C   0  0  2  0  0  0  0  0  0  0  0  0
    1.6915   -2.3994    5.8443 C   0  0  0  0  0  0  0  0  0  0  0  0
    0.8991   -1.3608    6.6959 C   0  0  0  0  0  0  0  0  0  0  0  0
    1.0298   -2.0810    4.4470 C   0  0  0  0  0  0  0  0  0  0  0  0
    4.5176    0.4087    8.0656 H   0  0  0  0  0  0  0  0  0  0  0  0
    4.3722   -1.3850    8.3926 H   0  0  0  0  0  0  0  0  0  0  0  0
    2.4212    0.7115    5.2895 H   0  0  0  0  0  0  0  0  0  0  0  0
    4.1435    0.7964    4.9461 H   0  0  0  0  0  0  0  0  0  0  0  0
    3.4852    1.4612    6.4364 H   0  0  0  0  0  0  0  0  0  0  0  0
    3.1153   -1.0403    4.0537 H   0  0  0  0  0  0  0  0  0  0  0  0
    4.7789   -3.4544    5.1203 H   0  0  0  0  0  0  0  0  0  0  0  0
    6.0438   -2.9786    9.3658 H   0  0  0  0  0  0  0  0  0  0  0  0
    7.6718   -2.9562    8.6821 H   0  0  0  0  0  0  0  0  0  0  0  0
    6.7599   -4.4846    8.7461 H   0  0  0  0  0  0  0  0  0  0  0  0
    3.6478   -4.8230    3.9313 H   0  0  0  0  0  0  0  0  0  0  0  0
    3.2073   -6.5708    5.2942 H   0  0  0  0  0  0  0  0  0  0  0  0
   10.2932   -6.1272    5.9996 H   0  0  0  0  0  0  0  0  0  0  0  0
    6.7129   -7.5113    2.1290 H   0  0  0  0  0  0  0  0  0  0  0  0
    8.3154   -8.1984    2.2114 H   0  0  0  0  0  0  0  0  0  0  0  0
    8.1053   -6.5605    1.6448 H   0  0  0  0  0  0  0  0  0  0  0  0
    3.8098   -7.5214    8.7235 H   0  0  0  0  0  0  0  0  0  0  0  0
    1.8512   -9.6691    7.5089 H   0  0  0  0  0  0  0  0  0  0  0  0
    0.0560   -6.7622    7.4340 H   0  0  0  0  0  0  0  0  0  0  0  0
    1.1583   -8.3739    9.3834 H   0  0  0  0  0  0  0  0  0  0  0  0
    2.3709   -6.8072    9.8121 H   0  0  0  0  0  0  0  0  0  0  0  0
    2.6149   -2.5170    8.3919 H   0  0  0  0  0  0  0  0  0  0  0  0
    3.3873   -3.9660    8.8813 H   0  0  0  0  0  0  0  0  0  0  0  0
    2.0619   -3.3840    9.7926 H   0  0  0  0  0  0  0  0  0  0  0  0
   -0.0695   -4.8823   10.4017 H   0  0  0  0  0  0  0  0  0  0  0  0
   -0.9614   -5.8417    9.2165 H   0  0  0  0  0  0  0  0  0  0  0  0
   -1.6409   -4.3905    9.8127 H   0  0  0  0  0  0  0  0  0  0  0  0
    0.6485   -2.4892    9.2810 H   0  0  0  0  0  0  0  0  0  0  0  0
   -0.0727   -4.1078    4.7740 H   0  0  0  0  0  0  0  0  0  0  0  0
   -0.8792   -6.6152    5.6944 H   0  0  0  0  0  0  0  0  0  0  0  0
   -0.7512   -5.8777    4.2712 H   0  0  0  0  0  0  0  0  0  0  0  0
    1.7208   -6.6124    4.2001 H   0  0  0  0  0  0  0  0  0  0  0  0
   -1.7802   -7.5905    3.1223 H   0  0  0  0  0  0  0  0  0  0  0  0
   -1.2597   -8.9420    4.0954 H   0  0  0  0  0  0  0  0  0  0  0  0
   -1.1553   -9.0397    2.3477 H   0  0  0  0  0  0  0  0  0  0  0  0
   -0.1863   -5.9026    2.2115 H   0  0  0  0  0  0  0  0  0  0  0  0
    0.2427   -7.2014    1.1094 H   0  0  0  0  0  0  0  0  0  0  0  0
    1.4967   -6.3318    1.9755 H   0  0  0  0  0  0  0  0  0  0  0  0
    1.3873  -11.7576    4.2456 H   0  0  0  0  0  0  0  0  0  0  0  0
    0.6418  -11.3496    2.7030 H   0  0  0  0  0  0  0  0  0  0  0  0
    0.0031  -10.6941    4.1853 H   0  0  0  0  0  0  0  0  0  0  0  0
    3.6347  -11.0428    3.2244 H   0  0  0  0  0  0  0  0  0  0  0  0
    3.8111   -9.4404    2.5092 H   0  0  0  0  0  0  0  0  0  0  0  0
    2.7885  -10.6369    1.7338 H   0  0  0  0  0  0  0  0  0  0  0  0
    2.8006   -9.9727    5.4538 H   0  0  0  0  0  0  0  0  0  0  0  0
    3.2956   -8.5550    4.6151 H   0  0  0  0  0  0  0  0  0  0  0  0
    0.5442   -9.9138    6.2447 H   0  0  0  0  0  0  0  0  0  0  0  0
   -0.1534   -1.6068    6.7717 H   0  0  0  0  0  0  0  0  0  0  0  0
    0.8558   -0.3858    6.2288 H   0  0  0  0  0  0  0  0  0  0  0  0
    1.2922   -1.1705    7.6856 H   0  0  0  0  0  0  0  0  0  0  0  0
   -0.0618   -2.0563    4.4933 H   0  0  0  0  0  0  0  0  0  0  0  0
    1.3054   -2.7692    3.6488 H   0  0  0  0  0  0  0  0  0  0  0  0
    1.2813   -1.0839    4.0867 H   0  0  0  0  0  0  0  0  0  0  0  0
  1  2  2  0
  1 55  1  0
  1 56  1  0
  2  3  1  0
  2  4  1  0
  3 57  1  0
  3 58  1  0
  3 59  1  0
  4 52  1  0
  4  5  1  6
  4  6  1  0
  5 60  1  0
  6  7  1  0
  6 11  1  0
  6 61  1  6
  7  8  1  0
  8  9  1  0
  8 10  2  0
  9 62  1  0
  9 63  1  0
  9 64  1  0
 11 51  1  0
 11 12  1  6
 11 13  1  0
 12 65  1  0
 13 14  1  0
 13 23  1  0
 13 66  1  6
 14 15  1  0
 15 16  2  0
 15 17  1  0
 17 21  2  0
 17 18  1  0
 18 19  1  0
 19 20  2  0
 19 67  1  0
 20 21  1  0
 21 22  1  0
 22 68  1  0
 22 69  1  0
 22 70  1  0
 23 29  1  0
 23 24  1  1
 23 25  1  0
 24 71  1  0
 25 49  1  0
 25 26  1  1
 25 27  1  0
 26 72  1  0
 27 28  1  0
 27 29  1  0
 27 73  1  6
 28 74  1  0
 29 30  1  1
 29 31  1  0
 30 75  1  0
 31 51  1  0
 31 32  1  1
 31 33  1  0
 32 76  1  0
 32 77  1  0
 32 78  1  0
 33 34  1  0
 33 35  1  1
 36 33  1  1
 34 79  1  0
 34 80  1  0
 34 81  1  0
 35 82  1  0
 36 37  2  0
 36 38  1  0
 38 39  1  0
 38 51  1  0
 38 83  1  6
 39 40  1  0
 39 84  1  0
 39 85  1  0
 40 49  1  0
 40 41  1  0
 40 86  1  6
 41 42  1  0
 41 43  1  0
 41 44  1  0
 42 87  1  0
 42 88  1  0
 42 89  1  0
 43 90  1  0
 43 91  1  0
 43 92  1  0
 44 45  1  0
 45 46  1  0
 45 47  1  0
 45 48  1  0
 46 93  1  0
 46 94  1  0
 46 95  1  0
 47 96  1  0
 47 97  1  0
 47 98  1  0
 48 49  1  0
 48 99  1  0
 48100  1  0
 49 50  1  1
 50101  1  0
 51 52  1  1
 52 53  1  0
 52 54  1  0
 53102  1  0
 53103  1  0
 53104  1  0
 54105  1  0
 54106  1  0
 54107  1  0
M  END
>  <i_m_ct_stereo_status>  (136) 
1

>  <s_m_source_file>  (136) 
/var/tmp/pbs.5075288.sched01/tmpd529dnjr/198klec4xt1.sdf

>  <i_m_source_file_index>  (136) 
39

>  <i_lp_mmshare_version>  (136) 
48012

>  <i_f3d_flags>  (136) 
0

>  <s_epik_input>  (136) 
W0NIM11jMW5bY0hdc2MxQyg9TylPW0NASF0oW0NAXShbQ0BdMjM0KShbT0hdKVtDQEBIXShbQ0BdKFtPSF0pKEMoPVtDSDJdKVtDSDNdKUM0KFtDSDNdKVtDSDNdKU9DKD1PKVtDSDNdKVtDQF01KFtPSF0pW0NAXTYoW09IXSlbQ0BAXTcoW09IXSlbQ0BASF0oQyhbQ0gzXSkoW0NIM10pT0MoW0NIM10pKFtDSDNdKVtDSDJdNylbQ0gyXVtDQEhdM1tTK10oW08tXSlbQ0BdKFtDSDNdKShbT0hdKVtDQEBdMihbQ0gzXSlbQ0BAXTUoW09IXSlbQ0BASF02W09IXQ==

>  <s_epik_cmdline>  (136) 
J2VwaWtfcHl0aG9uJywgJy1waHQnLCAnMi4wJywgJy1waCcsICc3LjAnLCAnLXRuJywgJzgnLCAnLW1hJywgJzIwMCcsICctaW1hZScsICc8aW5maWxlLm1hZT4nLCAnLW9tYWUnLCAnPG91dGZpbGUubWFlPic=

>  <r_lp_tautomer_probability>  (136) 
1

>  <r_epik_Ionization_Penalty>  (136) 
2.35411e-05

>  <r_epik_Ionization_Penalty_Charging>  (136) 
0

>  <r_epik_Ionization_Penalty_Neutral>  (136) 
2.35411e-05

>  <r_epik_State_Penalty>  (136) 
-0

>  <r_epik_Charging_Adjusted_Penalty>  (136) 
0

>  <i_epik_Tot_Q>  (136) 
0

>  <i_epik_Tot_abs_Q>  (136) 
2

>  <s_epik_Chemistry_Notes>  (136) 
This compound has an ester and may undergo hydrolysis at high or low pH.

>  <s_lp_Force_Field>  (136) 
OPLS3e

>  <r_lp_Energy>  (136) 
193.237

>  <b_lp_Chiralities_Consistent>  (136) 
1

>  <s_lp_Variant>  (136) 
92:0-1

>  <s_i_glide_gridfile>  (136) 
pfpi4k_grid

>  <i_i_glide_lignum>  (136) 
39

>  <i_i_glide_rotatable_bonds>  (136) 
14

>  <r_i_docking_score>  (136) 
-3.21325

>  <r_i_glide_ligand_efficiency>  (136) 
-0.0595046

>  <r_i_glide_ligand_efficiency_sa>  (136) 
-0.224913

>  <r_i_glide_ligand_efficiency_ln>  (136) 
-0.644069

>  <r_i_glide_gscore>  (136) 
-3.21325

>  <r_i_glide_lipo>  (136) 
-0.172845

>  <r_i_glide_hbond>  (136) 
-0.000612024

>  <r_i_glide_metal>  (136) 
-0

>  <r_i_glide_rewards>  (136) 
-0.506756

>  <r_i_glide_evdw>  (136) 
-31.1253

>  <r_i_glide_ecoul>  (136) 
-7.59147

>  <r_i_glide_erotb>  (136) 
0.17016

>  <r_i_glide_esite>  (136) 
-0.00821056

>  <r_i_glide_emodel>  (136) 
-50.7291

>  <r_i_glide_energy>  (136) 
-38.7168

>  <r_i_glide_einternal>  (136) 
2.49391

>  <r_i_glide_intrahb_reward>  (136) 
-0.5

>  <i_i_glide_confnum>  (136) 
4

>  <i_i_glide_posenum>  (136) 
1

>  <r_i_glide_eff_state_penalty>  (136) 
0

>  <ligand_id>  (136) 
92

>  <original_smiles>  (136) 
C=C(C)C1(O)C(OC(C)=O)C2(O)C(OC(=O)c3scnc3C)C3(O)C4(O)C(O)C3(O)C3(C)C(C)(O)[S+]([O-])C(CC5C(C)(C)OC(C)(C)CC54O)C23C1(C)C

>  <smiles>  (136) 
[H]OC1([H])C2(O[H])C3(O[H])C([H])([H])C(C([H])([H])[H])(C([H])([H])[H])OC(C([H])([H])[H])(C([H])([H])[H])C3([H])C([H])([H])C3([H])S(=O)C(O[H])(C([H])([H])[H])C4(C([H])([H])[H])C1(O[H])C2(O[H])C([H])(OC(=O)c1sc([H])nc1C([H])([H])[H])C1(O[H])C([H])(OC(=O)C([H])([H])[H])C(O[H])(C(=C([H])[H])C([H])([H])[H])C(C([H])([H])[H])(C([H])([H])[H])C314

$$$$
92:0:2
     RDKit          3D

107113  0  0  1  0  0  0  0  0999 V2000
    4.2710   -0.6608    7.7850 C   0  0  0  0  0  0  0  0  0  0  0  0
    3.7393   -0.7630    6.5526 C   0  0  0  0  0  0  0  0  0  0  0  0
    3.5282    0.5503    5.7880 C   0  0  0  0  0  0  0  0  0  0  0  0
    3.3183   -2.0758    5.7954 C   0  0  1  0  0  0  0  0  0  0  0  0
    3.7198   -1.8353    4.4562 O   0  0  0  0  0  0  0  0  0  0  0  0
    4.0861   -3.4231    5.9832 C   0  0  1  0  0  0  0  0  0  0  0  0
    4.8302   -3.5990    7.1909 O   0  0  0  0  0  0  0  0  0  0  0  0
    6.1151   -3.1922    7.2956 C   0  0  0  0  0  0  0  0  0  0  0  0
    6.6940   -3.5011    8.6663 C   0  0  0  0  0  0  0  0  0  0  0  0
    6.7325   -2.5525    6.4581 O   0  0  0  0  0  0  0  0  0  0  0  0
    3.0168   -4.5529    5.7700 C   0  0  1  0  0  0  0  0  0  0  0  0
    2.8631   -4.6338    4.3598 O   0  0  0  0  0  0  0  0  0  0  0  0
    3.5300   -5.9840    6.1136 C   0  0  1  0  0  0  0  0  0  0  0  0
    4.9571   -6.1389    5.9689 O   0  0  0  0  0  0  0  0  0  0  0  0
    5.5625   -6.4838    4.7759 C   0  0  0  0  0  0  0  0  0  0  0  0
    4.9040   -6.6981    3.7440 O   0  0  0  0  0  0  0  0  0  0  0  0
    7.0072   -6.4928    4.8404 C   0  0  0  0  0  0  0  0  0  0  0  0
    7.8063   -5.9971    6.3171 S   0  0  0  0  0  0  0  0  0  0  0  0
    9.3580   -6.2591    5.5517 C   0  0  0  0  0  0  0  0  0  0  0  0
    9.2751   -6.6980    4.3025 N   0  0  0  0  0  0  0  0  0  0  0  0
    7.9677   -6.8463    3.8575 C   0  0  0  0  0  0  0  0  0  0  0  0
    7.7677   -7.3332    2.4632 C   0  0  0  0  0  0  0  0  0  0  0  0
    2.9218   -6.6560    7.3575 C   0  0  2  0  0  0  0  0  0  0  0  0
    4.0583   -7.0180    8.1183 O   0  0  0  0  0  0  0  0  0  0  0  0
    1.9193   -7.8338    7.0864 C   0  0  1  0  0  0  0  0  0  0  0  0
    2.3534   -9.0327    7.7077 O   0  0  0  0  0  0  0  0  0  0  0  0
    0.8985   -7.1180    7.9867 C   0  0  1  0  0  0  0  0  0  0  0  0
    0.4007   -7.8554    9.0947 O   0  0  0  0  0  0  0  0  0  0  0  0
    1.8499   -5.9307    8.2466 C   0  0  1  0  0  0  0  0  0  0  0  0
    2.1627   -5.9774    9.6392 O   0  0  0  0  0  0  0  0  0  0  0  0
    1.4727   -4.4034    7.9193 C   0  0  2  0  0  0  0  0  0  0  0  0
    2.4397   -3.5651    8.8093 C   0  0  0  0  0  0  0  0  0  0  0  0
   -0.0213   -4.0615    8.3790 C   0  0  1  0  0  0  0  0  0  0  0  0
   -0.6869   -4.8478    9.5243 C   0  0  0  0  0  0  0  0  0  0  0  0
   -0.1691   -2.7675    8.9238 O   0  0  0  0  0  0  0  0  0  0  0  0
   -1.0874   -4.3658    6.8983 S   0  0  0  0  0  0  0  0  0  0  0  0
   -1.8225   -3.0812    6.5299 O   0  0  0  0  0  0  0  0  0  0  0  0
    0.2778   -4.6875    5.6738 C   0  0  2  0  0  0  0  0  0  0  0  0
   -0.0989   -6.1371    5.1313 C   0  0  0  0  0  0  0  0  0  0  0  0
    0.8898   -7.2069    4.6052 C   0  0  2  0  0  0  0  0  0  0  0  0
    0.4097   -7.8118    3.2317 C   0  0  0  0  0  0  0  0  0  0  0  0
   -1.0374   -8.3731    3.2105 C   0  0  0  0  0  0  0  0  0  0  0  0
    0.5146   -6.7642    2.0913 C   0  0  0  0  0  0  0  0  0  0  0  0
    1.3342   -8.7754    2.7293 O   0  0  0  0  0  0  0  0  0  0  0  0
    1.8634   -9.8005    3.5535 C   0  0  0  0  0  0  0  0  0  0  0  0
    0.8735  -10.9838    3.6966 C   0  0  0  0  0  0  0  0  0  0  0  0
    3.0699  -10.3082    2.7468 C   0  0  0  0  0  0  0  0  0  0  0  0
    2.3811   -9.2111    4.8915 C   0  0  0  0  0  0  0  0  0  0  0  0
    1.3855   -8.2927    5.6513 C   0  0  1  0  0  0  0  0  0  0  0  0
    0.2739   -9.0901    6.0352 O   0  0  0  0  0  0  0  0  0  0  0  0
    1.6190   -4.0495    6.3355 C   0  0  2  0  0  0  0  0  0  0  0  0
    1.7561   -2.4488    5.8855 C   0  0  0  0  0  0  0  0  0  0  0  0
    0.9691   -1.3962    6.7270 C   0  0  0  0  0  0  0  0  0  0  0  0
    1.1087   -2.1158    4.4854 C   0  0  0  0  0  0  0  0  0  0  0  0
    4.5733    0.3114    8.1441 H   0  0  0  0  0  0  0  0  0  0  0  0
    4.4121   -1.4858    8.4630 H   0  0  0  0  0  0  0  0  0  0  0  0
    2.5452    0.6435    5.3330 H   0  0  0  0  0  0  0  0  0  0  0  0
    4.2803    0.6979    5.0146 H   0  0  0  0  0  0  0  0  0  0  0  0
    3.6128    1.3909    6.4797 H   0  0  0  0  0  0  0  0  0  0  0  0
    3.2162   -1.1116    4.1196 H   0  0  0  0  0  0  0  0  0  0  0  0
    4.8236   -3.5537    5.1929 H   0  0  0  0  0  0  0  0  0  0  0  0
    6.0480   -3.1084    9.4427 H   0  0  0  0  0  0  0  0  0  0  0  0
    7.6876   -3.0615    8.7830 H   0  0  0  0  0  0  0  0  0  0  0  0
    6.7883   -4.5912    8.8147 H   0  0  0  0  0  0  0  0  0  0  0  0
    3.6942   -4.8961    3.9860 H   0  0  0  0  0  0  0  0  0  0  0  0
    3.2119   -6.6465    5.3396 H   0  0  0  0  0  0  0  0  0  0  0  0
   10.2980   -6.0959    6.0607 H   0  0  0  0  0  0  0  0  0  0  0  0
    6.7601   -7.5932    2.2089 H   0  0  0  0  0  0  0  0  0  0  0  0
    8.3772   -8.2392    2.2781 H   0  0  0  0  0  0  0  0  0  0  0  0
    8.1109   -6.5996    1.7137 H   0  0  0  0  0  0  0  0  0  0  0  0
    3.7620   -7.6376    8.7654 H   0  0  0  0  0  0  0  0  0  0  0  0
    1.7584   -9.7113    7.4133 H   0  0  0  0  0  0  0  0  0  0  0  0
    0.0193   -6.7937    7.4578 H   0  0  0  0  0  0  0  0  0  0  0  0
    1.0950   -8.4353    9.3821 H   0  0  0  0  0  0  0  0  0  0  0  0
    2.3206   -6.8738    9.8508 H   0  0  0  0  0  0  0  0  0  0  0  0
    2.6474   -2.5814    8.4422 H   0  0  0  0  0  0  0  0  0  0  0  0
    3.4061   -4.0444    8.9350 H   0  0  0  0  0  0  0  0  0  0  0  0
    2.0773   -3.4456    9.8325 H   0  0  0  0  0  0  0  0  0  0  0  0
   -0.0737   -4.8940   10.4290 H   0  0  0  0  0  0  0  0  0  0  0  0
   -0.9499   -5.8528    9.2309 H   0  0  0  0  0  0  0  0  0  0  0  0
   -1.6404   -4.4055    9.8166 H   0  0  0  0  0  0  0  0  0  0  0  0
    0.4655   -2.6561    9.6156 H   0  0  0  0  0  0  0  0  0  0  0  0
   -0.0238   -4.1305    4.8021 H   0  0  0  0  0  0  0  0  0  0  0  0
   -0.8821   -6.6279    5.7014 H   0  0  0  0  0  0  0  0  0  0  0  0
   -0.7323   -5.8856    4.2822 H   0  0  0  0  0  0  0  0  0  0  0  0
    1.7285   -6.6648    4.2331 H   0  0  0  0  0  0  0  0  0  0  0  0
   -1.7760   -7.5774    3.1231 H   0  0  0  0  0  0  0  0  0  0  0  0
   -1.2964   -8.9396    4.1045 H   0  0  0  0  0  0  0  0  0  0  0  0
   -1.1689   -9.0315    2.3513 H   0  0  0  0  0  0  0  0  0  0  0  0
   -0.1486   -5.9177    2.2296 H   0  0  0  0  0  0  0  0  0  0  0  0
    0.2696   -7.2200    1.1318 H   0  0  0  0  0  0  0  0  0  0  0  0
    1.5328   -6.3715    2.0105 H   0  0  0  0  0  0  0  0  0  0  0  0
    1.3172  -11.8008    4.2691 H   0  0  0  0  0  0  0  0  0  0  0  0
    0.6054  -11.3766    2.7174 H   0  0  0  0  0  0  0  0  0  0  0  0
   -0.0639  -10.7270    4.1854 H   0  0  0  0  0  0  0  0  0  0  0  0
    3.5794  -11.1207    3.2664 H   0  0  0  0  0  0  0  0  0  0  0  0
    3.7963   -9.5115    2.5670 H   0  0  0  0  0  0  0  0  0  0  0  0
    2.7527  -10.6680    1.7714 H   0  0  0  0  0  0  0  0  0  0  0  0
    2.7381  -10.0377    5.4990 H   0  0  0  0  0  0  0  0  0  0  0  0
    3.2760   -8.6330    4.6722 H   0  0  0  0  0  0  0  0  0  0  0  0
   -0.0291   -9.6004    5.2948 H   0  0  0  0  0  0  0  0  0  0  0  0
   -0.0873   -1.6327    6.7992 H   0  0  0  0  0  0  0  0  0  0  0  0
    0.9642   -0.4193    6.2611 H   0  0  0  0  0  0  0  0  0  0  0  0
    1.3507   -1.2195    7.7275 H   0  0  0  0  0  0  0  0  0  0  0  0
    0.0163   -2.0772    4.5189 H   0  0  0  0  0  0  0  0  0  0  0  0
    1.3818   -2.8083    3.6879 H   0  0  0  0  0  0  0  0  0  0  0  0
    1.3830   -1.1233    4.1277 H   0  0  0  0  0  0  0  0  0  0  0  0
  1  2  2  0
  1 55  1  0
  1 56  1  0
  2  3  1  0
  2  4  1  0
  3 57  1  0
  3 58  1  0
  3 59  1  0
  4 52  1  0
  4  5  1  6
  4  6  1  0
  5 60  1  0
  6  7  1  0
  6 11  1  0
  6 61  1  6
  7  8  1  0
  8  9  1  0
  8 10  2  0
  9 62  1  0
  9 63  1  0
  9 64  1  0
 11 51  1  0
 11 12  1  6
 11 13  1  0
 12 65  1  0
 13 14  1  0
 13 23  1  0
 13 66  1  6
 14 15  1  0
 15 16  2  0
 15 17  1  0
 17 21  2  0
 17 18  1  0
 18 19  1  0
 19 20  2  0
 19 67  1  0
 20 21  1  0
 21 22  1  0
 22 68  1  0
 22 69  1  0
 22 70  1  0
 23 29  1  0
 23 24  1  1
 23 25  1  0
 24 71  1  0
 25 49  1  0
 25 26  1  1
 25 27  1  0
 26 72  1  0
 27 28  1  0
 27 29  1  0
 27 73  1  6
 28 74  1  0
 29 30  1  1
 29 31  1  0
 30 75  1  0
 31 51  1  0
 31 32  1  1
 31 33  1  0
 32 76  1  0
 32 77  1  0
 32 78  1  0
 33 34  1  0
 33 35  1  1
 36 33  1  1
 34 79  1  0
 34 80  1  0
 34 81  1  0
 35 82  1  0
 36 37  2  0
 36 38  1  0
 38 39  1  0
 38 51  1  0
 38 83  1  6
 39 40  1  0
 39 84  1  0
 39 85  1  0
 40 49  1  0
 40 41  1  0
 40 86  1  6
 41 42  1  0
 41 43  1  0
 41 44  1  0
 42 87  1  0
 42 88  1  0
 42 89  1  0
 43 90  1  0
 43 91  1  0
 43 92  1  0
 44 45  1  0
 45 46  1  0
 45 47  1  0
 45 48  1  0
 46 93  1  0
 46 94  1  0
 46 95  1  0
 47 96  1  0
 47 97  1  0
 47 98  1  0
 48 49  1  0
 48 99  1  0
 48100  1  0
 49 50  1  1
 50101  1  0
 51 52  1  1
 52 53  1  0
 52 54  1  0
 53102  1  0
 53103  1  0
 53104  1  0
 54105  1  0
 54106  1  0
 54107  1  0
M  END
>  <i_m_ct_stereo_status>  (137) 
1

>  <s_m_source_file>  (137) 
/var/tmp/pbs.5075288.sched01/tmpd529dnjr/198klec4xt1.sdf

>  <i_m_source_file_index>  (137) 
39

>  <i_lp_mmshare_version>  (137) 
48012

>  <i_f3d_flags>  (137) 
0

>  <s_epik_input>  (137) 
W0NIM11jMW5bY0hdc2MxQyg9TylPW0NASF0oW0NAXShbQ0BdMjM0KShbT0hdKVtDQEBIXShbQ0BdKFtPSF0pKEMoPVtDSDJdKVtDSDNdKUM0KFtDSDNdKVtDSDNdKU9DKD1PKVtDSDNdKVtDQF01KFtPSF0pW0NAXTYoW09IXSlbQ0BAXTcoW09IXSlbQ0BASF0oQyhbQ0gzXSkoW0NIM10pT0MoW0NIM10pKFtDSDNdKVtDSDJdNylbQ0gyXVtDQEhdM1tTK10oW08tXSlbQ0BdKFtDSDNdKShbT0hdKVtDQEBdMihbQ0gzXSlbQ0BAXTUoW09IXSlbQ0BASF02W09IXQ==

>  <s_epik_cmdline>  (137) 
J2VwaWtfcHl0aG9uJywgJy1waHQnLCAnMi4wJywgJy1waCcsICc3LjAnLCAnLXRuJywgJzgnLCAnLW1hJywgJzIwMCcsICctaW1hZScsICc8aW5maWxlLm1hZT4nLCAnLW9tYWUnLCAnPG91dGZpbGUubWFlPic=

>  <r_lp_tautomer_probability>  (137) 
1

>  <r_epik_Ionization_Penalty>  (137) 
2.35411e-05

>  <r_epik_Ionization_Penalty_Charging>  (137) 
0

>  <r_epik_Ionization_Penalty_Neutral>  (137) 
2.35411e-05

>  <r_epik_State_Penalty>  (137) 
-0

>  <r_epik_Charging_Adjusted_Penalty>  (137) 
0

>  <i_epik_Tot_Q>  (137) 
0

>  <i_epik_Tot_abs_Q>  (137) 
2

>  <s_epik_Chemistry_Notes>  (137) 
This compound has an ester and may undergo hydrolysis at high or low pH.

>  <s_lp_Force_Field>  (137) 
OPLS3e

>  <r_lp_Energy>  (137) 
193.237

>  <b_lp_Chiralities_Consistent>  (137) 
1

>  <s_lp_Variant>  (137) 
92:0-1

>  <s_i_glide_gridfile>  (137) 
pfpi4k_grid

>  <i_i_glide_lignum>  (137) 
39

>  <i_i_glide_rotatable_bonds>  (137) 
14

>  <r_i_docking_score>  (137) 
-3.19138

>  <r_i_glide_ligand_efficiency>  (137) 
-0.0590996

>  <r_i_glide_ligand_efficiency_sa>  (137) 
-0.223383

>  <r_i_glide_ligand_efficiency_ln>  (137) 
-0.639685

>  <r_i_glide_gscore>  (137) 
-3.19138

>  <r_i_glide_lipo>  (137) 
-0.15006

>  <r_i_glide_hbond>  (137) 
-0.000487509

>  <r_i_glide_metal>  (137) 
-0

>  <r_i_glide_rewards>  (137) 
-0.504311

>  <r_i_glide_evdw>  (137) 
-31.3088

>  <r_i_glide_ecoul>  (137) 
-7.55177

>  <r_i_glide_erotb>  (137) 
0.17016

>  <r_i_glide_esite>  (137) 
-0.00847795

>  <r_i_glide_emodel>  (137) 
-50.7022

>  <r_i_glide_energy>  (137) 
-38.8605

>  <r_i_glide_einternal>  (137) 
2.53255

>  <r_i_glide_intrahb_reward>  (137) 
-0.5

>  <i_i_glide_confnum>  (137) 
6

>  <i_i_glide_posenum>  (137) 
8

>  <r_i_glide_eff_state_penalty>  (137) 
0

>  <ligand_id>  (137) 
92

>  <original_smiles>  (137) 
C=C(C)C1(O)C(OC(C)=O)C2(O)C(OC(=O)c3scnc3C)C3(O)C4(O)C(O)C3(O)C3(C)C(C)(O)[S+]([O-])C(CC5C(C)(C)OC(C)(C)CC54O)C23C1(C)C

>  <smiles>  (137) 
[H]OC1([H])C2(O[H])C3(O[H])C([H])([H])C(C([H])([H])[H])(C([H])([H])[H])OC(C([H])([H])[H])(C([H])([H])[H])C3([H])C([H])([H])C3([H])S(=O)C(O[H])(C([H])([H])[H])C4(C([H])([H])[H])C1(O[H])C2(O[H])C([H])(OC(=O)c1sc([H])nc1C([H])([H])[H])C1(O[H])C([H])(OC(=O)C([H])([H])[H])C(O[H])(C(=C([H])[H])C([H])([H])[H])C(C([H])([H])[H])(C([H])([H])[H])C314

$$$$
97:0:0
     RDKit          3D

128136  0  0  1  0  0  0  0  0999 V2000
    4.5569   -0.5943    0.1151 C   0  0  0  0  0  0  0  0  0  0  0  0
    5.4346   -1.8344   -0.0848 C   0  0  0  0  0  0  0  0  0  0  0  0
    6.2290   -1.9007   -1.0334 O   0  0  0  0  0  0  0  0  0  0  0  0
    5.3493   -2.7855    0.8844 O   0  0  0  0  0  0  0  0  0  0  0  0
    4.5351   -2.6796    2.0700 C   0  0  2  0  0  0  0  0  0  0  0  0
    5.4086   -2.1969    3.3413 C   0  0  0  0  0  0  0  0  0  0  0  0
    4.8639   -1.4467    4.6513 C   0  0  1  0  0  0  0  0  0  0  0  0
    3.5902   -1.5868    5.1697 O   0  0  0  0  0  0  0  0  0  0  0  0
    4.3571   -2.3100    5.9754 C   0  0  1  0  0  0  0  0  0  0  0  0
    3.4187   -3.5920    6.2633 C   0  0  2  0  0  0  0  0  0  0  0  0
    1.8674   -3.3658    6.4969 C   0  0  1  0  0  0  0  0  0  0  0  0
    1.2319   -4.5544    6.9879 O   0  0  0  0  0  0  0  0  0  0  0  0
   -0.0933   -4.7135    7.0625 C   0  0  0  0  0  0  0  0  0  0  0  0
   -0.4779   -5.9773    7.8139 C   0  0  0  0  0  0  0  0  0  0  0  0
   -0.9365   -3.9685    6.6045 O   0  0  0  0  0  0  0  0  0  0  0  0
    1.5736   -2.1966    7.4348 C   0  0  1  0  0  0  0  0  0  0  0  0
    2.4067   -2.3628    8.7259 C   0  0  0  0  0  0  0  0  0  0  0  0
    3.7277   -2.9069    8.5810 O   0  0  0  0  0  0  0  0  0  0  0  0
    3.9835   -4.0310    7.7111 C   0  0  0  0  0  0  0  0  0  0  0  0
    3.4322   -5.3108    8.3933 C   0  0  0  0  0  0  0  0  0  0  0  0
    5.5377   -4.1187    7.8618 C   0  0  0  0  0  0  0  0  0  0  0  0
    1.7123   -0.9764    6.7078 O   0  0  0  0  0  0  0  0  0  0  0  0
    0.6615   -0.6514    5.8235 C   0  0  1  0  0  0  0  0  0  0  0  0
   -0.4712   -0.2434    6.5404 O   0  0  0  0  0  0  0  0  0  0  0  0
   -1.6483   -0.1171    5.7836 C   0  0  1  0  0  0  0  0  0  0  0  0
   -2.2437   -1.5158    5.5023 C   0  0  0  0  0  0  0  0  0  0  0  0
   -2.6091    0.5751    6.5355 O   0  0  0  0  0  0  0  0  0  0  0  0
   -1.4096    0.6539    4.4545 C   0  0  1  0  0  0  0  0  0  0  0  0
   -2.3758    1.6375    4.1454 O   0  0  0  0  0  0  0  0  0  0  0  0
   -0.0413    1.3574    4.3172 C   0  0  1  0  0  0  0  0  0  0  0  0
   -0.0521    1.4643    2.8875 O   0  0  0  0  0  0  0  0  0  0  0  0
    0.0382    2.8858    4.7712 C   0  0  2  0  0  0  0  0  0  0  0  0
    0.9217    3.6877    3.8280 C   0  0  0  0  0  0  0  0  0  0  0  0
    2.1927    4.1581    3.9473 C   0  0  0  0  0  0  0  0  0  0  0  0
    2.7664    4.9852    2.8048 C   0  0  0  0  0  0  0  0  0  0  0  0
    3.1312    4.0046    5.1105 C   0  0  0  0  0  0  0  0  0  0  0  0
    4.2417    4.5343    5.0782 O   0  0  0  0  0  0  0  0  0  0  0  0
    2.7888    3.3648    6.2953 O   0  0  0  0  0  0  0  0  0  0  0  0
    1.7677    2.4045    6.4703 C   0  0  2  0  0  0  0  0  0  0  0  0
    2.0785    1.8570    7.9064 C   0  0  0  0  0  0  0  0  0  0  0  0
    1.1375    0.9690    8.5135 O   0  0  0  0  0  0  0  0  0  0  0  0
    2.0549    1.3451    5.5470 O   0  0  0  0  0  0  0  0  0  0  0  0
    1.1582    0.4543    4.8369 C   0  0  1  0  0  0  0  0  0  0  0  0
    2.0592   -0.2794    3.6894 C   0  0  1  0  0  0  0  0  0  0  0  0
    3.5242    0.3039    3.4054 C   0  0  1  0  0  0  0  0  0  0  0  0
    3.3968    1.6686    3.0946 O   0  0  0  0  0  0  0  0  0  0  0  0
    4.7605    0.0505    4.3898 C   0  0  0  0  0  0  0  0  0  0  0  0
    4.7215    0.7866    5.5926 O   0  0  0  0  0  0  0  0  0  0  0  0
    5.8729    0.4958    3.6790 O   0  0  0  0  0  0  0  0  0  0  0  0
    1.8130   -2.1680    3.3081 S   0  0  0  0  0  0  0  0  0  0  0  0
    0.3507   -2.6460    3.4615 O   0  0  0  0  0  0  0  0  0  0  0  0
    3.1566   -3.5483    3.6797 C   0  0  1  0  0  0  0  0  0  0  0  0
    3.9068   -4.0456    2.4470 C   0  0  2  0  0  0  0  0  0  0  0  0
    5.0952   -4.8211    2.4795 O   0  0  0  0  0  0  0  0  0  0  0  0
    2.8674   -5.0225    1.8583 C   0  0  0  0  0  0  0  0  0  0  0  0
    2.2279   -4.9306    0.6599 C   0  0  0  0  0  0  0  0  0  0  0  0
    1.2586   -5.9863    0.1239 C   0  0  0  0  0  0  0  0  0  0  0  0
    2.4299   -3.7868   -0.3178 C   0  0  0  0  0  0  0  0  0  0  0  0
    2.5921   -6.1463    2.9488 C   0  0  0  0  0  0  0  0  0  0  0  0
    2.4343   -5.7102    4.5084 C   0  0  1  0  0  0  0  0  0  0  0  0
    2.5090   -6.8627    5.3307 O   0  0  0  0  0  0  0  0  0  0  0  0
    3.4176   -4.5136    4.9470 C   0  0  2  0  0  0  0  0  0  0  0  0
    4.7798   -5.2685    5.1144 C   0  0  0  0  0  0  0  0  0  0  0  0
    0.3797    3.1491    6.2511 C   0  0  0  0  0  0  0  0  0  0  0  0
    0.4530    4.6929    6.5543 C   0  0  0  0  0  0  0  0  0  0  0  0
   -0.7511    2.7773    7.2401 C   0  0  0  0  0  0  0  0  0  0  0  0
    4.9279   -0.1054    1.0004 H   0  0  0  0  0  0  0  0  0  0  0  0
    3.4883   -0.8447    0.2165 H   0  0  0  0  0  0  0  0  0  0  0  0
    4.6183    0.0745   -0.7491 H   0  0  0  0  0  0  0  0  0  0  0  0
    3.7479   -1.9886    1.8468 H   0  0  0  0  0  0  0  0  0  0  0  0
    5.9405   -3.0350    3.7654 H   0  0  0  0  0  0  0  0  0  0  0  0
    6.2092   -1.6249    2.8775 H   0  0  0  0  0  0  0  0  0  0  0  0
    4.6501   -1.7591    6.8607 H   0  0  0  0  0  0  0  0  0  0  0  0
    1.3806   -3.1912    5.5530 H   0  0  0  0  0  0  0  0  0  0  0  0
    0.0365   -6.0173    8.7713 H   0  0  0  0  0  0  0  0  0  0  0  0
   -0.2282   -6.8568    7.2175 H   0  0  0  0  0  0  0  0  0  0  0  0
   -1.5476   -5.9353    8.0123 H   0  0  0  0  0  0  0  0  0  0  0  0
    0.5404   -2.1769    7.7787 H   0  0  0  0  0  0  0  0  0  0  0  0
    2.4702   -1.4163    9.2557 H   0  0  0  0  0  0  0  0  0  0  0  0
    1.8711   -3.0236    9.4080 H   0  0  0  0  0  0  0  0  0  0  0  0
    3.2835   -6.1119    7.6741 H   0  0  0  0  0  0  0  0  0  0  0  0
    2.4844   -5.1528    8.9035 H   0  0  0  0  0  0  0  0  0  0  0  0
    4.1085   -5.6863    9.1609 H   0  0  0  0  0  0  0  0  0  0  0  0
    5.9401   -5.0919    7.5891 H   0  0  0  0  0  0  0  0  0  0  0  0
    5.8178   -3.9708    8.9063 H   0  0  0  0  0  0  0  0  0  0  0  0
    6.1083   -3.3778    7.3073 H   0  0  0  0  0  0  0  0  0  0  0  0
    0.3172   -1.5154    5.2961 H   0  0  0  0  0  0  0  0  0  0  0  0
   -2.3199   -2.0575    6.4335 H   0  0  0  0  0  0  0  0  0  0  0  0
   -1.6113   -2.0886    4.8022 H   0  0  0  0  0  0  0  0  0  0  0  0
   -3.2385   -1.4208    5.0530 H   0  0  0  0  0  0  0  0  0  0  0  0
   -2.4350    1.4984    6.4385 H   0  0  0  0  0  0  0  0  0  0  0  0
   -1.4704   -0.1195    3.6788 H   0  0  0  0  0  0  0  0  0  0  0  0
   -3.0456    1.2086    3.6444 H   0  0  0  0  0  0  0  0  0  0  0  0
   -0.1636    0.6056    2.5184 H   0  0  0  0  0  0  0  0  0  0  0  0
   -0.9212    3.3713    4.5966 H   0  0  0  0  0  0  0  0  0  0  0  0
    0.4113    3.9301    2.9032 H   0  0  0  0  0  0  0  0  0  0  0  0
    3.0328    5.9928    3.1347 H   0  0  0  0  0  0  0  0  0  0  0  0
    2.0585    5.0932    1.9842 H   0  0  0  0  0  0  0  0  0  0  0  0
    3.6601    4.5160    2.3941 H   0  0  0  0  0  0  0  0  0  0  0  0
    3.0961    1.4375    7.8776 H   0  0  0  0  0  0  0  0  0  0  0  0
    2.1319    2.7184    8.5759 H   0  0  0  0  0  0  0  0  0  0  0  0
    1.4111    0.8390    9.3950 H   0  0  0  0  0  0  0  0  0  0  0  0
    1.6270    0.0189    2.7523 H   0  0  0  0  0  0  0  0  0  0  0  0
    3.7334   -0.2036    2.4990 H   0  0  0  0  0  0  0  0  0  0  0  0
    4.2201    1.9657    2.6727 H   0  0  0  0  0  0  0  0  0  0  0  0
    4.2583    1.5858    5.3863 H   0  0  0  0  0  0  0  0  0  0  0  0
    6.6449    0.1651    4.0992 H   0  0  0  0  0  0  0  0  0  0  0  0
    2.1343   -3.8279    3.5269 H   0  0  0  0  0  0  0  0  0  0  0  0
    5.4915   -4.7497    1.6249 H   0  0  0  0  0  0  0  0  0  0  0  0
    1.4715   -6.1193   -0.9337 H   0  0  0  0  0  0  0  0  0  0  0  0
    0.2094   -5.7143    0.1487 H   0  0  0  0  0  0  0  0  0  0  0  0
    1.3490   -6.9528    0.6205 H   0  0  0  0  0  0  0  0  0  0  0  0
    1.5042   -3.5418   -0.8392 H   0  0  0  0  0  0  0  0  0  0  0  0
    3.1771   -4.0410   -1.0735 H   0  0  0  0  0  0  0  0  0  0  0  0
    2.7240   -2.8823    0.2019 H   0  0  0  0  0  0  0  0  0  0  0  0
    1.6982   -6.7091    2.6917 H   0  0  0  0  0  0  0  0  0  0  0  0
    3.4124   -6.8594    2.8557 H   0  0  0  0  0  0  0  0  0  0  0  0
    1.3984   -5.3925    4.6260 H   0  0  0  0  0  0  0  0  0  0  0  0
    3.3803   -7.2219    5.2668 H   0  0  0  0  0  0  0  0  0  0  0  0
    4.9490   -6.0635    4.3957 H   0  0  0  0  0  0  0  0  0  0  0  0
    4.7906   -5.8527    6.0256 H   0  0  0  0  0  0  0  0  0  0  0  0
    5.6605   -4.6295    5.1248 H   0  0  0  0  0  0  0  0  0  0  0  0
    0.8494    4.8685    7.5551 H   0  0  0  0  0  0  0  0  0  0  0  0
   -0.5441    5.1315    6.5170 H   0  0  0  0  0  0  0  0  0  0  0  0
    1.0362    5.3217    5.8858 H   0  0  0  0  0  0  0  0  0  0  0  0
   -0.6119    3.3173    8.1820 H   0  0  0  0  0  0  0  0  0  0  0  0
   -0.7725    1.7430    7.5276 H   0  0  0  0  0  0  0  0  0  0  0  0
   -1.7224    3.1067    6.8385 H   0  0  0  0  0  0  0  0  0  0  0  0
  1  2  1  0
  1 67  1  0
  1 68  1  0
  1 69  1  0
  2  3  2  0
  2  4  1  0
  4  5  1  0
  5 53  1  0
  5  6  1  0
  5 70  1  6
  6  7  1  0
  6 71  1  0
  6 72  1  0
  7  9  1  0
  7 47  1  0
  7  8  1  1
  8  9  1  0
  9 10  1  0
  9 73  1  1
 10 19  1  1
 10 62  1  0
 10 11  1  0
 11 12  1  0
 11 16  1  0
 11 74  1  6
 12 13  1  0
 13 14  1  0
 13 15  2  0
 14 75  1  0
 14 76  1  0
 14 77  1  0
 16 17  1  0
 16 22  1  0
 16 78  1  1
 17 18  1  0
 17 79  1  0
 17 80  1  0
 18 19  1  0
 19 20  1  0
 19 21  1  0
 20 81  1  0
 20 82  1  0
 20 83  1  0
 21 84  1  0
 21 85  1  0
 21 86  1  0
 22 23  1  0
 23 43  1  0
 23 24  1  0
 23 87  1  6
 24 25  1  0
 25 26  1  0
 25 27  1  1
 25 28  1  0
 26 88  1  0
 26 89  1  0
 26 90  1  0
 27 91  1  0
 28 29  1  0
 28 30  1  0
 28 92  1  6
 29 93  1  0
 30 43  1  0
 30 31  1  6
 30 32  1  0
 31 94  1  0
 32 64  1  0
 32 33  1  0
 32 95  1  1
 33 34  2  0
 33 96  1  0
 34 35  1  0
 34 36  1  0
 35 97  1  0
 35 98  1  0
 35 99  1  0
 36 37  2  0
 36 38  1  0
 38 39  1  0
 39 40  1  1
 39 42  1  0
 39 64  1  0
 40 41  1  0
 40100  1  0
 40101  1  0
 41102  1  0
 43 42  1  1
 43 44  1  0
 44 45  1  0
 50 44  1  1
 44103  1  6
 45 46  1  0
 45 47  1  0
 45104  1  6
 46105  1  0
 47 48  1  0
 47 49  1  0
 48106  1  0
 49107  1  0
 50 51  2  0
 50 52  1  0
 52 62  1  0
 52 53  1  0
 52108  1  1
 53 54  1  1
 53 55  1  0
 54109  1  0
 55 56  2  3
 55 59  1  0
 56 57  1  0
 56 58  1  0
 57110  1  0
 57111  1  0
 57112  1  0
 58113  1  0
 58114  1  0
 58115  1  0
 59 60  1  0
 59116  1  0
 59117  1  0
 60 61  1  0
 60 62  1  0
 60118  1  6
 61119  1  0
 62 63  1  6
 63120  1  0
 63121  1  0
 63122  1  0
 64 65  1  0
 64 66  1  0
 65123  1  0
 65124  1  0
 65125  1  0
 66126  1  0
 66127  1  0
 66128  1  0
M  END
>  <i_m_ct_stereo_status>  (138) 
1

>  <s_m_source_file>  (138) 
/var/tmp/pbs.5075288.sched01/tmpd529dnjr/198klec4xt1.sdf

>  <i_m_source_file_index>  (138) 
47

>  <i_lp_mmshare_version>  (138) 
48012

>  <i_f3d_flags>  (138) 
0

>  <s_epik_input>  (138) 
W0NIM11DKD1PKU9bQ0BIXShbQ0gyXTEpW0NAXShbT0hdKShDKD1DKFtDSDNdKVtDSDNdKVtDSDJdW0NASF0yW09IXSlbQ0hdKFtDQEBdMihbQ0gzXSlbQ0BAXTM0W0NAQEhdKEMxNTYpTzUpW1MrXShbTy1dKVtDQEhdKFtDQEBIXShbT0hdKUM2KFtPSF0pW09IXSlbQ0BdNzhbQ0BASF0oT1tDQEhdKFtDQEBIXTNPQyg9TylbQ0gzXSlbQ0gyXU9DNChbQ0gzXSlbQ0gzXSlPW0NAQF0oW0NIM10pKFtPSF0pW0NAQEhdKFtPSF0pW0NAQF03KFtPSF0pW0NAQEhdOVtDSF09QyhbQ0gzXSlDKD1PKU9bQ0BAXShPOCkoW0NIMl1bT0hdKUM5KFtDSDNdKVtDSDNd

>  <s_epik_cmdline>  (138) 
J2VwaWtfcHl0aG9uJywgJy1waHQnLCAnMi4wJywgJy1waCcsICc3LjAnLCAnLXRuJywgJzgnLCAnLW1hJywgJzIwMCcsICctaW1hZScsICc8aW5maWxlLm1hZT4nLCAnLW9tYWUnLCAnPG91dGZpbGUubWFlPic=

>  <r_lp_tautomer_probability>  (138) 
1

>  <r_epik_Ionization_Penalty>  (138) 
9.648e-06

>  <r_epik_Ionization_Penalty_Charging>  (138) 
0

>  <r_epik_Ionization_Penalty_Neutral>  (138) 
9.648e-06

>  <r_epik_State_Penalty>  (138) 
-0

>  <r_epik_Charging_Adjusted_Penalty>  (138) 
0

>  <i_epik_Tot_Q>  (138) 
0

>  <i_epik_Tot_abs_Q>  (138) 
2

>  <s_epik_Chemistry_Notes>  (138) 
This compound has an ester and may undergo hydrolysis at high or low pH. This compound contains an acetal/aminal-like group ( X-CH(R)-Y where X, Y are N, S, or O) that may be acid/base labile, releasing an aldehyde.

>  <s_lp_Force_Field>  (138) 
OPLS3e

>  <r_lp_Energy>  (138) 
316.128

>  <b_lp_Chiralities_Consistent>  (138) 
1

>  <s_lp_Variant>  (138) 
97:0-1

>  <s_i_glide_gridfile>  (138) 
pfpi4k_grid

>  <i_i_glide_lignum>  (138) 
47

>  <i_i_glide_rotatable_bonds>  (138) 
14

>  <r_i_docking_score>  (138) 
-3.44164

>  <r_i_glide_ligand_efficiency>  (138) 
-0.0521461

>  <r_i_glide_ligand_efficiency_sa>  (138) 
-0.210735

>  <r_i_glide_ligand_efficiency_ln>  (138) 
-0.663174

>  <r_i_glide_gscore>  (138) 
-3.44164

>  <r_i_glide_lipo>  (138) 
-0.168017

>  <r_i_glide_hbond>  (138) 
-0.116695

>  <r_i_glide_metal>  (138) 
-0

>  <r_i_glide_rewards>  (138) 
-0.101169

>  <r_i_glide_evdw>  (138) 
-18.9965

>  <r_i_glide_ecoul>  (138) 
-13.8627

>  <r_i_glide_erotb>  (138) 
0.07237

>  <r_i_glide_esite>  (138) 
-0.0989033

>  <r_i_glide_emodel>  (138) 
-29.2533

>  <r_i_glide_energy>  (138) 
-32.8592

>  <r_i_glide_einternal>  (138) 
10.5654

>  <r_i_glide_intrahb_reward>  (138) 
-0

>  <i_i_glide_confnum>  (138) 
6

>  <i_i_glide_posenum>  (138) 
1

>  <r_i_glide_eff_state_penalty>  (138) 
0

>  <ligand_id>  (138) 
97

>  <original_smiles>  (138) 
CC(=O)OC1CC23OC2C24C(OC(C)=O)C(COC2(C)C)OC2OC(C)(O)C(O)C5(O)C6C=C(C)C(=O)OC(CO)(OC25C(C(O)C3(O)O)[S+]([O-])C2C1(O)C(=C(C)C)CC(O)C24C)C6(C)C

>  <smiles>  (138) 
[H]OC([H])([H])C12OC(=O)C(C([H])([H])[H])=C([H])C([H])(C3(O[H])C([H])(O[H])C(O[H])(C([H])([H])[H])OC4([H])OC5([H])C([H])([H])OC(C([H])([H])[H])(C([H])([H])[H])C6(C5([H])OC(=O)C([H])([H])[H])C5([H])OC57C([H])([H])C([H])(OC(=O)C([H])([H])[H])C5(O[H])C(=C(C([H])([H])[H])C([H])([H])[H])C([H])([H])C([H])(O[H])C6(C([H])([H])[H])C5([H])S(=O)C([H])(C([H])(O[H])C7(O[H])O[H])C43O1)C2(C([H])([H])[H])C([H])([H])[H]

$$$$
97:0:1
     RDKit          3D

128136  0  0  1  0  0  0  0  0999 V2000
    6.4087   -2.5600   -0.9829 C   0  0  0  0  0  0  0  0  0  0  0  0
    5.6625   -2.1398    0.2811 C   0  0  0  0  0  0  0  0  0  0  0  0
    5.3869   -0.9582    0.4925 O   0  0  0  0  0  0  0  0  0  0  0  0
    5.3407   -3.1797    1.0741 O   0  0  0  0  0  0  0  0  0  0  0  0
    4.5183   -2.9832    2.2361 C   0  0  2  0  0  0  0  0  0  0  0  0
    5.3700   -2.5518    3.5395 C   0  0  0  0  0  0  0  0  0  0  0  0
    4.8355   -1.7726    4.8248 C   0  0  1  0  0  0  0  0  0  0  0  0
    3.5483   -1.8935    5.3415 O   0  0  0  0  0  0  0  0  0  0  0  0
    4.2639   -2.6531    6.1533 C   0  0  1  0  0  0  0  0  0  0  0  0
    3.2647   -3.8797    6.4070 C   0  0  2  0  0  0  0  0  0  0  0  0
    1.7344   -3.5495    6.5893 C   0  0  1  0  0  0  0  0  0  0  0  0
    1.0555   -4.6943    7.0772 O   0  0  0  0  0  0  0  0  0  0  0  0
   -0.2532   -4.8144    7.0876 C   0  0  0  0  0  0  0  0  0  0  0  0
   -0.7289   -5.9672    7.9418 C   0  0  0  0  0  0  0  0  0  0  0  0
   -1.0420   -4.0640    6.5332 O   0  0  0  0  0  0  0  0  0  0  0  0
    1.4708   -2.3864    7.5490 C   0  0  1  0  0  0  0  0  0  0  0  0
    2.2437   -2.6211    8.8566 C   0  0  0  0  0  0  0  0  0  0  0  0
    3.5370   -3.2344    8.7388 O   0  0  0  0  0  0  0  0  0  0  0  0
    3.7556   -4.3689    7.8698 C   0  0  0  0  0  0  0  0  0  0  0  0
    3.1353   -5.6279    8.5339 C   0  0  0  0  0  0  0  0  0  0  0  0
    5.2996   -4.5410    8.0682 C   0  0  0  0  0  0  0  0  0  0  0  0
    1.6787   -1.1365    6.8879 O   0  0  0  0  0  0  0  0  0  0  0  0
    0.6935   -0.7681    5.9475 C   0  0  1  0  0  0  0  0  0  0  0  0
   -0.4694   -0.3289    6.5845 O   0  0  0  0  0  0  0  0  0  0  0  0
   -1.5930   -0.1582    5.7758 C   0  0  1  0  0  0  0  0  0  0  0  0
   -2.2437   -1.5140    5.4680 C   0  0  0  0  0  0  0  0  0  0  0  0
   -2.5613    0.5886    6.4986 O   0  0  0  0  0  0  0  0  0  0  0  0
   -1.2492    0.5758    4.4588 C   0  0  1  0  0  0  0  0  0  0  0  0
   -2.1631    1.6110    4.1615 O   0  0  0  0  0  0  0  0  0  0  0  0
    0.1555    1.2261    4.3950 C   0  0  1  0  0  0  0  0  0  0  0  0
    0.2263    1.3528    2.9771 O   0  0  0  0  0  0  0  0  0  0  0  0
    0.2757    2.7465    4.8538 C   0  0  2  0  0  0  0  0  0  0  0  0
    1.2070    3.5307    3.9779 C   0  0  0  0  0  0  0  0  0  0  0  0
    2.4741    3.9645    4.1259 C   0  0  0  0  0  0  0  0  0  0  0  0
    3.0728    4.7663    2.9976 C   0  0  0  0  0  0  0  0  0  0  0  0
    3.4062    3.7556    5.3135 C   0  0  0  0  0  0  0  0  0  0  0  0
    4.5411    4.2287    5.3062 O   0  0  0  0  0  0  0  0  0  0  0  0
    3.0134    3.1116    6.4713 O   0  0  0  0  0  0  0  0  0  0  0  0
    1.9441    2.2132    6.5743 C   0  0  2  0  0  0  0  0  0  0  0  0
    2.1435    1.6158    7.9908 C   0  0  0  0  0  0  0  0  0  0  0  0
    1.9371    2.5338    9.0456 O   0  0  0  0  0  0  0  0  0  0  0  0
    2.1981    1.1432    5.6513 O   0  0  0  0  0  0  0  0  0  0  0  0
    1.2882    0.2743    4.9356 C   0  0  1  0  0  0  0  0  0  0  0  0
    2.1430   -0.5297    3.8081 C   0  0  1  0  0  0  0  0  0  0  0  0
    3.6044   -0.0152    3.5572 C   0  0  1  0  0  0  0  0  0  0  0  0
    3.3906    1.3379    3.2382 O   0  0  0  0  0  0  0  0  0  0  0  0
    4.8192   -0.2848    4.5469 C   0  0  0  0  0  0  0  0  0  0  0  0
    4.7591    0.3689    5.7807 O   0  0  0  0  0  0  0  0  0  0  0  0
    6.0044    0.1672    3.9223 O   0  0  0  0  0  0  0  0  0  0  0  0
    1.8085   -2.3727    3.4074 S   0  0  0  0  0  0  0  0  0  0  0  0
    0.3354   -2.7805    3.6426 O   0  0  0  0  0  0  0  0  0  0  0  0
    3.0638   -3.8122    3.8067 C   0  0  1  0  0  0  0  0  0  0  0  0
    3.8208   -4.3215    2.5944 C   0  0  2  0  0  0  0  0  0  0  0  0
    4.9732   -5.1521    2.6667 O   0  0  0  0  0  0  0  0  0  0  0  0
    2.7539   -5.2444    1.9669 C   0  0  0  0  0  0  0  0  0  0  0  0
    2.1733   -5.1195    0.7708 C   0  0  0  0  0  0  0  0  0  0  0  0
    1.1860   -6.1486    0.1892 C   0  0  0  0  0  0  0  0  0  0  0  0
    2.4715   -3.9724   -0.1983 C   0  0  0  0  0  0  0  0  0  0  0  0
    2.4056   -6.3595    3.0512 C   0  0  0  0  0  0  0  0  0  0  0  0
    2.2105   -5.9218    4.5985 C   0  0  1  0  0  0  0  0  0  0  0  0
    2.2528   -7.0946    5.3832 O   0  0  0  0  0  0  0  0  0  0  0  0
    3.2433   -4.7953    5.0751 C   0  0  2  0  0  0  0  0  0  0  0  0
    4.5597   -5.6188    5.2831 C   0  0  0  0  0  0  0  0  0  0  0  0
    0.5845    2.9908    6.3357 C   0  0  0  0  0  0  0  0  0  0  0  0
    0.6926    4.5279    6.6755 C   0  0  0  0  0  0  0  0  0  0  0  0
   -0.5429    2.6234    7.3297 C   0  0  0  0  0  0  0  0  0  0  0  0
    5.8152   -3.2700   -1.5597 H   0  0  0  0  0  0  0  0  0  0  0  0
    7.3751   -3.0126   -0.7526 H   0  0  0  0  0  0  0  0  0  0  0  0
    6.5792   -1.6963   -1.6231 H   0  0  0  0  0  0  0  0  0  0  0  0
    3.8023   -2.2229    1.9449 H   0  0  0  0  0  0  0  0  0  0  0  0
    5.8743   -3.4204    3.9456 H   0  0  0  0  0  0  0  0  0  0  0  0
    6.1523   -1.9669    3.0794 H   0  0  0  0  0  0  0  0  0  0  0  0
    4.5648   -2.1416    7.0502 H   0  0  0  0  0  0  0  0  0  0  0  0
    1.2707   -3.3710    5.6393 H   0  0  0  0  0  0  0  0  0  0  0  0
   -0.2551   -5.9767    8.9227 H   0  0  0  0  0  0  0  0  0  0  0  0
   -0.5574   -6.9182    7.4381 H   0  0  0  0  0  0  0  0  0  0  0  0
   -1.7939   -5.8127    8.0889 H   0  0  0  0  0  0  0  0  0  0  0  0
    0.4291   -2.3220    7.8633 H   0  0  0  0  0  0  0  0  0  0  0  0
    2.3403   -1.6811    9.3941 H   0  0  0  0  0  0  0  0  0  0  0  0
    1.6463   -3.2674    9.4971 H   0  0  0  0  0  0  0  0  0  0  0  0
    2.9816   -6.4129    7.8030 H   0  0  0  0  0  0  0  0  0  0  0  0
    2.1895   -5.4261    9.0183 H   0  0  0  0  0  0  0  0  0  0  0  0
    3.7733   -6.0231    9.3123 H   0  0  0  0  0  0  0  0  0  0  0  0
    5.6532   -5.5299    7.7944 H   0  0  0  0  0  0  0  0  0  0  0  0
    5.5418   -4.4214    9.1205 H   0  0  0  0  0  0  0  0  0  0  0  0
    5.9267   -3.8237    7.5406 H   0  0  0  0  0  0  0  0  0  0  0  0
    0.3433   -1.6325    5.4420 H   0  0  0  0  0  0  0  0  0  0  0  0
   -2.4146   -2.0825    6.3946 H   0  0  0  0  0  0  0  0  0  0  0  0
   -1.6076   -2.0997    4.8141 H   0  0  0  0  0  0  0  0  0  0  0  0
   -3.1749   -1.3747    4.9233 H   0  0  0  0  0  0  0  0  0  0  0  0
   -2.3328    1.4994    6.4474 H   0  0  0  0  0  0  0  0  0  0  0  0
   -1.3073   -0.1960    3.6692 H   0  0  0  0  0  0  0  0  0  0  0  0
   -2.8711    1.2214    3.6592 H   0  0  0  0  0  0  0  0  0  0  0  0
    0.0986    0.5226    2.5695 H   0  0  0  0  0  0  0  0  0  0  0  0
   -0.6459    3.2909    4.6598 H   0  0  0  0  0  0  0  0  0  0  0  0
    0.7395    3.7717    3.0373 H   0  0  0  0  0  0  0  0  0  0  0  0
    3.4461    5.7351    3.3309 H   0  0  0  0  0  0  0  0  0  0  0  0
    2.3812    4.9306    2.1694 H   0  0  0  0  0  0  0  0  0  0  0  0
    3.8664    4.1970    2.5470 H   0  0  0  0  0  0  0  0  0  0  0  0
    1.4356    0.8116    8.1552 H   0  0  0  0  0  0  0  0  0  0  0  0
    3.1516    1.2008    8.0544 H   0  0  0  0  0  0  0  0  0  0  0  0
    1.0417    2.8127    9.0177 H   0  0  0  0  0  0  0  0  0  0  0  0
    1.7526   -0.2449    2.8350 H   0  0  0  0  0  0  0  0  0  0  0  0
    3.9352   -0.4075    2.6115 H   0  0  0  0  0  0  0  0  0  0  0  0
    3.3612    1.7994    4.0518 H   0  0  0  0  0  0  0  0  0  0  0  0
    4.5897    1.2672    5.5922 H   0  0  0  0  0  0  0  0  0  0  0  0
    6.7577   -0.1517    4.3826 H   0  0  0  0  0  0  0  0  0  0  0  0
    2.0374   -4.0316    3.6266 H   0  0  0  0  0  0  0  0  0  0  0  0
    5.3271   -5.2120    1.7999 H   0  0  0  0  0  0  0  0  0  0  0  0
    1.4462   -6.2630   -0.8485 H   0  0  0  0  0  0  0  0  0  0  0  0
    0.1222   -5.9170    0.1954 H   0  0  0  0  0  0  0  0  0  0  0  0
    1.2677   -7.1237    0.6580 H   0  0  0  0  0  0  0  0  0  0  0  0
    1.5762   -3.6898   -0.7456 H   0  0  0  0  0  0  0  0  0  0  0  0
    3.2296   -4.2612   -0.9305 H   0  0  0  0  0  0  0  0  0  0  0  0
    2.8042   -3.0644    0.3054 H   0  0  0  0  0  0  0  0  0  0  0  0
    1.5014   -6.8806    2.7469 H   0  0  0  0  0  0  0  0  0  0  0  0
    3.2028   -7.0993    2.9875 H   0  0  0  0  0  0  0  0  0  0  0  0
    1.1853   -5.5612    4.6979 H   0  0  0  0  0  0  0  0  0  0  0  0
    1.6161   -7.7090    5.0758 H   0  0  0  0  0  0  0  0  0  0  0  0
    4.7037   -6.4168    4.5609 H   0  0  0  0  0  0  0  0  0  0  0  0
    4.5047   -6.2161    6.1833 H   0  0  0  0  0  0  0  0  0  0  0  0
    5.4749   -5.0329    5.3315 H   0  0  0  0  0  0  0  0  0  0  0  0
    1.0713    4.6794    7.6861 H   0  0  0  0  0  0  0  0  0  0  0  0
   -0.2892    5.0056    6.6113 H   0  0  0  0  0  0  0  0  0  0  0  0
    1.3254    5.1316    6.0324 H   0  0  0  0  0  0  0  0  0  0  0  0
   -0.4929    3.2200    8.2425 H   0  0  0  0  0  0  0  0  0  0  0  0
   -0.5180    1.6089    7.6912 H   0  0  0  0  0  0  0  0  0  0  0  0
   -1.5198    2.8672    6.9067 H   0  0  0  0  0  0  0  0  0  0  0  0
  1  2  1  0
  1 67  1  0
  1 68  1  0
  1 69  1  0
  2  3  2  0
  2  4  1  0
  4  5  1  0
  5 53  1  0
  5  6  1  0
  5 70  1  6
  6  7  1  0
  6 71  1  0
  6 72  1  0
  7  9  1  0
  7 47  1  0
  7  8  1  1
  8  9  1  0
  9 10  1  0
  9 73  1  1
 10 19  1  1
 10 62  1  0
 10 11  1  0
 11 12  1  0
 11 16  1  0
 11 74  1  6
 12 13  1  0
 13 14  1  0
 13 15  2  0
 14 75  1  0
 14 76  1  0
 14 77  1  0
 16 17  1  0
 16 22  1  0
 16 78  1  1
 17 18  1  0
 17 79  1  0
 17 80  1  0
 18 19  1  0
 19 20  1  0
 19 21  1  0
 20 81  1  0
 20 82  1  0
 20 83  1  0
 21 84  1  0
 21 85  1  0
 21 86  1  0
 22 23  1  0
 23 43  1  0
 23 24  1  0
 23 87  1  6
 24 25  1  0
 25 26  1  0
 25 27  1  1
 25 28  1  0
 26 88  1  0
 26 89  1  0
 26 90  1  0
 27 91  1  0
 28 29  1  0
 28 30  1  0
 28 92  1  6
 29 93  1  0
 30 43  1  0
 30 31  1  6
 30 32  1  0
 31 94  1  0
 32 64  1  0
 32 33  1  0
 32 95  1  1
 33 34  2  0
 33 96  1  0
 34 35  1  0
 34 36  1  0
 35 97  1  0
 35 98  1  0
 35 99  1  0
 36 37  2  0
 36 38  1  0
 38 39  1  0
 39 40  1  1
 39 42  1  0
 39 64  1  0
 40 41  1  0
 40100  1  0
 40101  1  0
 41102  1  0
 43 42  1  1
 43 44  1  0
 44 45  1  0
 50 44  1  1
 44103  1  6
 45 46  1  0
 45 47  1  0
 45104  1  6
 46105  1  0
 47 48  1  0
 47 49  1  0
 48106  1  0
 49107  1  0
 50 51  2  0
 50 52  1  0
 52 62  1  0
 52 53  1  0
 52108  1  1
 53 54  1  1
 53 55  1  0
 54109  1  0
 55 56  2  3
 55 59  1  0
 56 57  1  0
 56 58  1  0
 57110  1  0
 57111  1  0
 57112  1  0
 58113  1  0
 58114  1  0
 58115  1  0
 59 60  1  0
 59116  1  0
 59117  1  0
 60 61  1  0
 60 62  1  0
 60118  1  6
 61119  1  0
 62 63  1  6
 63120  1  0
 63121  1  0
 63122  1  0
 64 65  1  0
 64 66  1  0
 65123  1  0
 65124  1  0
 65125  1  0
 66126  1  0
 66127  1  0
 66128  1  0
M  END
>  <i_m_ct_stereo_status>  (139) 
1

>  <s_m_source_file>  (139) 
/var/tmp/pbs.5075288.sched01/tmpd529dnjr/198klec4xt1.sdf

>  <i_m_source_file_index>  (139) 
47

>  <i_lp_mmshare_version>  (139) 
48012

>  <i_f3d_flags>  (139) 
0

>  <s_epik_input>  (139) 
W0NIM11DKD1PKU9bQ0BIXShbQ0gyXTEpW0NAXShbT0hdKShDKD1DKFtDSDNdKVtDSDNdKVtDSDJdW0NASF0yW09IXSlbQ0hdKFtDQEBdMihbQ0gzXSlbQ0BAXTM0W0NAQEhdKEMxNTYpTzUpW1MrXShbTy1dKVtDQEhdKFtDQEBIXShbT0hdKUM2KFtPSF0pW09IXSlbQ0BdNzhbQ0BASF0oT1tDQEhdKFtDQEBIXTNPQyg9TylbQ0gzXSlbQ0gyXU9DNChbQ0gzXSlbQ0gzXSlPW0NAQF0oW0NIM10pKFtPSF0pW0NAQEhdKFtPSF0pW0NAQF03KFtPSF0pW0NAQEhdOVtDSF09QyhbQ0gzXSlDKD1PKU9bQ0BAXShPOCkoW0NIMl1bT0hdKUM5KFtDSDNdKVtDSDNd

>  <s_epik_cmdline>  (139) 
J2VwaWtfcHl0aG9uJywgJy1waHQnLCAnMi4wJywgJy1waCcsICc3LjAnLCAnLXRuJywgJzgnLCAnLW1hJywgJzIwMCcsICctaW1hZScsICc8aW5maWxlLm1hZT4nLCAnLW9tYWUnLCAnPG91dGZpbGUubWFlPic=

>  <r_lp_tautomer_probability>  (139) 
1

>  <r_epik_Ionization_Penalty>  (139) 
9.648e-06

>  <r_epik_Ionization_Penalty_Charging>  (139) 
0

>  <r_epik_Ionization_Penalty_Neutral>  (139) 
9.648e-06

>  <r_epik_State_Penalty>  (139) 
-0

>  <r_epik_Charging_Adjusted_Penalty>  (139) 
0

>  <i_epik_Tot_Q>  (139) 
0

>  <i_epik_Tot_abs_Q>  (139) 
2

>  <s_epik_Chemistry_Notes>  (139) 
This compound has an ester and may undergo hydrolysis at high or low pH. This compound contains an acetal/aminal-like group ( X-CH(R)-Y where X, Y are N, S, or O) that may be acid/base labile, releasing an aldehyde.

>  <s_lp_Force_Field>  (139) 
OPLS3e

>  <r_lp_Energy>  (139) 
316.128

>  <b_lp_Chiralities_Consistent>  (139) 
1

>  <s_lp_Variant>  (139) 
97:0-1

>  <s_i_glide_gridfile>  (139) 
pfpi4k_grid

>  <i_i_glide_lignum>  (139) 
47

>  <i_i_glide_rotatable_bonds>  (139) 
14

>  <r_i_docking_score>  (139) 
-3.07911

>  <r_i_glide_ligand_efficiency>  (139) 
-0.0466531

>  <r_i_glide_ligand_efficiency_sa>  (139) 
-0.188537

>  <r_i_glide_ligand_efficiency_ln>  (139) 
-0.593316

>  <r_i_glide_gscore>  (139) 
-3.07911

>  <r_i_glide_lipo>  (139) 
-0.244717

>  <r_i_glide_hbond>  (139) 
0

>  <r_i_glide_metal>  (139) 
-0

>  <r_i_glide_rewards>  (139) 
-0.66071

>  <r_i_glide_evdw>  (139) 
-29.7477

>  <r_i_glide_ecoul>  (139) 
-4.47625

>  <r_i_glide_erotb>  (139) 
0.07237

>  <r_i_glide_esite>  (139) 
-0.0872274

>  <r_i_glide_emodel>  (139) 
-38.3703

>  <r_i_glide_energy>  (139) 
-34.224

>  <r_i_glide_einternal>  (139) 
4.00205

>  <r_i_glide_intrahb_reward>  (139) 
-0.5

>  <i_i_glide_confnum>  (139) 
3

>  <i_i_glide_posenum>  (139) 
6

>  <r_i_glide_eff_state_penalty>  (139) 
0

>  <ligand_id>  (139) 
97

>  <original_smiles>  (139) 
CC(=O)OC1CC23OC2C24C(OC(C)=O)C(COC2(C)C)OC2OC(C)(O)C(O)C5(O)C6C=C(C)C(=O)OC(CO)(OC25C(C(O)C3(O)O)[S+]([O-])C2C1(O)C(=C(C)C)CC(O)C24C)C6(C)C

>  <smiles>  (139) 
[H]OC([H])([H])C12OC(=O)C(C([H])([H])[H])=C([H])C([H])(C3(O[H])C([H])(O[H])C(O[H])(C([H])([H])[H])OC4([H])OC5([H])C([H])([H])OC(C([H])([H])[H])(C([H])([H])[H])C6(C5([H])OC(=O)C([H])([H])[H])C5([H])OC57C([H])([H])C([H])(OC(=O)C([H])([H])[H])C5(O[H])C(=C(C([H])([H])[H])C([H])([H])[H])C([H])([H])C([H])(O[H])C6(C([H])([H])[H])C5([H])S(=O)C([H])(C([H])(O[H])C7(O[H])O[H])C43O1)C2(C([H])([H])[H])C([H])([H])[H]

$$$$
97:0:2
     RDKit          3D

128136  0  0  1  0  0  0  0  0999 V2000
    4.8290   -1.2239   -2.3034 C   0  0  0  0  0  0  0  0  0  0  0  0
    4.7323   -1.3441   -0.7867 C   0  0  0  0  0  0  0  0  0  0  0  0
    4.4860   -0.3810   -0.0627 O   0  0  0  0  0  0  0  0  0  0  0  0
    4.9274   -2.5892   -0.3600 O   0  0  0  0  0  0  0  0  0  0  0  0
    4.6354   -2.9181    0.9979 C   0  0  2  0  0  0  0  0  0  0  0  0
    5.8733   -2.7589    2.0136 C   0  0  0  0  0  0  0  0  0  0  0  0
    5.7076   -2.5471    3.5954 C   0  0  1  0  0  0  0  0  0  0  0  0
    4.7271   -3.0451    4.4369 O   0  0  0  0  0  0  0  0  0  0  0  0
    5.7507   -3.8637    4.6271 C   0  0  1  0  0  0  0  0  0  0  0  0
    5.0074   -5.2912    4.7403 C   0  0  2  0  0  0  0  0  0  0  0  0
    3.6326   -5.3325    5.5102 C   0  0  1  0  0  0  0  0  0  0  0  0
    3.1848   -6.6771    5.7304 O   0  0  0  0  0  0  0  0  0  0  0  0
    1.8924   -7.0380    5.7852 C   0  0  0  0  0  0  0  0  0  0  0  0
    1.7205   -8.5373    6.0070 C   0  0  0  0  0  0  0  0  0  0  0  0
    0.9304   -6.2924    5.6361 O   0  0  0  0  0  0  0  0  0  0  0  0
    3.6534   -4.6066    6.8466 C   0  0  1  0  0  0  0  0  0  0  0  0
    4.8745   -5.0853    7.6626 C   0  0  0  0  0  0  0  0  0  0  0  0
    6.0714   -5.3754    6.9187 O   0  0  0  0  0  0  0  0  0  0  0  0
    6.0336   -6.1090    5.6778 C   0  0  0  0  0  0  0  0  0  0  0  0
    5.7614   -7.6041    6.0108 C   0  0  0  0  0  0  0  0  0  0  0  0
    7.5556   -6.0503    5.3016 C   0  0  0  0  0  0  0  0  0  0  0  0
    3.5650   -3.1893    6.6194 O   0  0  0  0  0  0  0  0  0  0  0  0
    2.2749   -2.7387    6.2332 C   0  0  1  0  0  0  0  0  0  0  0  0
    1.4680   -2.7518    7.3407 O   0  0  0  0  0  0  0  0  0  0  0  0
    0.1021   -2.5755    7.1575 C   0  0  1  0  0  0  0  0  0  0  0  0
   -0.5437   -3.8770    6.6798 C   0  0  0  0  0  0  0  0  0  0  0  0
   -0.4022   -2.3763    8.4356 O   0  0  0  0  0  0  0  0  0  0  0  0
   -0.2010   -1.3945    6.1581 C   0  0  1  0  0  0  0  0  0  0  0  0
   -1.3458   -0.6089    6.3953 O   0  0  0  0  0  0  0  0  0  0  0  0
    1.0126   -0.4764    5.8562 C   0  0  1  0  0  0  0  0  0  0  0  0
    0.5088    0.0940    4.6470 O   0  0  0  0  0  0  0  0  0  0  0  0
    1.2564    0.8207    6.7533 C   0  0  2  0  0  0  0  0  0  0  0  0
    1.7773    2.0035    5.9351 C   0  0  0  0  0  0  0  0  0  0  0  0
    3.0056    2.5619    5.8003 C   0  0  0  0  0  0  0  0  0  0  0  0
    3.1522    3.7831    4.8940 C   0  0  0  0  0  0  0  0  0  0  0  0
    4.3186    2.1743    6.4505 C   0  0  0  0  0  0  0  0  0  0  0  0
    5.3481    2.8140    6.2275 O   0  0  0  0  0  0  0  0  0  0  0  0
    4.4045    1.1715    7.3968 O   0  0  0  0  0  0  0  0  0  0  0  0
    3.4933    0.1059    7.5114 C   0  0  2  0  0  0  0  0  0  0  0  0
    4.2364   -0.8753    8.4711 C   0  0  0  0  0  0  0  0  0  0  0  0
    4.3785   -0.3906    9.7872 O   0  0  0  0  0  0  0  0  0  0  0  0
    3.4036   -0.5564    6.2413 O   0  0  0  0  0  0  0  0  0  0  0  0
    2.3473   -1.3078    5.5837 C   0  0  1  0  0  0  0  0  0  0  0  0
    2.7626   -1.4990    4.0031 C   0  0  1  0  0  0  0  0  0  0  0  0
    4.0062   -0.6906    3.4904 C   0  0  1  0  0  0  0  0  0  0  0  0
    3.8207    0.6903    3.7207 O   0  0  0  0  0  0  0  0  0  0  0  0
    5.4591   -1.0730    3.8847 C   0  0  0  0  0  0  0  0  0  0  0  0
    5.7277   -0.8147    5.2510 O   0  0  0  0  0  0  0  0  0  0  0  0
    6.2573   -0.2352    3.1337 O   0  0  0  0  0  0  0  0  0  0  0  0
    2.4550   -3.1936    3.0932 S   0  0  0  0  0  0  0  0  0  0  0  0
    1.0985   -3.8350    3.4088 O   0  0  0  0  0  0  0  0  0  0  0  0
    3.8784   -4.4435    2.5487 C   0  0  1  0  0  0  0  0  0  0  0  0
    4.1958   -4.3937    1.0618 C   0  0  2  0  0  0  0  0  0  0  0  0
    5.3307   -4.9907    0.4504 O   0  0  0  0  0  0  0  0  0  0  0  0
    3.0128   -5.2108    0.5377 C   0  0  0  0  0  0  0  0  0  0  0  0
    2.0049   -4.7690   -0.2428 C   0  0  0  0  0  0  0  0  0  0  0  0
    0.8511   -5.6556   -0.6821 C   0  0  0  0  0  0  0  0  0  0  0  0
    1.9548   -3.3851   -0.8884 C   0  0  0  0  0  0  0  0  0  0  0  0
    3.1469   -6.6701    1.1839 C   0  0  0  0  0  0  0  0  0  0  0  0
    3.5092   -6.8060    2.7453 C   0  0  1  0  0  0  0  0  0  0  0  0
    3.8882   -8.1413    3.0139 O   0  0  0  0  0  0  0  0  0  0  0  0
    4.5661   -5.7178    3.2511 C   0  0  2  0  0  0  0  0  0  0  0  0
    5.9141   -6.3036    2.7066 C   0  0  0  0  0  0  0  0  0  0  0  0
    2.0995    0.6549    8.0322 C   0  0  0  0  0  0  0  0  0  0  0  0
    2.2453    1.9983    8.8452 C   0  0  0  0  0  0  0  0  0  0  0  0
    1.4470   -0.2184    9.1327 C   0  0  0  0  0  0  0  0  0  0  0  0
    4.1011   -1.8801   -2.7793 H   0  0  0  0  0  0  0  0  0  0  0  0
    5.8153   -1.5150   -2.6566 H   0  0  0  0  0  0  0  0  0  0  0  0
    4.6198   -0.2071   -2.6364 H   0  0  0  0  0  0  0  0  0  0  0  0
    3.8235   -2.2696    1.2773 H   0  0  0  0  0  0  0  0  0  0  0  0
    6.5667   -3.5878    1.9040 H   0  0  0  0  0  0  0  0  0  0  0  0
    6.5107   -1.9772    1.6086 H   0  0  0  0  0  0  0  0  0  0  0  0
    6.3382   -3.6173    5.5042 H   0  0  0  0  0  0  0  0  0  0  0  0
    2.8776   -4.9066    4.8762 H   0  0  0  0  0  0  0  0  0  0  0  0
    2.2847   -8.8704    6.8791 H   0  0  0  0  0  0  0  0  0  0  0  0
    2.0819   -9.0860    5.1364 H   0  0  0  0  0  0  0  0  0  0  0  0
    0.6693   -8.7941    6.1544 H   0  0  0  0  0  0  0  0  0  0  0  0
    2.7757   -4.8953    7.4376 H   0  0  0  0  0  0  0  0  0  0  0  0
    5.1052   -4.3528    8.4333 H   0  0  0  0  0  0  0  0  0  0  0  0
    4.6125   -6.0005    8.1882 H   0  0  0  0  0  0  0  0  0  0  0  0
    5.4171   -8.1405    5.1354 H   0  0  0  0  0  0  0  0  0  0  0  0
    5.0377   -7.7414    6.8093 H   0  0  0  0  0  0  0  0  0  0  0  0
    6.6645   -8.1002    6.3527 H   0  0  0  0  0  0  0  0  0  0  0  0
    7.8408   -6.8155    4.5839 H   0  0  0  0  0  0  0  0  0  0  0  0
    8.1560   -6.2474    6.1907 H   0  0  0  0  0  0  0  0  0  0  0  0
    7.9018   -5.0923    4.9094 H   0  0  0  0  0  0  0  0  0  0  0  0
    1.7822   -3.4294    5.5738 H   0  0  0  0  0  0  0  0  0  0  0  0
   -0.2452   -4.7033    7.3288 H   0  0  0  0  0  0  0  0  0  0  0  0
   -0.2742   -4.1107    5.6542 H   0  0  0  0  0  0  0  0  0  0  0  0
   -1.6292   -3.7801    6.7095 H   0  0  0  0  0  0  0  0  0  0  0  0
   -0.0645   -3.0816    8.9565 H   0  0  0  0  0  0  0  0  0  0  0  0
   -0.3874   -1.9000    5.2011 H   0  0  0  0  0  0  0  0  0  0  0  0
   -1.3269   -0.0034    5.6541 H   0  0  0  0  0  0  0  0  0  0  0  0
    1.1855    0.6752    4.3206 H   0  0  0  0  0  0  0  0  0  0  0  0
    0.2857    1.1975    7.0762 H   0  0  0  0  0  0  0  0  0  0  0  0
    0.9857    2.4884    5.3871 H   0  0  0  0  0  0  0  0  0  0  0  0
    3.5097    4.6466    5.4537 H   0  0  0  0  0  0  0  0  0  0  0  0
    2.2110    4.0749    4.4357 H   0  0  0  0  0  0  0  0  0  0  0  0
    3.8533    3.5998    4.0804 H   0  0  0  0  0  0  0  0  0  0  0  0
    3.6885   -1.8155    8.5397 H   0  0  0  0  0  0  0  0  0  0  0  0
    5.2208   -1.0897    8.0486 H   0  0  0  0  0  0  0  0  0  0  0  0
    3.5172   -0.2687   10.1556 H   0  0  0  0  0  0  0  0  0  0  0  0
    2.0187   -0.9766    3.4165 H   0  0  0  0  0  0  0  0  0  0  0  0
    3.9918   -0.7244    2.4104 H   0  0  0  0  0  0  0  0  0  0  0  0
    3.1989    1.0279    3.0932 H   0  0  0  0  0  0  0  0  0  0  0  0
    6.5080   -1.2372    5.5524 H   0  0  0  0  0  0  0  0  0  0  0  0
    6.1654    0.6358    3.4940 H   0  0  0  0  0  0  0  0  0  0  0  0
    2.8461   -4.7456    2.6707 H   0  0  0  0  0  0  0  0  0  0  0  0
    5.1483   -4.9815   -0.4748 H   0  0  0  0  0  0  0  0  0  0  0  0
    0.8218   -5.4851   -1.7442 H   0  0  0  0  0  0  0  0  0  0  0  0
   -0.1462   -5.4347   -0.3507 H   0  0  0  0  0  0  0  0  0  0  0  0
    1.0139   -6.6917   -0.4262 H   0  0  0  0  0  0  0  0  0  0  0  0
    0.9239   -3.1383   -1.1653 H   0  0  0  0  0  0  0  0  0  0  0  0
    2.5204   -3.3809   -1.8367 H   0  0  0  0  0  0  0  0  0  0  0  0
    2.3269   -2.6305   -0.1803 H   0  0  0  0  0  0  0  0  0  0  0  0
    2.2438   -7.2622    1.0855 H   0  0  0  0  0  0  0  0  0  0  0  0
    3.8951   -7.2144    0.6076 H   0  0  0  0  0  0  0  0  0  0  0  0
    2.5607   -6.6765    3.2579 H   0  0  0  0  0  0  0  0  0  0  0  0
    3.8883   -8.2683    3.9492 H   0  0  0  0  0  0  0  0  0  0  0  0
    5.8285   -6.8032    1.7437 H   0  0  0  0  0  0  0  0  0  0  0  0
    6.2272   -7.1504    3.3009 H   0  0  0  0  0  0  0  0  0  0  0  0
    6.7475   -5.6014    2.6646 H   0  0  0  0  0  0  0  0  0  0  0  0
    2.9585    1.8780    9.6598 H   0  0  0  0  0  0  0  0  0  0  0  0
    1.2778    2.2780    9.2769 H   0  0  0  0  0  0  0  0  0  0  0  0
    2.5716    2.8702    8.2777 H   0  0  0  0  0  0  0  0  0  0  0  0
    1.7876    0.0574   10.1303 H   0  0  0  0  0  0  0  0  0  0  0  0
    1.6835   -1.2693    9.0596 H   0  0  0  0  0  0  0  0  0  0  0  0
    0.3632   -0.0598    9.1468 H   0  0  0  0  0  0  0  0  0  0  0  0
  1  2  1  0
  1 67  1  0
  1 68  1  0
  1 69  1  0
  2  3  2  0
  2  4  1  0
  4  5  1  0
  5 53  1  0
  5  6  1  0
  5 70  1  1
  6  7  1  0
  6 71  1  0
  6 72  1  0
  7  9  1  0
  7 47  1  0
  7  8  1  1
  8  9  1  0
  9 10  1  0
  9 73  1  1
 10 19  1  1
 10 62  1  0
 10 11  1  0
 11 12  1  0
 11 16  1  0
 11 74  1  6
 12 13  1  0
 13 14  1  0
 13 15  2  0
 14 75  1  0
 14 76  1  0
 14 77  1  0
 16 17  1  0
 16 22  1  0
 16 78  1  1
 17 18  1  0
 17 79  1  0
 17 80  1  0
 18 19  1  0
 19 20  1  0
 19 21  1  0
 20 81  1  0
 20 82  1  0
 20 83  1  0
 21 84  1  0
 21 85  1  0
 21 86  1  0
 22 23  1  0
 23 43  1  0
 23 24  1  0
 23 87  1  6
 24 25  1  0
 25 26  1  0
 25 27  1  1
 25 28  1  0
 26 88  1  0
 26 89  1  0
 26 90  1  0
 27 91  1  0
 28 29  1  0
 28 30  1  0
 28 92  1  6
 29 93  1  0
 30 43  1  0
 30 31  1  6
 30 32  1  0
 31 94  1  0
 32 64  1  0
 32 33  1  0
 32 95  1  1
 33 34  2  0
 33 96  1  0
 34 35  1  0
 34 36  1  0
 35 97  1  0
 35 98  1  0
 35 99  1  0
 36 37  2  0
 36 38  1  0
 38 39  1  0
 39 40  1  1
 39 42  1  0
 39 64  1  0
 40 41  1  0
 40100  1  0
 40101  1  0
 41102  1  0
 43 42  1  1
 43 44  1  0
 44 45  1  0
 50 44  1  1
 44103  1  6
 45 46  1  0
 45 47  1  0
 45104  1  6
 46105  1  0
 47 48  1  0
 47 49  1  0
 48106  1  0
 49107  1  0
 50 51  2  0
 50 52  1  0
 52 62  1  0
 52 53  1  0
 52108  1  1
 53 54  1  1
 53 55  1  0
 54109  1  0
 55 56  2  3
 55 59  1  0
 56 57  1  0
 56 58  1  0
 57110  1  0
 57111  1  0
 57112  1  0
 58113  1  0
 58114  1  0
 58115  1  0
 59 60  1  0
 59116  1  0
 59117  1  0
 60 61  1  0
 60 62  1  0
 60118  1  1
 61119  1  0
 62 63  1  6
 63120  1  0
 63121  1  0
 63122  1  0
 64 65  1  0
 64 66  1  0
 65123  1  0
 65124  1  0
 65125  1  0
 66126  1  0
 66127  1  0
 66128  1  0
M  END
>  <i_m_ct_stereo_status>  (140) 
1

>  <s_m_source_file>  (140) 
/var/tmp/pbs.5075288.sched01/tmpd529dnjr/198klec4xt1.sdf

>  <i_m_source_file_index>  (140) 
47

>  <i_lp_mmshare_version>  (140) 
48012

>  <i_f3d_flags>  (140) 
0

>  <s_epik_input>  (140) 
W0NIM11DKD1PKU9bQ0BIXShbQ0gyXTEpW0NAXShbT0hdKShDKD1DKFtDSDNdKVtDSDNdKVtDSDJdW0NASF0yW09IXSlbQ0hdKFtDQEBdMihbQ0gzXSlbQ0BAXTM0W0NAQEhdKEMxNTYpTzUpW1MrXShbTy1dKVtDQEhdKFtDQEBIXShbT0hdKUM2KFtPSF0pW09IXSlbQ0BdNzhbQ0BASF0oT1tDQEhdKFtDQEBIXTNPQyg9TylbQ0gzXSlbQ0gyXU9DNChbQ0gzXSlbQ0gzXSlPW0NAQF0oW0NIM10pKFtPSF0pW0NAQEhdKFtPSF0pW0NAQF03KFtPSF0pW0NAQEhdOVtDSF09QyhbQ0gzXSlDKD1PKU9bQ0BAXShPOCkoW0NIMl1bT0hdKUM5KFtDSDNdKVtDSDNd

>  <s_epik_cmdline>  (140) 
J2VwaWtfcHl0aG9uJywgJy1waHQnLCAnMi4wJywgJy1waCcsICc3LjAnLCAnLXRuJywgJzgnLCAnLW1hJywgJzIwMCcsICctaW1hZScsICc8aW5maWxlLm1hZT4nLCAnLW9tYWUnLCAnPG91dGZpbGUubWFlPic=

>  <r_lp_tautomer_probability>  (140) 
1

>  <r_epik_Ionization_Penalty>  (140) 
9.648e-06

>  <r_epik_Ionization_Penalty_Charging>  (140) 
0

>  <r_epik_Ionization_Penalty_Neutral>  (140) 
9.648e-06

>  <r_epik_State_Penalty>  (140) 
-0

>  <r_epik_Charging_Adjusted_Penalty>  (140) 
0

>  <i_epik_Tot_Q>  (140) 
0

>  <i_epik_Tot_abs_Q>  (140) 
2

>  <s_epik_Chemistry_Notes>  (140) 
This compound has an ester and may undergo hydrolysis at high or low pH. This compound contains an acetal/aminal-like group ( X-CH(R)-Y where X, Y are N, S, or O) that may be acid/base labile, releasing an aldehyde.

>  <s_lp_Force_Field>  (140) 
OPLS3e

>  <r_lp_Energy>  (140) 
316.128

>  <b_lp_Chiralities_Consistent>  (140) 
1

>  <s_lp_Variant>  (140) 
97:0-1

>  <s_i_glide_gridfile>  (140) 
pfpi4k_grid

>  <i_i_glide_lignum>  (140) 
47

>  <i_i_glide_rotatable_bonds>  (140) 
14

>  <r_i_docking_score>  (140) 
-2.30729

>  <r_i_glide_ligand_efficiency>  (140) 
-0.0349589

>  <r_i_glide_ligand_efficiency_sa>  (140) 
-0.141277

>  <r_i_glide_ligand_efficiency_ln>  (140) 
-0.444593

>  <r_i_glide_gscore>  (140) 
-2.30729

>  <r_i_glide_lipo>  (140) 
-0.194581

>  <r_i_glide_hbond>  (140) 
0

>  <r_i_glide_metal>  (140) 
-0

>  <r_i_glide_rewards>  (140) 
-0.590518

>  <r_i_glide_evdw>  (140) 
-13.3216

>  <r_i_glide_ecoul>  (140) 
-5.6802

>  <r_i_glide_erotb>  (140) 
0.07237

>  <r_i_glide_esite>  (140) 
-0.0764487

>  <r_i_glide_emodel>  (140) 
-22.271

>  <r_i_glide_energy>  (140) 
-19.0018

>  <r_i_glide_einternal>  (140) 
3.22641

>  <r_i_glide_intrahb_reward>  (140) 
-0.5

>  <i_i_glide_confnum>  (140) 
3

>  <i_i_glide_posenum>  (140) 
14

>  <r_i_glide_eff_state_penalty>  (140) 
0

>  <ligand_id>  (140) 
97

>  <original_smiles>  (140) 
CC(=O)OC1CC23OC2C24C(OC(C)=O)C(COC2(C)C)OC2OC(C)(O)C(O)C5(O)C6C=C(C)C(=O)OC(CO)(OC25C(C(O)C3(O)O)[S+]([O-])C2C1(O)C(=C(C)C)CC(O)C24C)C6(C)C

>  <smiles>  (140) 
[H]OC([H])([H])C12OC(=O)C(C([H])([H])[H])=C([H])C([H])(C3(O[H])C([H])(O[H])C(O[H])(C([H])([H])[H])OC4([H])OC5([H])C([H])([H])OC(C([H])([H])[H])(C([H])([H])[H])C6(C5([H])OC(=O)C([H])([H])[H])C5([H])OC57C([H])([H])C([H])(OC(=O)C([H])([H])[H])C5(O[H])C(=C(C([H])([H])[H])C([H])([H])[H])C([H])([H])C([H])(O[H])C6(C([H])([H])[H])C5([H])S(=O)C([H])(C([H])(O[H])C7(O[H])O[H])C43O1)C2(C([H])([H])[H])C([H])([H])[H]

$$$$
97:4:0
     RDKit          3D

128136  0  0  1  0  0  0  0  0999 V2000
    4.3970   -4.4064   -0.5924 C   0  0  0  0  0  0  0  0  0  0  0  0
    4.5840   -5.6342    0.2892 C   0  0  0  0  0  0  0  0  0  0  0  0
    4.6221   -6.7706   -0.1690 O   0  0  0  0  0  0  0  0  0  0  0  0
    4.5925   -5.3501    1.5938 O   0  0  0  0  0  0  0  0  0  0  0  0
    4.8240   -6.4085    2.5314 C   0  0  2  0  0  0  0  0  0  0  0  0
    3.5025   -6.9852    2.9885 C   0  0  0  0  0  0  0  0  0  0  0  0
    2.5815   -5.9576    3.6906 C   0  0  1  0  0  0  0  0  0  0  0  0
    1.9480   -6.6897    4.7636 O   0  0  0  0  0  0  0  0  0  0  0  0
    2.3645   -5.3959    5.1424 C   0  0  1  0  0  0  0  0  0  0  0  0
    3.1387   -5.0621    6.5177 C   0  0  2  0  0  0  0  0  0  0  0  0
    1.7637   -5.3875    7.2990 C   0  0  1  0  0  0  0  0  0  0  0  0
    1.8641   -5.9566    8.6029 O   0  0  0  0  0  0  0  0  0  0  0  0
    1.0375   -6.9362    9.0733 C   0  0  0  0  0  0  0  0  0  0  0  0
   -0.0651   -7.4626    8.1572 C   0  0  0  0  0  0  0  0  0  0  0  0
    1.1322   -7.3909   10.2029 O   0  0  0  0  0  0  0  0  0  0  0  0
    0.8061   -4.0711    7.3134 C   0  0  1  0  0  0  0  0  0  0  0  0
    1.3289   -2.9886    8.1987 C   0  0  0  0  0  0  0  0  0  0  0  0
    2.5328   -2.6470    7.5509 O   0  0  0  0  0  0  0  0  0  0  0  0
    3.5291   -3.6688    7.4094 C   0  0  0  0  0  0  0  0  0  0  0  0
    3.9766   -3.9736    8.9042 C   0  0  0  0  0  0  0  0  0  0  0  0
    4.6382   -2.6522    7.0037 C   0  0  0  0  0  0  0  0  0  0  0  0
    0.3251   -3.5032    6.0394 O   0  0  0  0  0  0  0  0  0  0  0  0
    0.4092   -2.1831    5.4448 C   0  0  1  0  0  0  0  0  0  0  0  0
   -0.1936   -1.1712    6.1998 O   0  0  0  0  0  0  0  0  0  0  0  0
   -1.0597   -0.3759    5.4869 C   0  0  1  0  0  0  0  0  0  0  0  0
   -2.3672   -1.1442    5.4051 C   0  0  0  0  0  0  0  0  0  0  0  0
   -1.3623    0.7953    6.2107 O   0  0  0  0  0  0  0  0  0  0  0  0
   -0.5248   -0.0609    4.0452 C   0  0  1  0  0  0  0  0  0  0  0  0
   -0.8990    1.2344    3.6158 O   0  0  0  0  0  0  0  0  0  0  0  0
    0.9920   -0.4751    3.6955 C   0  0  1  0  0  0  0  0  0  0  0  0
    0.8140   -0.9987    2.3990 O   0  0  0  0  0  0  0  0  0  0  0  0
    1.9186    0.7507    3.3710 C   0  0  2  0  0  0  0  0  0  0  0  0
    2.9569    0.4347    2.3221 C   0  0  0  0  0  0  0  0  0  0  0  0
    4.2463    0.1008    2.4521 C   0  0  0  0  0  0  0  0  0  0  0  0
    5.0515   -0.1942    1.1776 C   0  0  0  0  0  0  0  0  0  0  0  0
    5.0543    0.0204    3.7078 C   0  0  0  0  0  0  0  0  0  0  0  0
    6.2604    0.0446    3.6618 O   0  0  0  0  0  0  0  0  0  0  0  0
    4.5013   -0.0498    4.9656 O   0  0  0  0  0  0  0  0  0  0  0  0
    3.2346    0.3188    5.4358 C   0  0  2  0  0  0  0  0  0  0  0  0
    3.5217    0.7116    6.9225 C   0  0  0  0  0  0  0  0  0  0  0  0
    4.1110    1.9651    7.1250 O   0  0  0  0  0  0  0  0  0  0  0  0
    2.4045   -0.8203    5.6281 O   0  0  0  0  0  0  0  0  0  0  0  0
    1.6864   -1.5795    4.6379 C   0  0  1  0  0  0  0  0  0  0  0  0
    2.4941   -2.8615    4.0104 C   0  0  1  0  0  0  0  0  0  0  0  0
    1.8081   -3.6357    2.8067 C   0  0  1  0  0  0  0  0  0  0  0  0
    2.4401   -3.1373    1.6519 O   0  0  0  0  0  0  0  0  0  0  0  0
    1.6442   -5.2237    2.7131 C   0  0  0  0  0  0  0  0  0  0  0  0
    1.7441   -5.6251    1.3577 O   0  0  0  0  0  0  0  0  0  0  0  0
    0.3688   -5.6142    3.1664 O   0  0  0  0  0  0  0  0  0  0  0  0
    4.3698   -3.2867    4.1170 S   0  0  0  0  0  0  0  0  0  0  0  0
    5.0515   -2.9023    2.8008 O   0  0  0  0  0  0  0  0  0  0  0  0
    5.0634   -5.0099    4.8114 C   0  0  2  0  0  0  0  0  0  0  0  0
    5.6961   -5.9769    3.7331 C   0  0  2  0  0  0  0  0  0  0  0  0
    6.6452   -5.2029    3.0702 O   0  0  0  0  0  0  0  0  0  0  0  0
    6.3913   -7.2538    4.3340 C   0  0  0  0  0  0  0  0  0  0  0  0
    7.5539   -7.8206    3.8872 C   0  0  0  0  0  0  0  0  0  0  0  0
    8.2031   -9.0672    4.4963 C   0  0  0  0  0  0  0  0  0  0  0  0
    8.3972   -7.3350    2.7162 C   0  0  0  0  0  0  0  0  0  0  0  0
    5.6815   -7.9721    5.4957 C   0  0  0  0  0  0  0  0  0  0  0  0
    4.4571   -7.2937    6.1070 C   0  0  1  0  0  0  0  0  0  0  0  0
    4.1484   -7.8949    7.3508 O   0  0  0  0  0  0  0  0  0  0  0  0
    4.5383   -5.7316    6.1926 C   0  0  2  0  0  0  0  0  0  0  0  0
    5.7102   -5.6382    7.2658 C   0  0  0  0  0  0  0  0  0  0  0  0
    2.4680    1.4391    4.6254 C   0  0  0  0  0  0  0  0  0  0  0  0
    3.3284    2.6822    4.2384 C   0  0  0  0  0  0  0  0  0  0  0  0
    1.3720    2.0508    5.5219 C   0  0  0  0  0  0  0  0  0  0  0  0
    5.1671   -3.6410   -0.4419 H   0  0  0  0  0  0  0  0  0  0  0  0
    3.4274   -3.9738   -0.3718 H   0  0  0  0  0  0  0  0  0  0  0  0
    4.3722   -4.6791   -1.6458 H   0  0  0  0  0  0  0  0  0  0  0  0
    5.3928   -7.2033    2.0394 H   0  0  0  0  0  0  0  0  0  0  0  0
    2.9932   -7.4720    2.1538 H   0  0  0  0  0  0  0  0  0  0  0  0
    3.6878   -7.8575    3.6100 H   0  0  0  0  0  0  0  0  0  0  0  0
    1.4726   -4.8927    5.0916 H   0  0  0  0  0  0  0  0  0  0  0  0
    1.1933   -6.1553    6.8050 H   0  0  0  0  0  0  0  0  0  0  0  0
   -0.7158   -6.6387    7.8366 H   0  0  0  0  0  0  0  0  0  0  0  0
   -0.6963   -8.1937    8.6526 H   0  0  0  0  0  0  0  0  0  0  0  0
    0.3564   -7.9405    7.2510 H   0  0  0  0  0  0  0  0  0  0  0  0
   -0.0872   -4.4217    7.8110 H   0  0  0  0  0  0  0  0  0  0  0  0
    0.6601   -2.1362    8.2594 H   0  0  0  0  0  0  0  0  0  0  0  0
    1.4352   -3.3574    9.2189 H   0  0  0  0  0  0  0  0  0  0  0  0
    3.8797   -5.0089    9.2000 H   0  0  0  0  0  0  0  0  0  0  0  0
    3.4642   -3.3645    9.6430 H   0  0  0  0  0  0  0  0  0  0  0  0
    5.0191   -3.7426    9.0951 H   0  0  0  0  0  0  0  0  0  0  0  0
    5.5702   -3.0259    6.6101 H   0  0  0  0  0  0  0  0  0  0  0  0
    4.8917   -2.0085    7.8455 H   0  0  0  0  0  0  0  0  0  0  0  0
    4.2667   -1.9771    6.2604 H   0  0  0  0  0  0  0  0  0  0  0  0
   -0.2328   -2.4986    4.6326 H   0  0  0  0  0  0  0  0  0  0  0  0
   -2.7493   -1.3474    6.4071 H   0  0  0  0  0  0  0  0  0  0  0  0
   -2.1562   -2.0838    4.9251 H   0  0  0  0  0  0  0  0  0  0  0  0
   -3.1116   -0.5902    4.8259 H   0  0  0  0  0  0  0  0  0  0  0  0
   -0.6966    1.4391    6.0058 H   0  0  0  0  0  0  0  0  0  0  0  0
   -1.1510   -0.6566    3.3868 H   0  0  0  0  0  0  0  0  0  0  0  0
   -0.8424    1.2805    2.6640 H   0  0  0  0  0  0  0  0  0  0  0  0
    0.6876   -0.2689    1.8004 H   0  0  0  0  0  0  0  0  0  0  0  0
    1.3536    1.5300    2.8364 H   0  0  0  0  0  0  0  0  0  0  0  0
    2.5589    0.4869    1.3291 H   0  0  0  0  0  0  0  0  0  0  0  0
    5.5268   -1.1855    1.1980 H   0  0  0  0  0  0  0  0  0  0  0  0
    5.8563    0.5372    1.0462 H   0  0  0  0  0  0  0  0  0  0  0  0
    4.4389   -0.1330    0.2698 H   0  0  0  0  0  0  0  0  0  0  0  0
    2.5747    0.6872    7.4669 H   0  0  0  0  0  0  0  0  0  0  0  0
    4.1561   -0.0397    7.3777 H   0  0  0  0  0  0  0  0  0  0  0  0
    3.5792    2.6280    6.7046 H   0  0  0  0  0  0  0  0  0  0  0  0
    2.3706   -3.1909    4.9943 H   0  0  0  0  0  0  0  0  0  0  0  0
    0.7755   -3.3150    2.7653 H   0  0  0  0  0  0  0  0  0  0  0  0
    2.1757   -2.2301    1.5652 H   0  0  0  0  0  0  0  0  0  0  0  0
    2.6409   -5.4768    1.0877 H   0  0  0  0  0  0  0  0  0  0  0  0
    0.4766   -6.5435    3.3728 H   0  0  0  0  0  0  0  0  0  0  0  0
    6.0089   -4.5895    5.1680 H   0  0  0  0  0  0  0  0  0  0  0  0
    7.2163   -5.8158    2.6293 H   0  0  0  0  0  0  0  0  0  0  0  0
    9.2145   -8.8435    4.8449 H   0  0  0  0  0  0  0  0  0  0  0  0
    8.2935   -9.8404    3.7308 H   0  0  0  0  0  0  0  0  0  0  0  0
    7.6720   -9.5360    5.3255 H   0  0  0  0  0  0  0  0  0  0  0  0
    8.9765   -8.1754    2.3453 H   0  0  0  0  0  0  0  0  0  0  0  0
    9.1107   -6.5732    3.0269 H   0  0  0  0  0  0  0  0  0  0  0  0
    7.8117   -6.9948    1.8692 H   0  0  0  0  0  0  0  0  0  0  0  0
    5.3889   -8.9684    5.1524 H   0  0  0  0  0  0  0  0  0  0  0  0
    6.3970   -8.1380    6.2941 H   0  0  0  0  0  0  0  0  0  0  0  0
    3.6202   -7.6878    5.5901 H   0  0  0  0  0  0  0  0  0  0  0  0
    3.9423   -8.8090    7.1906 H   0  0  0  0  0  0  0  0  0  0  0  0
    6.6224   -6.1095    6.9049 H   0  0  0  0  0  0  0  0  0  0  0  0
    5.4703   -6.1222    8.2145 H   0  0  0  0  0  0  0  0  0  0  0  0
    6.0924   -4.6696    7.5311 H   0  0  0  0  0  0  0  0  0  0  0  0
    3.6680    3.2754    5.0840 H   0  0  0  0  0  0  0  0  0  0  0  0
    2.7484    3.3589    3.5911 H   0  0  0  0  0  0  0  0  0  0  0  0
    4.1982    2.4022    3.6918 H   0  0  0  0  0  0  0  0  0  0  0  0
    1.7671    2.7714    6.2354 H   0  0  0  0  0  0  0  0  0  0  0  0
    0.9159    1.2589    6.1005 H   0  0  0  0  0  0  0  0  0  0  0  0
    0.6377    2.5953    4.9231 H   0  0  0  0  0  0  0  0  0  0  0  0
  1  2  1  0
  1 67  1  0
  1 68  1  0
  1 69  1  0
  2  3  2  0
  2  4  1  0
  4  5  1  0
  5 53  1  0
  5  6  1  0
  5 70  1  6
  6  7  1  0
  6 71  1  0
  6 72  1  0
  7  9  1  0
  7 47  1  0
  7  8  1  1
  8  9  1  0
  9 10  1  0
  9 73  1  6
 10 19  1  6
 10 62  1  0
 10 11  1  0
 11 12  1  0
 11 16  1  0
 11 74  1  6
 12 13  1  0
 13 14  1  0
 13 15  2  0
 14 75  1  0
 14 76  1  0
 14 77  1  0
 16 17  1  0
 16 22  1  0
 16 78  1  1
 17 18  1  0
 17 79  1  0
 17 80  1  0
 18 19  1  0
 19 20  1  0
 19 21  1  0
 20 81  1  0
 20 82  1  0
 20 83  1  0
 21 84  1  0
 21 85  1  0
 21 86  1  0
 22 23  1  0
 23 43  1  0
 23 24  1  0
 23 87  1  6
 24 25  1  0
 25 26  1  0
 25 27  1  1
 25 28  1  0
 26 88  1  0
 26 89  1  0
 26 90  1  0
 27 91  1  0
 28 29  1  0
 28 30  1  0
 28 92  1  6
 29 93  1  0
 30 43  1  0
 30 31  1  6
 30 32  1  0
 31 94  1  0
 32 64  1  0
 32 33  1  0
 32 95  1  6
 33 34  2  0
 33 96  1  0
 34 35  1  0
 34 36  1  0
 35 97  1  0
 35 98  1  0
 35 99  1  0
 36 37  2  0
 36 38  1  0
 38 39  1  0
 39 40  1  1
 39 42  1  0
 39 64  1  0
 40 41  1  0
 40100  1  0
 40101  1  0
 41102  1  0
 43 42  1  1
 43 44  1  0
 44 45  1  0
 50 44  1  6
 44103  1  1
 45 46  1  0
 45 47  1  0
 45104  1  6
 46105  1  0
 47 48  1  0
 47 49  1  0
 48106  1  0
 49107  1  0
 50 51  2  0
 50 52  1  0
 52 62  1  0
 52 53  1  0
 52108  1  1
 53 54  1  6
 53 55  1  0
 54109  1  0
 55 56  2  3
 55 59  1  0
 56 57  1  0
 56 58  1  0
 57110  1  0
 57111  1  0
 57112  1  0
 58113  1  0
 58114  1  0
 58115  1  0
 59 60  1  0
 59116  1  0
 59117  1  0
 60 61  1  0
 60 62  1  0
 60118  1  6
 61119  1  0
 62 63  1  1
 63120  1  0
 63121  1  0
 63122  1  0
 64 65  1  0
 64 66  1  0
 65123  1  0
 65124  1  0
 65125  1  0
 66126  1  0
 66127  1  0
 66128  1  0
M  END
>  <i_m_ct_stereo_status>  (141) 
1

>  <s_m_source_file>  (141) 
/var/tmp/pbs.5075288.sched01/tmpd529dnjr/198klec4xt1.sdf

>  <i_m_source_file_index>  (141) 
51

>  <i_lp_mmshare_version>  (141) 
48012

>  <i_f3d_flags>  (141) 
0

>  <s_epik_input>  (141) 
W0NIM11DKD1PKU9bQ0BIXShbQ0gyXTEpW0NAXShbT0hdKShDKD1DKFtDSDNdKVtDSDNdKVtDSDJdW0NASF0yW09IXSlbQ0hdKFtDQEBdMihbQ0gzXSlbQ0BAXTM0W0NAQEhdKEMxNTYpTzUpW1MrXShbTy1dKVtDQEhdKFtDQEBIXShbT0hdKUM2KFtPSF0pW09IXSlbQ0BdNzhbQ0BASF0oT1tDQEhdKFtDQEBIXTNPQyg9TylbQ0gzXSlbQ0gyXU9DNChbQ0gzXSlbQ0gzXSlPW0NAQF0oW0NIM10pKFtPSF0pW0NAQEhdKFtPSF0pW0NAQF03KFtPSF0pW0NAQEhdOVtDSF09QyhbQ0gzXSlDKD1PKU9bQ0BAXShPOCkoW0NIMl1bT0hdKUM5KFtDSDNdKVtDSDNd

>  <s_epik_cmdline>  (141) 
J2VwaWtfcHl0aG9uJywgJy1waHQnLCAnMi4wJywgJy1waCcsICc3LjAnLCAnLXRuJywgJzgnLCAnLW1hJywgJzIwMCcsICctaW1hZScsICc8aW5maWxlLm1hZT4nLCAnLW9tYWUnLCAnPG91dGZpbGUubWFlPic=

>  <r_lp_tautomer_probability>  (141) 
1

>  <r_epik_Ionization_Penalty>  (141) 
9.648e-06

>  <r_epik_Ionization_Penalty_Charging>  (141) 
0

>  <r_epik_Ionization_Penalty_Neutral>  (141) 
9.648e-06

>  <r_epik_State_Penalty>  (141) 
-0

>  <r_epik_Charging_Adjusted_Penalty>  (141) 
0

>  <i_epik_Tot_Q>  (141) 
0

>  <i_epik_Tot_abs_Q>  (141) 
2

>  <s_epik_Chemistry_Notes>  (141) 
This compound has an ester and may undergo hydrolysis at high or low pH. This compound contains an acetal/aminal-like group ( X-CH(R)-Y where X, Y are N, S, or O) that may be acid/base labile, releasing an aldehyde.

>  <s_lp_Force_Field>  (141) 
OPLS3e

>  <r_lp_Energy>  (141) 
439.723

>  <b_lp_Chiralities_Consistent>  (141) 
1

>  <s_lp_Variant>  (141) 
97:0-5

>  <s_i_glide_gridfile>  (141) 
pfpi4k_grid

>  <i_i_glide_lignum>  (141) 
51

>  <i_i_glide_rotatable_bonds>  (141) 
14

>  <r_i_docking_score>  (141) 
-3.17808

>  <r_i_glide_ligand_efficiency>  (141) 
-0.0481527

>  <r_i_glide_ligand_efficiency_sa>  (141) 
-0.194597

>  <r_i_glide_ligand_efficiency_ln>  (141) 
-0.612388

>  <r_i_glide_gscore>  (141) 
-3.17808

>  <r_i_glide_lipo>  (141) 
-0.234432

>  <r_i_glide_hbond>  (141) 
0

>  <r_i_glide_metal>  (141) 
-0

>  <r_i_glide_rewards>  (141) 
-0.735356

>  <r_i_glide_evdw>  (141) 
-20.7669

>  <r_i_glide_ecoul>  (141) 
-7.69347

>  <r_i_glide_erotb>  (141) 
0.07237

>  <r_i_glide_esite>  (141) 
-0.0882958

>  <r_i_glide_emodel>  (141) 
-28.8873

>  <r_i_glide_energy>  (141) 
-28.4604

>  <r_i_glide_einternal>  (141) 
8.04949

>  <r_i_glide_intrahb_reward>  (141) 
-0.5

>  <i_i_glide_confnum>  (141) 
6

>  <i_i_glide_posenum>  (141) 
37

>  <r_i_glide_eff_state_penalty>  (141) 
0

>  <ligand_id>  (141) 
97

>  <original_smiles>  (141) 
CC(=O)OC1CC23OC2C24C(OC(C)=O)C(COC2(C)C)OC2OC(C)(O)C(O)C5(O)C6C=C(C)C(=O)OC(CO)(OC25C(C(O)C3(O)O)[S+]([O-])C2C1(O)C(=C(C)C)CC(O)C24C)C6(C)C

>  <smiles>  (141) 
[H]OC([H])([H])C12OC(=O)C(C([H])([H])[H])=C([H])C([H])(C3(O[H])C([H])(O[H])C(O[H])(C([H])([H])[H])OC4([H])OC5([H])C([H])([H])OC(C([H])([H])[H])(C([H])([H])[H])C6(C5([H])OC(=O)C([H])([H])[H])C5([H])OC57C([H])([H])C([H])(OC(=O)C([H])([H])[H])C5(O[H])C(=C(C([H])([H])[H])C([H])([H])[H])C([H])([H])C([H])(O[H])C6(C([H])([H])[H])C5([H])S(=O)C([H])(C([H])(O[H])C7(O[H])O[H])C43O1)C2(C([H])([H])[H])C([H])([H])[H]

$$$$
98:0:0
     RDKit          3D

 81 86  0  0  1  0  0  0  0  0999 V2000
    6.4206  -11.5092    2.1057 C   0  0  0  0  0  0  0  0  0  0  0  0
    6.1174  -10.2844    1.2119 C   0  0  0  0  0  0  0  0  0  0  0  0
    6.4256   -8.9318    1.8836 C   0  0  0  0  0  0  0  0  0  0  0  0
    7.3997   -8.2619    1.5308 O   0  0  0  0  0  0  0  0  0  0  0  0
    5.6026   -8.5288    2.9054 O   0  0  0  0  0  0  0  0  0  0  0  0
    4.3142   -9.0940    3.2002 C   0  0  2  0  0  0  0  0  0  0  0  0
    3.3003   -8.3032    2.2783 C   0  0  1  0  0  0  0  0  0  0  0  0
    2.6515   -9.2425    1.4304 O   0  0  0  0  0  0  0  0  0  0  0  0
    2.3580   -7.1127    2.7596 C   0  0  1  0  0  0  0  0  0  0  0  0
    2.7579   -5.8547    1.9266 C   0  0  0  0  0  0  0  0  0  0  0  0
    1.0927   -7.2232    2.1155 O   0  0  0  0  0  0  0  0  0  0  0  0
    2.0898   -6.9663    4.3547 C   0  0  2  0  0  0  0  0  0  0  0  0
    1.2685   -5.5893    4.6022 C   0  0  1  0  0  0  0  0  0  0  0  0
    0.2926   -5.4134    6.1772 S   0  0  0  0  0  0  0  0  0  0  0  0
   -1.2008   -5.4511    5.9628 O   0  0  0  0  0  0  0  0  0  0  0  0
    0.8501   -3.6810    5.9291 C   0  0  1  0  0  0  0  0  0  0  0  0
   -0.2611   -2.7783    5.3536 C   0  0  0  0  0  0  0  0  0  0  0  0
    1.4435   -3.1738    7.1927 C   0  0  0  0  0  0  0  0  0  0  0  0
    0.8179   -2.7149    8.1594 O   0  0  0  0  0  0  0  0  0  0  0  0
    2.9641   -3.2569    7.1219 C   0  0  0  0  0  0  0  0  0  0  0  0
    3.4923   -1.8547    6.7456 C   0  0  0  0  0  0  0  0  0  0  0  0
    3.5642   -3.6255    8.4921 C   0  0  0  0  0  0  0  0  0  0  0  0
    3.1915   -4.2917    5.9563 C   0  0  1  0  0  0  0  0  0  0  0  0
    3.5258   -5.7604    6.3543 C   0  0  1  0  0  0  0  0  0  0  0  0
    2.7635   -6.2443    7.4408 O   0  0  0  0  0  0  0  0  0  0  0  0
    3.5200   -6.7750    5.1512 C   0  0  2  0  0  0  0  0  0  0  0  0
    4.4105   -6.1128    4.2751 O   0  0  0  0  0  0  0  0  0  0  0  0
    4.4304   -8.0171    5.5373 C   0  0  1  0  0  0  0  0  0  0  0  0
    4.5421   -8.2874    6.9304 O   0  0  0  0  0  0  0  0  0  0  0  0
    4.1934   -9.3300    4.7662 C   0  0  2  0  0  0  0  0  0  0  0  0
    5.3543  -10.3248    5.1405 C   0  0  0  0  0  0  0  0  0  0  0  0
    2.8127  -10.0160    5.2272 C   0  0  2  0  0  0  0  0  0  0  0  0
    3.0814  -11.1214    6.0522 O   0  0  0  0  0  0  0  0  0  0  0  0
    2.1770  -10.3868    4.0511 O   0  0  0  0  0  0  0  0  0  0  0  0
    1.0338   -9.5723    3.8759 C   0  0  0  0  0  0  0  0  0  0  0  0
    1.2021   -8.2969    4.7768 C   0  0  2  0  0  0  0  0  0  0  0  0
   -0.1736   -8.0068    4.9500 O   0  0  0  0  0  0  0  0  0  0  0  0
    1.7828   -9.0658    5.9489 C   0  0  1  0  0  0  0  0  0  0  0  0
    0.7451   -9.7104    6.6772 O   0  0  0  0  0  0  0  0  0  0  0  0
    1.9734   -4.2206    5.0122 C   0  0  1  0  0  0  0  0  0  0  0  0
    2.2946   -3.2803    3.8357 C   0  0  0  0  0  0  0  0  0  0  0  0
    6.2714  -12.4177    1.5297 H   0  0  0  0  0  0  0  0  0  0  0  0
    5.7864  -11.5463    2.9637 H   0  0  0  0  0  0  0  0  0  0  0  0
    7.4565  -11.5054    2.4227 H   0  0  0  0  0  0  0  0  0  0  0  0
    6.6553  -10.3189    0.2560 H   0  0  0  0  0  0  0  0  0  0  0  0
    5.0691  -10.2543    0.9195 H   0  0  0  0  0  0  0  0  0  0  0  0
    4.2837  -10.1093    2.8245 H   0  0  0  0  0  0  0  0  0  0  0  0
    3.9300   -7.8557    1.5076 H   0  0  0  0  0  0  0  0  0  0  0  0
    3.2525   -9.9511    1.2171 H   0  0  0  0  0  0  0  0  0  0  0  0
    3.7473   -5.4592    2.1353 H   0  0  0  0  0  0  0  0  0  0  0  0
    2.0310   -5.0558    2.0071 H   0  0  0  0  0  0  0  0  0  0  0  0
    2.7837   -6.0928    0.8598 H   0  0  0  0  0  0  0  0  0  0  0  0
    0.7847   -8.1176    2.2259 H   0  0  0  0  0  0  0  0  0  0  0  0
    0.5287   -5.3938    3.8314 H   0  0  0  0  0  0  0  0  0  0  0  0
    0.1633   -1.8075    5.1071 H   0  0  0  0  0  0  0  0  0  0  0  0
   -1.0741   -2.5743    6.0547 H   0  0  0  0  0  0  0  0  0  0  0  0
   -0.6807   -3.1334    4.4105 H   0  0  0  0  0  0  0  0  0  0  0  0
    4.5109   -1.9221    6.3805 H   0  0  0  0  0  0  0  0  0  0  0  0
    3.5087   -1.1926    7.6087 H   0  0  0  0  0  0  0  0  0  0  0  0
    2.8939   -1.3425    5.9934 H   0  0  0  0  0  0  0  0  0  0  0  0
    4.5878   -3.9512    8.3851 H   0  0  0  0  0  0  0  0  0  0  0  0
    3.0161   -4.4022    9.0173 H   0  0  0  0  0  0  0  0  0  0  0  0
    3.5733   -2.7764    9.1676 H   0  0  0  0  0  0  0  0  0  0  0  0
    4.0614   -3.9294    5.4177 H   0  0  0  0  0  0  0  0  0  0  0  0
    4.5284   -5.7190    6.7775 H   0  0  0  0  0  0  0  0  0  0  0  0
    3.0849   -7.1172    7.6519 H   0  0  0  0  0  0  0  0  0  0  0  0
    5.2528   -6.0341    4.7083 H   0  0  0  0  0  0  0  0  0  0  0  0
    5.4729   -7.7575    5.3333 H   0  0  0  0  0  0  0  0  0  0  0  0
    5.1161   -9.0429    7.0159 H   0  0  0  0  0  0  0  0  0  0  0  0
    5.4680  -10.4541    6.2186 H   0  0  0  0  0  0  0  0  0  0  0  0
    6.3158   -9.9708    4.7977 H   0  0  0  0  0  0  0  0  0  0  0  0
    5.1956  -11.2908    4.6798 H   0  0  0  0  0  0  0  0  0  0  0  0
    2.2742  -11.5567    6.3435 H   0  0  0  0  0  0  0  0  0  0  0  0
    0.7251   -9.4516    2.8412 H   0  0  0  0  0  0  0  0  0  0  0  0
    0.2146  -10.1913    4.2535 H   0  0  0  0  0  0  0  0  0  0  0  0
   -0.6018   -8.8314    5.1935 H   0  0  0  0  0  0  0  0  0  0  0  0
    2.2390   -8.4801    6.7192 H   0  0  0  0  0  0  0  0  0  0  0  0
    1.0697  -10.5455    7.0039 H   0  0  0  0  0  0  0  0  0  0  0  0
    2.4433   -2.2560    4.1610 H   0  0  0  0  0  0  0  0  0  0  0  0
    1.4755   -3.2343    3.1100 H   0  0  0  0  0  0  0  0  0  0  0  0
    3.2017   -3.5716    3.3051 H   0  0  0  0  0  0  0  0  0  0  0  0
  1  2  1  0
  1 42  1  0
  1 43  1  0
  1 44  1  0
  2  3  1  0
  2 45  1  0
  2 46  1  0
  3  4  2  0
  3  5  1  0
  5  6  1  0
  6 30  1  0
  6  7  1  0
  6 47  1  6
  7  8  1  0
  7  9  1  0
  7 48  1  6
  8 49  1  0
  9 10  1  0
  9 11  1  6
 12  9  1  6
 10 50  1  0
 10 51  1  0
 10 52  1  0
 11 53  1  0
 12 26  1  0
 12 36  1  0
 12 13  1  0
 13 40  1  0
 13 14  1  0
 13 54  1  6
 14 15  2  0
 14 16  1  6
 16 40  1  0
 16 17  1  6
 16 18  1  0
 17 55  1  0
 17 56  1  0
 17 57  1  0
 18 19  2  0
 18 20  1  0
 20 21  1  0
 20 22  1  0
 20 23  1  0
 21 58  1  0
 21 59  1  0
 21 60  1  0
 22 61  1  0
 22 62  1  0
 22 63  1  0
 23 24  1  0
 23 40  1  0
 23 64  1  6
 24 25  1  0
 24 26  1  0
 24 65  1  1
 25 66  1  0
 26 27  1  6
 26 28  1  0
 27 67  1  0
 28 29  1  0
 28 30  1  0
 28 68  1  6
 29 69  1  0
 30 31  1  1
 30 32  1  0
 31 70  1  0
 31 71  1  0
 31 72  1  0
 32 38  1  0
 32 33  1  1
 32 34  1  0
 33 73  1  0
 34 35  1  0
 35 36  1  0
 35 74  1  0
 35 75  1  0
 36 37  1  1
 36 38  1  0
 37 76  1  0
 38 39  1  0
 38 77  1  1
 39 78  1  0
 40 41  1  6
 41 79  1  0
 41 80  1  0
 41 81  1  0
M  END
>  <i_m_ct_stereo_status>  (142) 
1

>  <s_m_source_file>  (142) 
/var/tmp/pbs.5075288.sched01/tmpd529dnjr/198klec4xt1.sdf

>  <i_m_source_file_index>  (142) 
54

>  <i_lp_mmshare_version>  (142) 
48012

>  <i_f3d_flags>  (142) 
0

>  <s_epik_input>  (142) 
W09IXVtDQEBIXTFbQ0BdMihbT0hdKVtDSDJdT1tDQEBdMShbT0hdKVtDQEBdKFtDSDNdKShbQ0BASF0oW0NAQEhdKFtPSF0pW0NAQF0zKFtDSDNdKVtPSF0pT0MoPU8pW0NIMl1bQ0gzXSlbQ0BIXShbT0hdKVtDQF00KFtPSF0pW0NASF0oW09IXSlbQ0BASF01QyhbQ0gzXSkoW0NIM10pQyg9TylbQ0BAXShbUytdNltPLV0pKFtDSDNdKVtDQEBdNShbQ0BIXTZbQ0BAXTIzNClbQ0gzXQ==

>  <s_epik_cmdline>  (142) 
J2VwaWtfcHl0aG9uJywgJy1waHQnLCAnMi4wJywgJy1waCcsICc3LjAnLCAnLXRuJywgJzgnLCAnLW1hJywgJzIwMCcsICctaW1hZScsICc8aW5maWxlLm1hZT4nLCAnLW9tYWUnLCAnPG91dGZpbGUubWFlPic=

>  <r_lp_tautomer_probability>  (142) 
1

>  <r_epik_Ionization_Penalty>  (142) 
1.51278e-06

>  <r_epik_Ionization_Penalty_Charging>  (142) 
0

>  <r_epik_Ionization_Penalty_Neutral>  (142) 
1.51278e-06

>  <r_epik_State_Penalty>  (142) 
-0

>  <r_epik_Charging_Adjusted_Penalty>  (142) 
0

>  <i_epik_Tot_Q>  (142) 
0

>  <i_epik_Tot_abs_Q>  (142) 
2

>  <s_epik_Chemistry_Notes>  (142) 
This compound has an ester and may undergo hydrolysis at high or low pH.

>  <s_lp_Force_Field>  (142) 
OPLS3e

>  <r_lp_Energy>  (142) 
148.609

>  <b_lp_Chiralities_Consistent>  (142) 
1

>  <s_lp_Variant>  (142) 
98:0-1

>  <s_i_glide_gridfile>  (142) 
pfpi4k_grid

>  <i_i_glide_lignum>  (142) 
54

>  <i_i_glide_rotatable_bonds>  (142) 
11

>  <r_i_docking_score>  (142) 
-3.27684

>  <r_i_glide_ligand_efficiency>  (142) 
-0.0799229

>  <r_i_glide_ligand_efficiency_sa>  (142) 
-0.275592

>  <r_i_glide_ligand_efficiency_ln>  (142) 
-0.695192

>  <r_i_glide_gscore>  (142) 
-3.27684

>  <r_i_glide_lipo>  (142) 
-0.0021705

>  <r_i_glide_hbond>  (142) 
0

>  <r_i_glide_metal>  (142) 
-0

>  <r_i_glide_rewards>  (142) 
-0.593882

>  <r_i_glide_evdw>  (142) 
-22.0135

>  <r_i_glide_ecoul>  (142) 
-11.0663

>  <r_i_glide_erotb>  (142) 
0.115

>  <r_i_glide_esite>  (142) 
-0.035161

>  <r_i_glide_emodel>  (142) 
-41.2218

>  <r_i_glide_energy>  (142) 
-33.0798

>  <r_i_glide_einternal>  (142) 
8.11648

>  <r_i_glide_intrahb_reward>  (142) 
-0.5

>  <i_i_glide_confnum>  (142) 
4

>  <i_i_glide_posenum>  (142) 
12

>  <r_i_glide_eff_state_penalty>  (142) 
0

>  <ligand_id>  (142) 
98

>  <original_smiles>  (142) 
CCC(=O)OC1C(O)C(C)(O)C23C4[S+]([O-])C5(C)C(=O)C(C)(C)C(C(O)C2(O)C(O)C1(C)C1(O)OCC3(O)C1O)C45C

>  <smiles>  (142) 
[H]OC1([H])C([H])(OC(=O)C([H])([H])C([H])([H])[H])C2(C([H])([H])[H])C([H])(O[H])C3(O[H])C([H])(O[H])C4([H])C(C([H])([H])[H])(C([H])([H])[H])C(=O)C5(C([H])([H])[H])S(=O)C([H])(C54C([H])([H])[H])C3(C1(O[H])C([H])([H])[H])C1(O[H])C([H])([H])OC2(O[H])C1([H])O[H]

$$$$
98:0:1
     RDKit          3D

 81 86  0  0  1  0  0  0  0  0999 V2000
    3.3977   -3.4121   -1.4852 C   0  0  0  0  0  0  0  0  0  0  0  0
    3.3450   -4.4527   -0.3659 C   0  0  0  0  0  0  0  0  0  0  0  0
    4.2246   -4.1534    0.8560 C   0  0  0  0  0  0  0  0  0  0  0  0
    4.9566   -3.1651    0.8976 O   0  0  0  0  0  0  0  0  0  0  0  0
    4.1316   -5.0552    1.8834 O   0  0  0  0  0  0  0  0  0  0  0  0
    3.3624   -6.2777    1.8116 C   0  0  2  0  0  0  0  0  0  0  0  0
    1.8791   -5.9157    2.2196 C   0  0  1  0  0  0  0  0  0  0  0  0
    1.0186   -6.2566    1.1350 O   0  0  0  0  0  0  0  0  0  0  0  0
    1.2366   -6.1408    3.6552 C   0  0  1  0  0  0  0  0  0  0  0  0
    0.8507   -4.7217    4.2009 C   0  0  0  0  0  0  0  0  0  0  0  0
   -0.1266   -6.5482    3.5143 O   0  0  0  0  0  0  0  0  0  0  0  0
    1.9732   -7.2000    4.6461 C   0  0  2  0  0  0  0  0  0  0  0  0
    1.2370   -7.0812    6.0952 C   0  0  1  0  0  0  0  0  0  0  0  0
    1.2581   -8.5473    7.2648 S   0  0  0  0  0  0  0  0  0  0  0  0
   -0.1101   -9.2199    7.3509 O   0  0  0  0  0  0  0  0  0  0  0  0
    1.3543   -7.1378    8.4449 C   0  0  1  0  0  0  0  0  0  0  0  0
    0.0027   -6.9708    9.1422 C   0  0  0  0  0  0  0  0  0  0  0  0
    2.4981   -7.3359    9.4044 C   0  0  0  0  0  0  0  0  0  0  0  0
    2.5264   -8.0375   10.4020 O   0  0  0  0  0  0  0  0  0  0  0  0
    3.6761   -6.4384    8.9780 C   0  0  0  0  0  0  0  0  0  0  0  0
    3.6219   -5.1509    9.8373 C   0  0  0  0  0  0  0  0  0  0  0  0
    5.0271   -7.1250    9.2403 C   0  0  0  0  0  0  0  0  0  0  0  0
    3.3430   -6.1294    7.4722 C   0  0  1  0  0  0  0  0  0  0  0  0
    4.0842   -6.9576    6.3681 C   0  0  1  0  0  0  0  0  0  0  0  0
    4.2081   -8.3303    6.6809 O   0  0  0  0  0  0  0  0  0  0  0  0
    3.5384   -6.7484    4.9019 C   0  0  2  0  0  0  0  0  0  0  0  0
    3.5928   -5.3371    4.8366 O   0  0  0  0  0  0  0  0  0  0  0  0
    4.6836   -7.1022    3.8677 C   0  0  1  0  0  0  0  0  0  0  0  0
    5.6867   -8.0157    4.3092 O   0  0  0  0  0  0  0  0  0  0  0  0
    4.2390   -7.4383    2.4329 C   0  0  2  0  0  0  0  0  0  0  0  0
    5.5224   -7.4609    1.5245 C   0  0  0  0  0  0  0  0  0  0  0  0
    3.5557   -8.8898    2.3670 C   0  0  2  0  0  0  0  0  0  0  0  0
    4.4268   -9.8221    1.7679 O   0  0  0  0  0  0  0  0  0  0  0  0
    2.4020   -8.7243    1.6094 O   0  0  0  0  0  0  0  0  0  0  0  0
    1.2804   -8.8920    2.4580 C   0  0  0  0  0  0  0  0  0  0  0  0
    1.7573   -8.6829    3.9385 C   0  0  2  0  0  0  0  0  0  0  0  0
    0.7362   -9.4303    4.5668 O   0  0  0  0  0  0  0  0  0  0  0  0
    3.0501   -9.4677    3.7398 C   0  0  1  0  0  0  0  0  0  0  0  0
    2.8894  -10.8843    3.7198 O   0  0  0  0  0  0  0  0  0  0  0  0
    1.8056   -6.2076    7.2990 C   0  0  1  0  0  0  0  0  0  0  0  0
    1.1897   -4.8033    7.4100 C   0  0  0  0  0  0  0  0  0  0  0  0
    2.6896   -3.6868   -2.2631 H   0  0  0  0  0  0  0  0  0  0  0  0
    4.3831   -3.3584   -1.9422 H   0  0  0  0  0  0  0  0  0  0  0  0
    3.1155   -2.4212   -1.1310 H   0  0  0  0  0  0  0  0  0  0  0  0
    2.3078   -4.5347   -0.0477 H   0  0  0  0  0  0  0  0  0  0  0  0
    3.6661   -5.4121   -0.7668 H   0  0  0  0  0  0  0  0  0  0  0  0
    3.2985   -6.5810    0.7635 H   0  0  0  0  0  0  0  0  0  0  0  0
    1.8480   -4.8396    2.0844 H   0  0  0  0  0  0  0  0  0  0  0  0
    1.0995   -7.1890    0.9772 H   0  0  0  0  0  0  0  0  0  0  0  0
    1.6874   -4.0595    4.4289 H   0  0  0  0  0  0  0  0  0  0  0  0
    0.1848   -4.7706    5.0609 H   0  0  0  0  0  0  0  0  0  0  0  0
    0.2848   -4.1622    3.4509 H   0  0  0  0  0  0  0  0  0  0  0  0
   -0.1377   -7.4703    3.3024 H   0  0  0  0  0  0  0  0  0  0  0  0
    0.1625   -6.9428    5.9947 H   0  0  0  0  0  0  0  0  0  0  0  0
    0.0132   -6.0612    9.7342 H   0  0  0  0  0  0  0  0  0  0  0  0
   -0.2226   -7.7862    9.8262 H   0  0  0  0  0  0  0  0  0  0  0  0
   -0.8217   -6.8659    8.4427 H   0  0  0  0  0  0  0  0  0  0  0  0
    4.2197   -4.3579    9.3777 H   0  0  0  0  0  0  0  0  0  0  0  0
    4.0357   -5.3339   10.8319 H   0  0  0  0  0  0  0  0  0  0  0  0
    2.6088   -4.7672   10.0067 H   0  0  0  0  0  0  0  0  0  0  0  0
    5.8237   -6.6228    8.6928 H   0  0  0  0  0  0  0  0  0  0  0  0
    5.0300   -8.1834    8.9756 H   0  0  0  0  0  0  0  0  0  0  0  0
    5.2819   -7.0884   10.2975 H   0  0  0  0  0  0  0  0  0  0  0  0
    3.6273   -5.0910    7.3032 H   0  0  0  0  0  0  0  0  0  0  0  0
    5.1121   -6.5957    6.4134 H   0  0  0  0  0  0  0  0  0  0  0  0
    3.3547   -8.7290    6.6824 H   0  0  0  0  0  0  0  0  0  0  0  0
    4.4864   -5.0718    4.9957 H   0  0  0  0  0  0  0  0  0  0  0  0
    5.3328   -6.2277    3.7745 H   0  0  0  0  0  0  0  0  0  0  0  0
    5.3042   -8.8700    4.4531 H   0  0  0  0  0  0  0  0  0  0  0  0
    6.2544   -8.2116    1.8321 H   0  0  0  0  0  0  0  0  0  0  0  0
    6.0733   -6.5152    1.5340 H   0  0  0  0  0  0  0  0  0  0  0  0
    5.2601   -7.6748    0.4838 H   0  0  0  0  0  0  0  0  0  0  0  0
    3.9380  -10.6130    1.5326 H   0  0  0  0  0  0  0  0  0  0  0  0
    0.3887   -8.3719    2.1166 H   0  0  0  0  0  0  0  0  0  0  0  0
    0.9942   -9.9335    2.2950 H   0  0  0  0  0  0  0  0  0  0  0  0
    1.0843   -9.9032    5.3114 H   0  0  0  0  0  0  0  0  0  0  0  0
    3.7496   -9.3507    4.5452 H   0  0  0  0  0  0  0  0  0  0  0  0
    2.3177  -11.1028    2.9994 H   0  0  0  0  0  0  0  0  0  0  0  0
    1.3243   -4.3792    8.3956 H   0  0  0  0  0  0  0  0  0  0  0  0
    0.1077   -4.8147    7.2438 H   0  0  0  0  0  0  0  0  0  0  0  0
    1.6358   -4.1066    6.7086 H   0  0  0  0  0  0  0  0  0  0  0  0
  1  2  1  0
  1 42  1  0
  1 43  1  0
  1 44  1  0
  2  3  1  0
  2 45  1  0
  2 46  1  0
  3  4  2  0
  3  5  1  0
  5  6  1  0
  6 30  1  0
  6  7  1  0
  6 47  1  6
  7  8  1  0
  7  9  1  0
  7 48  1  6
  8 49  1  0
  9 10  1  0
  9 11  1  6
 12  9  1  6
 10 50  1  0
 10 51  1  0
 10 52  1  0
 11 53  1  0
 12 26  1  0
 12 36  1  0
 12 13  1  0
 13 40  1  0
 13 14  1  0
 13 54  1  6
 14 15  2  0
 14 16  1  1
 16 40  1  0
 16 17  1  1
 16 18  1  0
 17 55  1  0
 17 56  1  0
 17 57  1  0
 18 19  2  0
 18 20  1  0
 20 21  1  0
 20 22  1  0
 20 23  1  0
 21 58  1  0
 21 59  1  0
 21 60  1  0
 22 61  1  0
 22 62  1  0
 22 63  1  0
 23 24  1  0
 23 40  1  0
 23 64  1  6
 24 25  1  0
 24 26  1  0
 24 65  1  6
 25 66  1  0
 26 27  1  1
 26 28  1  0
 27 67  1  0
 28 29  1  0
 28 30  1  0
 28 68  1  6
 29 69  1  0
 30 31  1  6
 30 32  1  0
 31 70  1  0
 31 71  1  0
 31 72  1  0
 32 38  1  0
 32 33  1  6
 32 34  1  0
 33 73  1  0
 34 35  1  0
 35 36  1  0
 35 74  1  0
 35 75  1  0
 36 37  1  1
 36 38  1  0
 37 76  1  0
 38 39  1  0
 38 77  1  1
 39 78  1  0
 40 41  1  1
 41 79  1  0
 41 80  1  0
 41 81  1  0
M  END
>  <i_m_ct_stereo_status>  (143) 
1

>  <s_m_source_file>  (143) 
/var/tmp/pbs.5075288.sched01/tmpd529dnjr/198klec4xt1.sdf

>  <i_m_source_file_index>  (143) 
54

>  <i_lp_mmshare_version>  (143) 
48012

>  <i_f3d_flags>  (143) 
0

>  <s_epik_input>  (143) 
W09IXVtDQEBIXTFbQ0BdMihbT0hdKVtDSDJdT1tDQEBdMShbT0hdKVtDQEBdKFtDSDNdKShbQ0BASF0oW0NAQEhdKFtPSF0pW0NAQF0zKFtDSDNdKVtPSF0pT0MoPU8pW0NIMl1bQ0gzXSlbQ0BIXShbT0hdKVtDQF00KFtPSF0pW0NASF0oW09IXSlbQ0BASF01QyhbQ0gzXSkoW0NIM10pQyg9TylbQ0BAXShbUytdNltPLV0pKFtDSDNdKVtDQEBdNShbQ0BIXTZbQ0BAXTIzNClbQ0gzXQ==

>  <s_epik_cmdline>  (143) 
J2VwaWtfcHl0aG9uJywgJy1waHQnLCAnMi4wJywgJy1waCcsICc3LjAnLCAnLXRuJywgJzgnLCAnLW1hJywgJzIwMCcsICctaW1hZScsICc8aW5maWxlLm1hZT4nLCAnLW9tYWUnLCAnPG91dGZpbGUubWFlPic=

>  <r_lp_tautomer_probability>  (143) 
1

>  <r_epik_Ionization_Penalty>  (143) 
1.51278e-06

>  <r_epik_Ionization_Penalty_Charging>  (143) 
0

>  <r_epik_Ionization_Penalty_Neutral>  (143) 
1.51278e-06

>  <r_epik_State_Penalty>  (143) 
-0

>  <r_epik_Charging_Adjusted_Penalty>  (143) 
0

>  <i_epik_Tot_Q>  (143) 
0

>  <i_epik_Tot_abs_Q>  (143) 
2

>  <s_epik_Chemistry_Notes>  (143) 
This compound has an ester and may undergo hydrolysis at high or low pH.

>  <s_lp_Force_Field>  (143) 
OPLS3e

>  <r_lp_Energy>  (143) 
148.609

>  <b_lp_Chiralities_Consistent>  (143) 
1

>  <s_lp_Variant>  (143) 
98:0-1

>  <s_i_glide_gridfile>  (143) 
pfpi4k_grid

>  <i_i_glide_lignum>  (143) 
54

>  <i_i_glide_rotatable_bonds>  (143) 
11

>  <r_i_docking_score>  (143) 
-2.51468

>  <r_i_glide_ligand_efficiency>  (143) 
-0.0613335

>  <r_i_glide_ligand_efficiency_sa>  (143) 
-0.211491

>  <r_i_glide_ligand_efficiency_ln>  (143) 
-0.533497

>  <r_i_glide_gscore>  (143) 
-2.51468

>  <r_i_glide_lipo>  (143) 
-0.185474

>  <r_i_glide_hbond>  (143) 
0

>  <r_i_glide_metal>  (143) 
-0

>  <r_i_glide_rewards>  (143) 
-0.0323861

>  <r_i_glide_evdw>  (143) 
-24.2596

>  <r_i_glide_ecoul>  (143) 
-7.61442

>  <r_i_glide_erotb>  (143) 
0.115

>  <r_i_glide_esite>  (143) 
-0.0566711

>  <r_i_glide_emodel>  (143) 
-35.447

>  <r_i_glide_energy>  (143) 
-31.8741

>  <r_i_glide_einternal>  (143) 
5.74559

>  <r_i_glide_intrahb_reward>  (143) 
-0

>  <i_i_glide_confnum>  (143) 
4

>  <i_i_glide_posenum>  (143) 
7

>  <r_i_glide_eff_state_penalty>  (143) 
0

>  <ligand_id>  (143) 
98

>  <original_smiles>  (143) 
CCC(=O)OC1C(O)C(C)(O)C23C4[S+]([O-])C5(C)C(=O)C(C)(C)C(C(O)C2(O)C(O)C1(C)C1(O)OCC3(O)C1O)C45C

>  <smiles>  (143) 
[H]OC1([H])C([H])(OC(=O)C([H])([H])C([H])([H])[H])C2(C([H])([H])[H])C([H])(O[H])C3(O[H])C([H])(O[H])C4([H])C(C([H])([H])[H])(C([H])([H])[H])C(=O)C5(C([H])([H])[H])S(=O)C([H])(C54C([H])([H])[H])C3(C1(O[H])C([H])([H])[H])C1(O[H])C([H])([H])OC2(O[H])C1([H])O[H]

$$$$
98:0:2
     RDKit          3D

 81 86  0  0  1  0  0  0  0  0999 V2000
    6.0842   -2.5669   -0.7935 C   0  0  0  0  0  0  0  0  0  0  0  0
    5.4232   -3.6741    0.0222 C   0  0  0  0  0  0  0  0  0  0  0  0
    5.2917   -3.3895    1.5254 C   0  0  0  0  0  0  0  0  0  0  0  0
    5.5851   -2.2960    1.9991 O   0  0  0  0  0  0  0  0  0  0  0  0
    4.8440   -4.4359    2.2925 O   0  0  0  0  0  0  0  0  0  0  0  0
    4.4986   -5.7315    1.7590 C   0  0  2  0  0  0  0  0  0  0  0  0
    2.9205   -5.7887    1.8383 C   0  0  1  0  0  0  0  0  0  0  0  0
    2.4044   -5.9584    0.5314 O   0  0  0  0  0  0  0  0  0  0  0  0
    2.0811   -6.5414    2.9642 C   0  0  1  0  0  0  0  0  0  0  0  0
    1.2036   -5.4506    3.6668 C   0  0  0  0  0  0  0  0  0  0  0  0
    0.9316   -7.1597    2.3827 O   0  0  0  0  0  0  0  0  0  0  0  0
    2.8569   -7.6449    3.8708 C   0  0  2  0  0  0  0  0  0  0  0  0
    1.8366   -8.0918    5.0538 C   0  0  1  0  0  0  0  0  0  0  0  0
    2.0225   -9.7842    5.8249 S   0  0  0  0  0  0  0  0  0  0  0  0
    0.8898  -10.6774    5.3143 O   0  0  0  0  0  0  0  0  0  0  0  0
    1.4704   -8.7818    7.2775 C   0  0  1  0  0  0  0  0  0  0  0  0
    0.0142   -9.1224    7.5975 C   0  0  0  0  0  0  0  0  0  0  0  0
    2.3932   -8.9769    8.4586 C   0  0  0  0  0  0  0  0  0  0  0  0
    2.4047   -9.8504    9.2903 O   0  0  0  0  0  0  0  0  0  0  0  0
    3.3379   -7.7536    8.5550 C   0  0  0  0  0  0  0  0  0  0  0  0
    2.7565   -6.7937    9.6267 C   0  0  0  0  0  0  0  0  0  0  0  0
    4.7516   -8.1722    9.0344 C   0  0  0  0  0  0  0  0  0  0  0  0
    3.2533   -7.1208    7.1218 C   0  0  1  0  0  0  0  0  0  0  0  0
    4.4066   -7.4363    6.1146 C   0  0  1  0  0  0  0  0  0  0  0  0
    4.8348   -8.7854    6.1665 O   0  0  0  0  0  0  0  0  0  0  0  0
    4.1465   -6.9577    4.6365 C   0  0  2  0  0  0  0  0  0  0  0  0
    3.8210   -5.6032    4.8956 O   0  0  0  0  0  0  0  0  0  0  0  0
    5.5356   -6.7615    3.8948 C   0  0  1  0  0  0  0  0  0  0  0  0
    6.6246   -7.5385    4.3743 O   0  0  0  0  0  0  0  0  0  0  0  0
    5.5149   -6.7982    2.3561 C   0  0  2  0  0  0  0  0  0  0  0  0
    6.9235   -6.3092    1.8493 C   0  0  0  0  0  0  0  0  0  0  0  0
    5.2811   -8.2969    1.8202 C   0  0  2  0  0  0  0  0  0  0  0  0
    6.4609   -8.8622    1.2884 O   0  0  0  0  0  0  0  0  0  0  0  0
    4.3203   -8.1856    0.8287 O   0  0  0  0  0  0  0  0  0  0  0  0
    3.1394   -8.7922    1.2923 C   0  0  0  0  0  0  0  0  0  0  0  0
    3.2159   -8.8932    2.8377 C   0  0  2  0  0  0  0  0  0  0  0  0
    2.3483   -9.9934    2.9817 O   0  0  0  0  0  0  0  0  0  0  0  0
    4.6811   -9.3156    2.8489 C   0  0  1  0  0  0  0  0  0  0  0  0
    4.9348  -10.6751    2.4967 O   0  0  0  0  0  0  0  0  0  0  0  0
    1.8679   -7.4900    6.5291 C   0  0  1  0  0  0  0  0  0  0  0  0
    0.8809   -6.3446    6.7653 C   0  0  0  0  0  0  0  0  0  0  0  0
    6.0841   -2.8474   -1.8451 H   0  0  0  0  0  0  0  0  0  0  0  0
    7.1205   -2.4274   -0.5010 H   0  0  0  0  0  0  0  0  0  0  0  0
    5.5630   -1.6108   -0.7059 H   0  0  0  0  0  0  0  0  0  0  0  0
    4.4273   -3.8765   -0.3779 H   0  0  0  0  0  0  0  0  0  0  0  0
    6.0193   -4.5796   -0.1111 H   0  0  0  0  0  0  0  0  0  0  0  0
    4.7188   -5.7614    0.6959 H   0  0  0  0  0  0  0  0  0  0  0  0
    2.6378   -4.7380    1.9409 H   0  0  0  0  0  0  0  0  0  0  0  0
    2.9634   -5.5017   -0.0825 H   0  0  0  0  0  0  0  0  0  0  0  0
    1.7498   -4.7128    4.2511 H   0  0  0  0  0  0  0  0  0  0  0  0
    0.4170   -5.8868    4.2878 H   0  0  0  0  0  0  0  0  0  0  0  0
    0.6682   -4.8586    2.9206 H   0  0  0  0  0  0  0  0  0  0  0  0
    1.2068   -7.9416    1.9265 H   0  0  0  0  0  0  0  0  0  0  0  0
    0.8135   -8.1795    4.7031 H   0  0  0  0  0  0  0  0  0  0  0  0
   -0.3634   -8.4226    8.3349 H   0  0  0  0  0  0  0  0  0  0  0  0
   -0.1147  -10.1173    8.0113 H   0  0  0  0  0  0  0  0  0  0  0  0
   -0.6381   -9.0479    6.7235 H   0  0  0  0  0  0  0  0  0  0  0  0
    3.1902   -5.7983    9.5232 H   0  0  0  0  0  0  0  0  0  0  0  0
    2.9888   -7.1503   10.6298 H   0  0  0  0  0  0  0  0  0  0  0  0
    1.6656   -6.7056    9.5920 H   0  0  0  0  0  0  0  0  0  0  0  0
    5.4673   -7.3806    8.8359 H   0  0  0  0  0  0  0  0  0  0  0  0
    5.0986   -9.0947    8.5640 H   0  0  0  0  0  0  0  0  0  0  0  0
    4.7529   -8.3717   10.0984 H   0  0  0  0  0  0  0  0  0  0  0  0
    3.2679   -6.0455    7.2575 H   0  0  0  0  0  0  0  0  0  0  0  0
    5.2604   -6.8832    6.5000 H   0  0  0  0  0  0  0  0  0  0  0  0
    4.1383   -9.3453    5.8650 H   0  0  0  0  0  0  0  0  0  0  0  0
    3.8151   -5.1319    4.0766 H   0  0  0  0  0  0  0  0  0  0  0  0
    5.9217   -5.7766    4.1745 H   0  0  0  0  0  0  0  0  0  0  0  0
    7.4131   -7.2683    3.9280 H   0  0  0  0  0  0  0  0  0  0  0  0
    7.7537   -6.9444    2.1720 H   0  0  0  0  0  0  0  0  0  0  0  0
    7.1795   -5.3092    2.2016 H   0  0  0  0  0  0  0  0  0  0  0  0
    6.9602   -6.2911    0.7565 H   0  0  0  0  0  0  0  0  0  0  0  0
    6.2940   -9.7853    1.1995 H   0  0  0  0  0  0  0  0  0  0  0  0
    2.2278   -8.3755    0.8893 H   0  0  0  0  0  0  0  0  0  0  0  0
    3.1678   -9.7824    0.8314 H   0  0  0  0  0  0  0  0  0  0  0  0
    2.6830  -10.7285    2.4866 H   0  0  0  0  0  0  0  0  0  0  0  0
    5.1440   -9.2669    3.8173 H   0  0  0  0  0  0  0  0  0  0  0  0
    4.5523  -10.8709    1.6338 H   0  0  0  0  0  0  0  0  0  0  0  0
    0.6846   -6.1858    7.8154 H   0  0  0  0  0  0  0  0  0  0  0  0
   -0.0955   -6.5427    6.3128 H   0  0  0  0  0  0  0  0  0  0  0  0
    1.2504   -5.4000    6.3731 H   0  0  0  0  0  0  0  0  0  0  0  0
  1  2  1  0
  1 42  1  0
  1 43  1  0
  1 44  1  0
  2  3  1  0
  2 45  1  0
  2 46  1  0
  3  4  2  0
  3  5  1  0
  5  6  1  0
  6 30  1  0
  6  7  1  0
  6 47  1  6
  7  8  1  0
  7  9  1  0
  7 48  1  1
  8 49  1  0
  9 10  1  0
  9 11  1  6
 12  9  1  6
 10 50  1  0
 10 51  1  0
 10 52  1  0
 11 53  1  0
 12 26  1  0
 12 36  1  0
 12 13  1  0
 13 40  1  0
 13 14  1  0
 13 54  1  6
 14 15  2  0
 14 16  1  1
 16 40  1  0
 16 17  1  1
 16 18  1  0
 17 55  1  0
 17 56  1  0
 17 57  1  0
 18 19  2  0
 18 20  1  0
 20 21  1  0
 20 22  1  0
 20 23  1  0
 21 58  1  0
 21 59  1  0
 21 60  1  0
 22 61  1  0
 22 62  1  0
 22 63  1  0
 23 24  1  0
 23 40  1  0
 23 64  1  1
 24 25  1  0
 24 26  1  0
 24 65  1  1
 25 66  1  0
 26 27  1  1
 26 28  1  0
 27 67  1  0
 28 29  1  0
 28 30  1  0
 28 68  1  6
 29 69  1  0
 30 31  1  6
 30 32  1  0
 31 70  1  0
 31 71  1  0
 31 72  1  0
 32 38  1  0
 32 33  1  6
 32 34  1  0
 33 73  1  0
 34 35  1  0
 35 36  1  0
 35 74  1  0
 35 75  1  0
 36 37  1  1
 36 38  1  0
 37 76  1  0
 38 39  1  0
 38 77  1  1
 39 78  1  0
 40 41  1  6
 41 79  1  0
 41 80  1  0
 41 81  1  0
M  END
>  <i_m_ct_stereo_status>  (144) 
1

>  <s_m_source_file>  (144) 
/var/tmp/pbs.5075288.sched01/tmpd529dnjr/198klec4xt1.sdf

>  <i_m_source_file_index>  (144) 
54

>  <i_lp_mmshare_version>  (144) 
48012

>  <i_f3d_flags>  (144) 
0

>  <s_epik_input>  (144) 
W09IXVtDQEBIXTFbQ0BdMihbT0hdKVtDSDJdT1tDQEBdMShbT0hdKVtDQEBdKFtDSDNdKShbQ0BASF0oW0NAQEhdKFtPSF0pW0NAQF0zKFtDSDNdKVtPSF0pT0MoPU8pW0NIMl1bQ0gzXSlbQ0BIXShbT0hdKVtDQF00KFtPSF0pW0NASF0oW09IXSlbQ0BASF01QyhbQ0gzXSkoW0NIM10pQyg9TylbQ0BAXShbUytdNltPLV0pKFtDSDNdKVtDQEBdNShbQ0BIXTZbQ0BAXTIzNClbQ0gzXQ==

>  <s_epik_cmdline>  (144) 
J2VwaWtfcHl0aG9uJywgJy1waHQnLCAnMi4wJywgJy1waCcsICc3LjAnLCAnLXRuJywgJzgnLCAnLW1hJywgJzIwMCcsICctaW1hZScsICc8aW5maWxlLm1hZT4nLCAnLW9tYWUnLCAnPG91dGZpbGUubWFlPic=

>  <r_lp_tautomer_probability>  (144) 
1

>  <r_epik_Ionization_Penalty>  (144) 
1.51278e-06

>  <r_epik_Ionization_Penalty_Charging>  (144) 
0

>  <r_epik_Ionization_Penalty_Neutral>  (144) 
1.51278e-06

>  <r_epik_State_Penalty>  (144) 
-0

>  <r_epik_Charging_Adjusted_Penalty>  (144) 
0

>  <i_epik_Tot_Q>  (144) 
0

>  <i_epik_Tot_abs_Q>  (144) 
2

>  <s_epik_Chemistry_Notes>  (144) 
This compound has an ester and may undergo hydrolysis at high or low pH.

>  <s_lp_Force_Field>  (144) 
OPLS3e

>  <r_lp_Energy>  (144) 
148.609

>  <b_lp_Chiralities_Consistent>  (144) 
1

>  <s_lp_Variant>  (144) 
98:0-1

>  <s_i_glide_gridfile>  (144) 
pfpi4k_grid

>  <i_i_glide_lignum>  (144) 
54

>  <i_i_glide_rotatable_bonds>  (144) 
11

>  <r_i_docking_score>  (144) 
-2.37486

>  <r_i_glide_ligand_efficiency>  (144) 
-0.0579234

>  <r_i_glide_ligand_efficiency_sa>  (144) 
-0.199732

>  <r_i_glide_ligand_efficiency_ln>  (144) 
-0.503834

>  <r_i_glide_gscore>  (144) 
-2.37486

>  <r_i_glide_lipo>  (144) 
-0.154478

>  <r_i_glide_hbond>  (144) 
0

>  <r_i_glide_metal>  (144) 
-0

>  <r_i_glide_rewards>  (144) 
-0.126488

>  <r_i_glide_evdw>  (144) 
-27.4106

>  <r_i_glide_ecoul>  (144) 
-4.90967

>  <r_i_glide_erotb>  (144) 
0.115

>  <r_i_glide_esite>  (144) 
-0.101909

>  <r_i_glide_emodel>  (144) 
-35.5979

>  <r_i_glide_energy>  (144) 
-32.3203

>  <r_i_glide_einternal>  (144) 
5.4909

>  <r_i_glide_intrahb_reward>  (144) 
-0

>  <i_i_glide_confnum>  (144) 
4

>  <i_i_glide_posenum>  (144) 
31

>  <r_i_glide_eff_state_penalty>  (144) 
0

>  <ligand_id>  (144) 
98

>  <original_smiles>  (144) 
CCC(=O)OC1C(O)C(C)(O)C23C4[S+]([O-])C5(C)C(=O)C(C)(C)C(C(O)C2(O)C(O)C1(C)C1(O)OCC3(O)C1O)C45C

>  <smiles>  (144) 
[H]OC1([H])C([H])(OC(=O)C([H])([H])C([H])([H])[H])C2(C([H])([H])[H])C([H])(O[H])C3(O[H])C([H])(O[H])C4([H])C(C([H])([H])[H])(C([H])([H])[H])C(=O)C5(C([H])([H])[H])S(=O)C([H])(C54C([H])([H])[H])C3(C1(O[H])C([H])([H])[H])C1(O[H])C([H])([H])OC2(O[H])C1([H])O[H]

$$$$
99:0:0
     RDKit          3D

114121  0  0  1  0  0  0  0  0999 V2000
    1.0608    1.0237    6.6312 C   0  0  0  0  0  0  0  0  0  0  0  0
   -0.0100    0.1629    5.9506 C   0  0  0  0  0  0  0  0  0  0  0  0
   -1.0147   -0.1618    6.6070 O   0  0  0  0  0  0  0  0  0  0  0  0
    0.1128   -0.3149    4.4657 C   0  0  1  0  0  0  0  0  0  0  0  0
   -1.0245   -1.1392    4.2270 O   0  0  0  0  0  0  0  0  0  0  0  0
   -0.0105    0.8251    3.3636 C   0  0  1  0  0  0  0  0  0  0  0  0
   -0.1930    2.1320    3.8976 O   0  0  0  0  0  0  0  0  0  0  0  0
    1.2783    0.7732    2.4626 C   0  0  1  0  0  0  0  0  0  0  0  0
    1.6384    2.0727    1.9920 O   0  0  0  0  0  0  0  0  0  0  0  0
    2.3688    0.0174    3.3142 C   0  0  2  0  0  0  0  0  0  0  0  0
    2.9729    1.2277    4.1506 C   0  0  0  0  0  0  0  0  0  0  0  0
    3.5507   -0.6965    2.5615 C   0  0  1  0  0  0  0  0  0  0  0  0
    4.0270    0.1781    1.5546 O   0  0  0  0  0  0  0  0  0  0  0  0
    4.8003   -1.1645    3.4128 C   0  0  0  0  0  0  0  0  0  0  0  0
    5.1093   -2.7230    3.6150 C   0  0  1  0  0  0  0  0  0  0  0  0
    5.0347   -3.3160    5.1752 C   0  0  1  0  0  0  0  0  0  0  0  0
    4.3031   -2.3954    6.1992 C   0  0  0  0  0  0  0  0  0  0  0  0
    3.0775   -1.7327    5.6629 C   0  0  0  0  0  0  0  0  0  0  0  0
    2.1833   -2.2353    4.8053 C   0  0  0  0  0  0  0  0  0  0  0  0
    1.9581   -3.8219    4.5795 C   0  0  2  0  0  0  0  0  0  0  0  0
    0.3847   -4.1131    4.7663 C   0  0  2  0  0  0  0  0  0  0  0  0
   -0.0813   -3.7521    6.2064 C   0  0  0  0  0  0  0  0  0  0  0  0
   -0.0324   -5.4559    4.7918 O   0  0  0  0  0  0  0  0  0  0  0  0
    2.4673   -4.6257    5.6351 O   0  0  0  0  0  0  0  0  0  0  0  0
    3.5551   -5.5772    5.4003 C   0  0  1  0  0  0  0  0  0  0  0  0
    3.3970   -6.8356    4.3722 C   0  0  2  0  0  0  0  0  0  0  0  0
    4.5410   -7.5362    3.5992 C   0  0  1  0  0  0  0  0  0  0  0  0
    4.5518   -9.0790    3.3395 C   0  0  1  0  0  0  0  0  0  0  0  0
    3.3731   -9.7969    2.6543 C   0  0  0  0  0  0  0  0  0  0  0  0
    2.4981  -10.3075    3.6456 O   0  0  0  0  0  0  0  0  0  0  0  0
    5.6423   -9.2335    2.4565 O   0  0  0  0  0  0  0  0  0  0  0  0
    6.0406   -8.1223    1.8743 C   0  0  0  0  0  0  0  0  0  0  0  0
    6.9805   -8.0304    1.1013 O   0  0  0  0  0  0  0  0  0  0  0  0
    5.2683   -6.9059    2.4059 C   0  0  1  0  0  0  0  0  0  0  0  0
    4.6025   -5.9846    1.3089 C   0  0  1  0  0  0  0  0  0  0  0  0
    3.7888   -6.8135    0.4998 O   0  0  0  0  0  0  0  0  0  0  0  0
    4.1360   -4.4185    1.4986 C   0  0  2  0  0  0  0  0  0  0  0  0
    3.9899   -3.9208   -0.0025 C   0  0  1  0  0  0  0  0  0  0  0  0
    3.3805   -2.6404   -0.1678 O   0  0  0  0  0  0  0  0  0  0  0  0
    5.2254   -3.9953   -0.6604 O   0  0  0  0  0  0  0  0  0  0  0  0
    6.2189   -3.0933   -0.2582 C   0  0  1  0  0  0  0  0  0  0  0  0
    7.5782   -3.8016   -0.3906 C   0  0  0  0  0  0  0  0  0  0  0  0
    6.2466   -1.9839   -1.1523 O   0  0  0  0  0  0  0  0  0  0  0  0
    5.9762   -2.5366    1.1625 C   0  0  0  0  0  0  0  0  0  0  0  0
    5.2661   -3.5013    2.1967 C   0  0  1  0  0  0  0  0  0  0  0  0
    6.3510   -4.3327    2.4277 O   0  0  0  0  0  0  0  0  0  0  0  0
    2.6533   -4.2878    2.1146 C   0  0  1  0  0  0  0  0  0  0  0  0
    1.9262   -5.2928    1.4790 O   0  0  0  0  0  0  0  0  0  0  0  0
    1.0604   -6.0888    2.2373 C   0  0  1  0  0  0  0  0  0  0  0  0
    0.3369   -6.9853    1.2337 C   0  0  0  0  0  0  0  0  0  0  0  0
    1.7835   -7.2388    3.5378 S   0  0  0  0  0  0  0  0  0  0  0  0
    0.7839   -7.8888    4.5227 O   0  0  0  0  0  0  0  0  0  0  0  0
    2.7100   -4.4280    3.5018 O   0  0  0  0  0  0  0  0  0  0  0  0
    4.9380   -4.8292    5.7041 C   0  0  0  0  0  0  0  0  0  0  0  0
    6.2820   -5.5443    5.4469 C   0  0  0  0  0  0  0  0  0  0  0  0
    5.0208   -4.8770    7.2765 C   0  0  0  0  0  0  0  0  0  0  0  0
    1.4251   -1.1236    3.9682 C   0  0  1  0  0  0  0  0  0  0  0  0
    0.9320   -1.8337    2.8397 O   0  0  0  0  0  0  0  0  0  0  0  0
    1.0136    2.0658    6.2399 H   0  0  0  0  0  0  0  0  0  0  0  0
    2.0423    0.6240    6.4348 H   0  0  0  0  0  0  0  0  0  0  0  0
    0.9118    1.0063    7.7281 H   0  0  0  0  0  0  0  0  0  0  0  0
   -0.8889   -1.5197    3.3755 H   0  0  0  0  0  0  0  0  0  0  0  0
   -0.8704    0.6922    2.6841 H   0  0  0  0  0  0  0  0  0  0  0  0
   -0.1565    2.7567    3.1992 H   0  0  0  0  0  0  0  0  0  0  0  0
    1.0471    0.2183    1.5391 H   0  0  0  0  0  0  0  0  0  0  0  0
    0.9511    2.4414    1.4661 H   0  0  0  0  0  0  0  0  0  0  0  0
    3.6345    0.9612    4.9757 H   0  0  0  0  0  0  0  0  0  0  0  0
    2.2202    1.9001    4.5505 H   0  0  0  0  0  0  0  0  0  0  0  0
    3.6732    1.7864    3.5118 H   0  0  0  0  0  0  0  0  0  0  0  0
    3.1943   -1.5470    1.9966 H   0  0  0  0  0  0  0  0  0  0  0  0
    3.2906    0.5271    1.0863 H   0  0  0  0  0  0  0  0  0  0  0  0
    5.6765   -0.7028    2.9488 H   0  0  0  0  0  0  0  0  0  0  0  0
    4.8970   -0.6290    4.3532 H   0  0  0  0  0  0  0  0  0  0  0  0
    6.1700   -2.5116    3.7074 H   0  0  0  0  0  0  0  0  0  0  0  0
    6.0531   -3.1036    5.5261 H   0  0  0  0  0  0  0  0  0  0  0  0
    4.0831   -2.7111    7.2050 H   0  0  0  0  0  0  0  0  0  0  0  0
    4.9796   -1.5751    6.3796 H   0  0  0  0  0  0  0  0  0  0  0  0
    3.1472   -0.6778    5.8155 H   0  0  0  0  0  0  0  0  0  0  0  0
   -0.1927   -3.5755    4.0265 H   0  0  0  0  0  0  0  0  0  0  0  0
    0.1260   -2.7370    6.5310 H   0  0  0  0  0  0  0  0  0  0  0  0
    0.3515   -4.4422    6.9418 H   0  0  0  0  0  0  0  0  0  0  0  0
   -1.1606   -3.9176    6.2859 H   0  0  0  0  0  0  0  0  0  0  0  0
    0.6066   -5.9125    5.2947 H   0  0  0  0  0  0  0  0  0  0  0  0
    3.3525   -6.1227    6.3201 H   0  0  0  0  0  0  0  0  0  0  0  0
    3.2924   -7.6111    5.1278 H   0  0  0  0  0  0  0  0  0  0  0  0
    5.3301   -7.5246    4.3386 H   0  0  0  0  0  0  0  0  0  0  0  0
    4.8098   -9.5994    4.2627 H   0  0  0  0  0  0  0  0  0  0  0  0
    2.8718   -9.1901    1.9023 H   0  0  0  0  0  0  0  0  0  0  0  0
    3.7575  -10.6633    2.1166 H   0  0  0  0  0  0  0  0  0  0  0  0
    2.0847   -9.6021    4.1059 H   0  0  0  0  0  0  0  0  0  0  0  0
    6.1577   -6.4639    2.7985 H   0  0  0  0  0  0  0  0  0  0  0  0
    5.4565   -5.8992    0.6434 H   0  0  0  0  0  0  0  0  0  0  0  0
    4.3042   -7.5381    0.2080 H   0  0  0  0  0  0  0  0  0  0  0  0
    3.3230   -4.6010   -0.5198 H   0  0  0  0  0  0  0  0  0  0  0  0
    3.0252   -2.5976   -1.0349 H   0  0  0  0  0  0  0  0  0  0  0  0
    7.7727   -3.9288   -1.4496 H   0  0  0  0  0  0  0  0  0  0  0  0
    7.5701   -4.7709    0.1370 H   0  0  0  0  0  0  0  0  0  0  0  0
    8.4019   -3.1811   -0.0395 H   0  0  0  0  0  0  0  0  0  0  0  0
    5.4073   -1.5661   -1.0970 H   0  0  0  0  0  0  0  0  0  0  0  0
    6.9224   -2.1415    1.5425 H   0  0  0  0  0  0  0  0  0  0  0  0
    5.3617   -1.6642    0.9920 H   0  0  0  0  0  0  0  0  0  0  0  0
    6.6488   -4.6341    1.6059 H   0  0  0  0  0  0  0  0  0  0  0  0
    2.1912   -3.3762    1.8233 H   0  0  0  0  0  0  0  0  0  0  0  0
    0.3214   -5.4224    2.6358 H   0  0  0  0  0  0  0  0  0  0  0  0
   -0.0864   -6.3648    0.4427 H   0  0  0  0  0  0  0  0  0  0  0  0
   -0.4847   -7.5175    1.7070 H   0  0  0  0  0  0  0  0  0  0  0  0
    1.0036   -7.7183    0.7680 H   0  0  0  0  0  0  0  0  0  0  0  0
    6.3103   -6.5522    5.8639 H   0  0  0  0  0  0  0  0  0  0  0  0
    7.0967   -5.0092    5.9372 H   0  0  0  0  0  0  0  0  0  0  0  0
    6.5779   -5.5716    4.4232 H   0  0  0  0  0  0  0  0  0  0  0  0
    5.2568   -5.8723    7.6538 H   0  0  0  0  0  0  0  0  0  0  0  0
    4.0838   -4.6368    7.7866 H   0  0  0  0  0  0  0  0  0  0  0  0
    5.7939   -4.2111    7.6688 H   0  0  0  0  0  0  0  0  0  0  0  0
    1.0517   -1.3074    2.0731 H   0  0  0  0  0  0  0  0  0  0  0  0
  1  2  1  0
  1 59  1  0
  1 60  1  0
  1 61  1  0
  2  3  2  0
  2  4  1  0
  4 57  1  0
  4  5  1  6
  4  6  1  0
  5 62  1  0
  6  7  1  0
  6  8  1  0
  6 63  1  6
  7 64  1  0
  8  9  1  0
  8 10  1  0
  8 65  1  6
  9 66  1  0
 10 57  1  0
 10 11  1  1
 10 12  1  0
 11 67  1  0
 11 68  1  0
 11 69  1  0
 12 13  1  0
 12 14  1  0
 12 70  1  6
 13 71  1  0
 14 15  1  0
 14 72  1  0
 14 73  1  0
 15 45  1  0
 15 16  1  0
 15 74  1  1
 16 54  1  0
 16 17  1  0
 16 75  1  1
 17 18  1  0
 17 76  1  0
 17 77  1  0
 18 19  2  3
 18 78  1  0
 19 20  1  0
 19 57  1  0
 20 53  1  6
 20 21  1  0
 20 24  1  0
 21 22  1  0
 21 23  1  0
 21 79  1  6
 22 80  1  0
 22 81  1  0
 22 82  1  0
 23 83  1  0
 24 25  1  0
 25 26  1  0
 25 54  1  0
 25 84  1  1
 26 51  1  0
 26 27  1  0
 26 85  1  1
 27 34  1  0
 27 28  1  0
 27 86  1  1
 28 29  1  0
 28 31  1  0
 28 87  1  1
 29 30  1  0
 29 88  1  0
 29 89  1  0
 30 90  1  0
 31 32  1  0
 32 33  2  0
 32 34  1  0
 34 35  1  0
 34 91  1  1
 35 36  1  0
 35 37  1  0
 35 92  1  6
 36 93  1  0
 37 45  1  1
 37 38  1  0
 37 47  1  0
 38 39  1  0
 38 40  1  0
 38 94  1  6
 39 95  1  0
 40 41  1  0
 41 42  1  0
 41 43  1  6
 41 44  1  0
 42 96  1  0
 42 97  1  0
 42 98  1  0
 43 99  1  0
 44 45  1  0
 44100  1  0
 44101  1  0
 45 46  1  1
 46102  1  0
 47 48  1  0
 47 53  1  0
 47103  1  1
 48 49  1  0
 49 50  1  0
 51 49  1  1
 49104  1  1
 50105  1  0
 50106  1  0
 50107  1  0
 51 52  2  0
 54 55  1  0
 54 56  1  0
 55108  1  0
 55109  1  0
 55110  1  0
 56111  1  0
 56112  1  0
 56113  1  0
 57 58  1  6
 58114  1  0
M  END
>  <i_m_ct_stereo_status>  (145) 
1

>  <s_m_source_file>  (145) 
/var/tmp/pbs.5075288.sched01/tmpd529dnjr/198klec4xt1.sdf

>  <i_m_source_file_index>  (145) 
55

>  <i_lp_mmshare_version>  (145) 
48012

>  <i_f3d_flags>  (145) 
0

>  <s_epik_input>  (145) 
W09IXVtDQEhdMU9bQ0BAXShbQ0gzXSkoW09IXSlbQ0gyXVtDQEBdKFtDQEBdMTIzKShbT0hdKVtDQEBIXTRbQ0BIXTVbQ0gyXS9bQ0hdPUMoW0NAXTYoW09IXSlbQ0BAXShbQ0gzXSkoW0NAQEhdKFtPSF0pW0NIMl00KVtDQEhdKFtPSF0pW0NASF0oW09IXSlbQ0BdNihbT0hdKUMoPU8pW0NIM10pXFtDQF03KFtDQEhdKFtDSDNdKVtPSF0pT1tDQEhdKEM1KFtDSDNdKVtDSDNdKVtDQEBIXShbUytdKFtPLV0pW0NASF0oW0NIM10pT1tDQEhdM083KVtDQEBIXThbQ0BIXShbQ0BIXTJbT0hdKUMoPU8pT1tDQEBIXThbQ0gyXVtPSF0=

>  <s_epik_cmdline>  (145) 
J2VwaWtfcHl0aG9uJywgJy1waHQnLCAnMi4wJywgJy1waCcsICc3LjAnLCAnLXRuJywgJzgnLCAnLW1hJywgJzIwMCcsICctaW1hZScsICc8aW5maWxlLm1hZT4nLCAnLW9tYWUnLCAnPG91dGZpbGUubWFlPic=

>  <r_lp_tautomer_probability>  (145) 
1

>  <r_epik_Ionization_Penalty>  (145) 
4.36256e-06

>  <r_epik_Ionization_Penalty_Charging>  (145) 
0

>  <r_epik_Ionization_Penalty_Neutral>  (145) 
4.36256e-06

>  <r_epik_State_Penalty>  (145) 
-0

>  <r_epik_Charging_Adjusted_Penalty>  (145) 
0

>  <i_epik_Tot_Q>  (145) 
0

>  <i_epik_Tot_abs_Q>  (145) 
2

>  <s_epik_Chemistry_Notes>  (145) 
This compound has an ester and may undergo hydrolysis at high or low pH. This compound contains an acetal/aminal-like group ( X-CH(R)-Y where X, Y are N, S, or O) that may be acid/base labile, releasing an aldehyde.

>  <s_lp_Force_Field>  (145) 
OPLS3e

>  <r_lp_Energy>  (145) 
350.257

>  <b_lp_Chiralities_Consistent>  (145) 
1

>  <s_lp_Variant>  (145) 
99:0-1

>  <s_i_glide_gridfile>  (145) 
pfpi4k_grid

>  <i_i_glide_lignum>  (145) 
55

>  <i_i_glide_rotatable_bonds>  (145) 
14

>  <r_i_docking_score>  (145) 
-3.83026

>  <r_i_glide_ligand_efficiency>  (145) 
-0.066039

>  <r_i_glide_ligand_efficiency_sa>  (145) 
-0.255629

>  <r_i_glide_ligand_efficiency_ln>  (145) 
-0.756902

>  <r_i_glide_gscore>  (145) 
-3.83026

>  <r_i_glide_lipo>  (145) 
-0.503006

>  <r_i_glide_hbond>  (145) 
-0.157911

>  <r_i_glide_metal>  (145) 
-0

>  <r_i_glide_rewards>  (145) 
-0.186525

>  <r_i_glide_evdw>  (145) 
-27.2752

>  <r_i_glide_ecoul>  (145) 
-12.0076

>  <r_i_glide_erotb>  (145) 
0.0608294

>  <r_i_glide_esite>  (145) 
-0.0344447

>  <r_i_glide_emodel>  (145) 
-44.3136

>  <r_i_glide_energy>  (145) 
-39.2828

>  <r_i_glide_einternal>  (145) 
4.30949

>  <r_i_glide_intrahb_reward>  (145) 
-0

>  <i_i_glide_confnum>  (145) 
2

>  <i_i_glide_posenum>  (145) 
13

>  <r_i_glide_eff_state_penalty>  (145) 
0

>  <ligand_id>  (145) 
99

>  <original_smiles>  (145) 
CC(=O)C1(O)C(O)C(O)C2(C)C(O)CC3C4CC=C(C5(C(C)O)OC(C6C7C(CO)OC(=O)C7C(O)C7(C(O)OC(C)(O)CC37O)C(OC(C)[S+]6[O-])O5)C4(C)C)C12O

>  <smiles>  (145) 
[H]OC([H])([H])C1([H])OC(=O)C2([H])C([H])(O[H])C34C5([H])OC6(C([H])(O[H])C([H])([H])[H])OC([H])(C([H])(S(=O)C([H])(C([H])([H])[H])O5)C12[H])C(C([H])([H])[H])(C([H])([H])[H])C1([H])C([H])([H])C([H])=C6C2(O[H])C(O[H])(C(=O)C([H])([H])[H])C([H])(O[H])C([H])(O[H])C2(C([H])([H])[H])C([H])(O[H])C([H])([H])C1([H])C3(O[H])C([H])([H])C(O[H])(C([H])([H])[H])OC4([H])O[H]

$$$$
99:0:1
     RDKit          3D

114121  0  0  1  0  0  0  0  0999 V2000
    1.1669    1.1234    6.8313 C   0  0  0  0  0  0  0  0  0  0  0  0
   -0.0079    0.2608    6.3096 C   0  0  0  0  0  0  0  0  0  0  0  0
   -0.9999    0.1518    7.0100 O   0  0  0  0  0  0  0  0  0  0  0  0
    0.0354   -0.4836    4.9068 C   0  0  1  0  0  0  0  0  0  0  0  0
   -1.2145   -1.1937    4.8193 O   0  0  0  0  0  0  0  0  0  0  0  0
    0.0255    0.4795    3.6428 C   0  0  1  0  0  0  0  0  0  0  0  0
   -0.0070    1.8709    3.9560 O   0  0  0  0  0  0  0  0  0  0  0  0
    1.2882    0.1371    2.7652 C   0  0  1  0  0  0  0  0  0  0  0  0
    1.7602    1.2691    2.0411 O   0  0  0  0  0  0  0  0  0  0  0  0
    2.3061   -0.5677    3.7422 C   0  0  2  0  0  0  0  0  0  0  0  0
    3.0479    0.6976    4.3577 C   0  0  0  0  0  0  0  0  0  0  0  0
    3.4058   -1.5025    3.1109 C   0  0  1  0  0  0  0  0  0  0  0  0
    3.9637   -0.8067    2.0046 O   0  0  0  0  0  0  0  0  0  0  0  0
    4.6131   -1.9597    4.0348 C   0  0  0  0  0  0  0  0  0  0  0  0
    4.7820   -3.4810    4.5069 C   0  0  1  0  0  0  0  0  0  0  0  0
    4.6551   -3.7971    6.1424 C   0  0  1  0  0  0  0  0  0  0  0  0
    4.0281   -2.6344    6.9854 C   0  0  0  0  0  0  0  0  0  0  0  0
    2.8641   -1.9612    6.3339 C   0  0  0  0  0  0  0  0  0  0  0  0
    1.9306   -2.4952    5.5867 C   0  0  0  0  0  0  0  0  0  0  0  0
    1.5303   -4.0663    5.6297 C   0  0  2  0  0  0  0  0  0  0  0  0
   -0.0635   -4.1585    5.8557 C   0  0  2  0  0  0  0  0  0  0  0  0
   -0.4766   -3.4432    7.1727 C   0  0  0  0  0  0  0  0  0  0  0  0
   -0.5953   -5.4070    6.1807 O   0  0  0  0  0  0  0  0  0  0  0  0
    1.9694   -4.7292    6.8127 O   0  0  0  0  0  0  0  0  0  0  0  0
    2.9476   -5.8220    6.7448 C   0  0  1  0  0  0  0  0  0  0  0  0
    2.6515   -7.2201    5.9442 C   0  0  2  0  0  0  0  0  0  0  0  0
    3.7032   -8.1545    5.2902 C   0  0  1  0  0  0  0  0  0  0  0  0
    3.5601   -9.7313    5.3006 C   0  0  1  0  0  0  0  0  0  0  0  0
    2.3053  -10.4305    4.7032 C   0  0  0  0  0  0  0  0  0  0  0  0
    2.4058  -11.8298    4.8740 O   0  0  0  0  0  0  0  0  0  0  0  0
    4.6378  -10.1037    4.4504 O   0  0  0  0  0  0  0  0  0  0  0  0
    5.0705   -9.1583    3.6321 C   0  0  0  0  0  0  0  0  0  0  0  0
    5.8878   -9.3014    2.7218 O   0  0  0  0  0  0  0  0  0  0  0  0
    4.4700   -7.7881    4.0034 C   0  0  1  0  0  0  0  0  0  0  0  0
    3.8764   -7.0107    2.7785 C   0  0  1  0  0  0  0  0  0  0  0  0
    2.9487   -7.8806    2.1382 O   0  0  0  0  0  0  0  0  0  0  0  0
    3.5944   -5.4000    2.7115 C   0  0  2  0  0  0  0  0  0  0  0  0
    3.4583   -5.1534    1.1477 C   0  0  1  0  0  0  0  0  0  0  0  0
    2.9792   -3.8678    0.7617 O   0  0  0  0  0  0  0  0  0  0  0  0
    4.6377   -5.4772    0.4946 O   0  0  0  0  0  0  0  0  0  0  0  0
    5.7417   -4.6528    0.7403 C   0  0  1  0  0  0  0  0  0  0  0  0
    6.9826   -5.5644    0.7300 C   0  0  0  0  0  0  0  0  0  0  0  0
    5.8962   -3.7374   -0.3345 O   0  0  0  0  0  0  0  0  0  0  0  0
    5.5994   -3.8215    2.0352 C   0  0  0  0  0  0  0  0  0  0  0  0
    4.8545   -4.5087    3.2448 C   0  0  1  0  0  0  0  0  0  0  0  0
    5.9348   -5.3347    3.6195 O   0  0  0  0  0  0  0  0  0  0  0  0
    2.1360   -5.0078    3.2951 C   0  0  1  0  0  0  0  0  0  0  0  0
    1.2839   -6.0107    2.8384 O   0  0  0  0  0  0  0  0  0  0  0  0
    0.3589   -6.5861    3.7247 C   0  0  1  0  0  0  0  0  0  0  0  0
   -0.4765   -7.5586    2.8872 C   0  0  0  0  0  0  0  0  0  0  0  0
    0.9780   -7.5961    5.1865 S   0  0  0  0  0  0  0  0  0  0  0  0
   -0.0499   -7.9489    6.2622 O   0  0  0  0  0  0  0  0  0  0  0  0
    2.2027   -4.9232    4.6798 O   0  0  0  0  0  0  0  0  0  0  0  0
    4.4078   -5.1858    6.9165 C   0  0  0  0  0  0  0  0  0  0  0  0
    5.6652   -6.0738    6.7838 C   0  0  0  0  0  0  0  0  0  0  0  0
    4.5156   -4.9727    8.4730 C   0  0  0  0  0  0  0  0  0  0  0  0
    1.2444   -1.4845    4.5537 C   0  0  1  0  0  0  0  0  0  0  0  0
    0.6289   -2.3167    3.5728 O   0  0  0  0  0  0  0  0  0  0  0  0
    1.2028    2.0826    6.2678 H   0  0  0  0  0  0  0  0  0  0  0  0
    2.1141    0.6021    6.7125 H   0  0  0  0  0  0  0  0  0  0  0  0
    1.0320    1.3066    7.9006 H   0  0  0  0  0  0  0  0  0  0  0  0
   -1.1970   -1.6525    3.9978 H   0  0  0  0  0  0  0  0  0  0  0  0
   -0.8518    0.3345    2.9964 H   0  0  0  0  0  0  0  0  0  0  0  0
    0.0569    2.3677    3.1592 H   0  0  0  0  0  0  0  0  0  0  0  0
    0.9992   -0.5479    1.9588 H   0  0  0  0  0  0  0  0  0  0  0  0
    1.1376    1.4952    1.3731 H   0  0  0  0  0  0  0  0  0  0  0  0
    3.7007    0.4973    5.2084 H   0  0  0  0  0  0  0  0  0  0  0  0
    2.3842    1.4931    4.6345 H   0  0  0  0  0  0  0  0  0  0  0  0
    3.7892    1.0659    3.6312 H   0  0  0  0  0  0  0  0  0  0  0  0
    2.9491   -2.3894    2.6891 H   0  0  0  0  0  0  0  0  0  0  0  0
    3.2690   -0.5366    1.4287 H   0  0  0  0  0  0  0  0  0  0  0  0
    5.5210   -1.6841    3.4925 H   0  0  0  0  0  0  0  0  0  0  0  0
    4.7793   -1.2842    4.8658 H   0  0  0  0  0  0  0  0  0  0  0  0
    5.8570   -3.3283    4.5960 H   0  0  0  0  0  0  0  0  0  0  0  0
    5.6942   -3.6384    6.4633 H   0  0  0  0  0  0  0  0  0  0  0  0
    3.8078   -2.7588    8.0339 H   0  0  0  0  0  0  0  0  0  0  0  0
    4.7936   -1.8802    7.0204 H   0  0  0  0  0  0  0  0  0  0  0  0
    3.0363   -0.9001    6.3311 H   0  0  0  0  0  0  0  0  0  0  0  0
   -0.5857   -3.7556    4.9908 H   0  0  0  0  0  0  0  0  0  0  0  0
   -0.1739   -2.4056    7.2717 H   0  0  0  0  0  0  0  0  0  0  0  0
   -0.0947   -3.9812    8.0484 H   0  0  0  0  0  0  0  0  0  0  0  0
   -1.5629   -3.4868    7.2709 H   0  0  0  0  0  0  0  0  0  0  0  0
    0.0179   -5.8063    6.7645 H   0  0  0  0  0  0  0  0  0  0  0  0
    2.7105   -6.1785    7.7485 H   0  0  0  0  0  0  0  0  0  0  0  0
    2.4701   -7.8380    6.8224 H   0  0  0  0  0  0  0  0  0  0  0  0
    4.4964   -8.1016    6.0219 H   0  0  0  0  0  0  0  0  0  0  0  0
    3.7231  -10.0820    6.3169 H   0  0  0  0  0  0  0  0  0  0  0  0
    1.4007  -10.2209    5.2732 H   0  0  0  0  0  0  0  0  0  0  0  0
    2.1514  -10.1522    3.6589 H   0  0  0  0  0  0  0  0  0  0  0  0
    2.2242  -12.0192    5.7950 H   0  0  0  0  0  0  0  0  0  0  0  0
    5.4047   -7.3666    4.2868 H   0  0  0  0  0  0  0  0  0  0  0  0
    4.7353   -7.1191    2.1072 H   0  0  0  0  0  0  0  0  0  0  0  0
    3.3623   -8.7085    1.9686 H   0  0  0  0  0  0  0  0  0  0  0  0
    2.7146   -5.8368    0.7512 H   0  0  0  0  0  0  0  0  0  0  0  0
    2.8911   -3.8779   -0.1826 H   0  0  0  0  0  0  0  0  0  0  0  0
    7.0528   -6.0613   -0.2276 H   0  0  0  0  0  0  0  0  0  0  0  0
    6.9059   -6.3500    1.4837 H   0  0  0  0  0  0  0  0  0  0  0  0
    7.8923   -4.9847    0.8912 H   0  0  0  0  0  0  0  0  0  0  0  0
    5.1468   -3.1654   -0.3256 H   0  0  0  0  0  0  0  0  0  0  0  0
    6.5922   -3.4575    2.3164 H   0  0  0  0  0  0  0  0  0  0  0  0
    5.0584   -2.9335    1.7368 H   0  0  0  0  0  0  0  0  0  0  0  0
    5.6722   -5.8060    4.3850 H   0  0  0  0  0  0  0  0  0  0  0  0
    1.7641   -4.1157    2.8600 H   0  0  0  0  0  0  0  0  0  0  0  0
   -0.3144   -5.7904    4.0048 H   0  0  0  0  0  0  0  0  0  0  0  0
   -0.8483   -7.0455    2.0027 H   0  0  0  0  0  0  0  0  0  0  0  0
   -1.3379   -7.9207    3.4441 H   0  0  0  0  0  0  0  0  0  0  0  0
    0.1070   -8.4231    2.5536 H   0  0  0  0  0  0  0  0  0  0  0  0
    5.5956   -6.9887    7.3745 H   0  0  0  0  0  0  0  0  0  0  0  0
    6.5386   -5.5513    7.1768 H   0  0  0  0  0  0  0  0  0  0  0  0
    5.9420   -6.3222    5.7826 H   0  0  0  0  0  0  0  0  0  0  0  0
    4.6539   -5.9095    9.0132 H   0  0  0  0  0  0  0  0  0  0  0  0
    3.6200   -4.5490    8.9336 H   0  0  0  0  0  0  0  0  0  0  0  0
    5.3606   -4.3370    8.7443 H   0  0  0  0  0  0  0  0  0  0  0  0
    0.5727   -1.8377    2.7644 H   0  0  0  0  0  0  0  0  0  0  0  0
  1  2  1  0
  1 59  1  0
  1 60  1  0
  1 61  1  0
  2  3  2  0
  2  4  1  0
  4 57  1  0
  4  5  1  6
  4  6  1  0
  5 62  1  0
  6  7  1  0
  6  8  1  0
  6 63  1  6
  7 64  1  0
  8  9  1  0
  8 10  1  0
  8 65  1  6
  9 66  1  0
 10 57  1  0
 10 11  1  1
 10 12  1  0
 11 67  1  0
 11 68  1  0
 11 69  1  0
 12 13  1  0
 12 14  1  0
 12 70  1  6
 13 71  1  0
 14 15  1  0
 14 72  1  0
 14 73  1  0
 15 45  1  0
 15 16  1  0
 15 74  1  1
 16 54  1  0
 16 17  1  0
 16 75  1  1
 17 18  1  0
 17 76  1  0
 17 77  1  0
 18 19  2  3
 18 78  1  0
 19 20  1  0
 19 57  1  0
 20 53  1  6
 20 21  1  0
 20 24  1  0
 21 22  1  0
 21 23  1  0
 21 79  1  6
 22 80  1  0
 22 81  1  0
 22 82  1  0
 23 83  1  0
 24 25  1  0
 25 26  1  0
 25 54  1  0
 25 84  1  1
 26 51  1  0
 26 27  1  0
 26 85  1  1
 27 34  1  0
 27 28  1  0
 27 86  1  1
 28 29  1  0
 28 31  1  0
 28 87  1  1
 29 30  1  0
 29 88  1  0
 29 89  1  0
 30 90  1  0
 31 32  1  0
 32 33  2  0
 32 34  1  0
 34 35  1  0
 34 91  1  1
 35 36  1  0
 35 37  1  0
 35 92  1  6
 36 93  1  0
 37 45  1  1
 37 38  1  0
 37 47  1  0
 38 39  1  0
 38 40  1  0
 38 94  1  6
 39 95  1  0
 40 41  1  0
 41 42  1  0
 41 43  1  6
 41 44  1  0
 42 96  1  0
 42 97  1  0
 42 98  1  0
 43 99  1  0
 44 45  1  0
 44100  1  0
 44101  1  0
 45 46  1  1
 46102  1  0
 47 48  1  0
 47 53  1  0
 47103  1  6
 48 49  1  0
 49 50  1  0
 51 49  1  1
 49104  1  1
 50105  1  0
 50106  1  0
 50107  1  0
 51 52  2  0
 54 55  1  0
 54 56  1  0
 55108  1  0
 55109  1  0
 55110  1  0
 56111  1  0
 56112  1  0
 56113  1  0
 57 58  1  6
 58114  1  0
M  END
>  <i_m_ct_stereo_status>  (146) 
1

>  <s_m_source_file>  (146) 
/var/tmp/pbs.5075288.sched01/tmpd529dnjr/198klec4xt1.sdf

>  <i_m_source_file_index>  (146) 
55

>  <i_lp_mmshare_version>  (146) 
48012

>  <i_f3d_flags>  (146) 
0

>  <s_epik_input>  (146) 
W09IXVtDQEhdMU9bQ0BAXShbQ0gzXSkoW09IXSlbQ0gyXVtDQEBdKFtDQEBdMTIzKShbT0hdKVtDQEBIXTRbQ0BIXTVbQ0gyXS9bQ0hdPUMoW0NAXTYoW09IXSlbQ0BAXShbQ0gzXSkoW0NAQEhdKFtPSF0pW0NIMl00KVtDQEhdKFtPSF0pW0NASF0oW09IXSlbQ0BdNihbT0hdKUMoPU8pW0NIM10pXFtDQF03KFtDQEhdKFtDSDNdKVtPSF0pT1tDQEhdKEM1KFtDSDNdKVtDSDNdKVtDQEBIXShbUytdKFtPLV0pW0NASF0oW0NIM10pT1tDQEhdM083KVtDQEBIXThbQ0BIXShbQ0BIXTJbT0hdKUMoPU8pT1tDQEBIXThbQ0gyXVtPSF0=

>  <s_epik_cmdline>  (146) 
J2VwaWtfcHl0aG9uJywgJy1waHQnLCAnMi4wJywgJy1waCcsICc3LjAnLCAnLXRuJywgJzgnLCAnLW1hJywgJzIwMCcsICctaW1hZScsICc8aW5maWxlLm1hZT4nLCAnLW9tYWUnLCAnPG91dGZpbGUubWFlPic=

>  <r_lp_tautomer_probability>  (146) 
1

>  <r_epik_Ionization_Penalty>  (146) 
4.36256e-06

>  <r_epik_Ionization_Penalty_Charging>  (146) 
0

>  <r_epik_Ionization_Penalty_Neutral>  (146) 
4.36256e-06

>  <r_epik_State_Penalty>  (146) 
-0

>  <r_epik_Charging_Adjusted_Penalty>  (146) 
0

>  <i_epik_Tot_Q>  (146) 
0

>  <i_epik_Tot_abs_Q>  (146) 
2

>  <s_epik_Chemistry_Notes>  (146) 
This compound has an ester and may undergo hydrolysis at high or low pH. This compound contains an acetal/aminal-like group ( X-CH(R)-Y where X, Y are N, S, or O) that may be acid/base labile, releasing an aldehyde.

>  <s_lp_Force_Field>  (146) 
OPLS3e

>  <r_lp_Energy>  (146) 
350.257

>  <b_lp_Chiralities_Consistent>  (146) 
1

>  <s_lp_Variant>  (146) 
99:0-1

>  <s_i_glide_gridfile>  (146) 
pfpi4k_grid

>  <i_i_glide_lignum>  (146) 
55

>  <i_i_glide_rotatable_bonds>  (146) 
14

>  <r_i_docking_score>  (146) 
-3.73969

>  <r_i_glide_ligand_efficiency>  (146) 
-0.0644774

>  <r_i_glide_ligand_efficiency_sa>  (146) 
-0.249584

>  <r_i_glide_ligand_efficiency_ln>  (146) 
-0.739004

>  <r_i_glide_gscore>  (146) 
-3.73969

>  <r_i_glide_lipo>  (146) 
-0.183358

>  <r_i_glide_hbond>  (146) 
-0.119706

>  <r_i_glide_metal>  (146) 
-0

>  <r_i_glide_rewards>  (146) 
-0.114381

>  <r_i_glide_evdw>  (146) 
-32.055

>  <r_i_glide_ecoul>  (146) 
-11.6359

>  <r_i_glide_erotb>  (146) 
0.0608294

>  <r_i_glide_esite>  (146) 
-0.03493

>  <r_i_glide_emodel>  (146) 
-49.5463

>  <r_i_glide_energy>  (146) 
-43.691

>  <r_i_glide_einternal>  (146) 
6.22612

>  <r_i_glide_intrahb_reward>  (146) 
-0

>  <i_i_glide_confnum>  (146) 
4

>  <i_i_glide_posenum>  (146) 
1

>  <r_i_glide_eff_state_penalty>  (146) 
0

>  <ligand_id>  (146) 
99

>  <original_smiles>  (146) 
CC(=O)C1(O)C(O)C(O)C2(C)C(O)CC3C4CC=C(C5(C(C)O)OC(C6C7C(CO)OC(=O)C7C(O)C7(C(O)OC(C)(O)CC37O)C(OC(C)[S+]6[O-])O5)C4(C)C)C12O

>  <smiles>  (146) 
[H]OC([H])([H])C1([H])OC(=O)C2([H])C([H])(O[H])C34C5([H])OC6(C([H])(O[H])C([H])([H])[H])OC([H])(C([H])(S(=O)C([H])(C([H])([H])[H])O5)C12[H])C(C([H])([H])[H])(C([H])([H])[H])C1([H])C([H])([H])C([H])=C6C2(O[H])C(O[H])(C(=O)C([H])([H])[H])C([H])(O[H])C([H])(O[H])C2(C([H])([H])[H])C([H])(O[H])C([H])([H])C1([H])C3(O[H])C([H])([H])C(O[H])(C([H])([H])[H])OC4([H])O[H]

$$$$
99:0:2
     RDKit          3D

114121  0  0  1  0  0  0  0  0999 V2000
   -1.4212    1.2249    6.3578 C   0  0  0  0  0  0  0  0  0  0  0  0
   -0.1005    0.6090    5.9274 C   0  0  0  0  0  0  0  0  0  0  0  0
    0.8594    0.6800    6.6861 O   0  0  0  0  0  0  0  0  0  0  0  0
   -0.0703   -0.1891    4.5834 C   0  0  1  0  0  0  0  0  0  0  0  0
   -1.3182   -0.8628    4.4882 O   0  0  0  0  0  0  0  0  0  0  0  0
   -0.0457    0.7592    3.3099 C   0  0  1  0  0  0  0  0  0  0  0  0
   -0.1106    2.1458    3.6132 O   0  0  0  0  0  0  0  0  0  0  0  0
    1.2606    0.4424    2.5160 C   0  0  1  0  0  0  0  0  0  0  0  0
    1.7744    1.5838    1.8479 O   0  0  0  0  0  0  0  0  0  0  0  0
    2.2313   -0.2534    3.5441 C   0  0  2  0  0  0  0  0  0  0  0  0
    2.8934    0.9710    4.2857 C   0  0  0  0  0  0  0  0  0  0  0  0
    3.3888   -1.1515    2.9527 C   0  0  1  0  0  0  0  0  0  0  0  0
    3.9831   -0.4446    1.8821 O   0  0  0  0  0  0  0  0  0  0  0  0
    4.5598   -1.6156    3.9112 C   0  0  0  0  0  0  0  0  0  0  0  0
    4.7204   -3.1258    4.3914 C   0  0  1  0  0  0  0  0  0  0  0  0
    4.5169   -3.4386    6.0137 C   0  0  1  0  0  0  0  0  0  0  0  0
    3.8695   -2.2644    6.8222 C   0  0  0  0  0  0  0  0  0  0  0  0
    2.6970   -1.6346    6.1644 C   0  0  0  0  0  0  0  0  0  0  0  0
    1.7961   -2.1787    5.3494 C   0  0  0  0  0  0  0  0  0  0  0  0
    1.4718   -3.7505    5.3840 C   0  0  2  0  0  0  0  0  0  0  0  0
   -0.0956   -3.8341    5.5324 C   0  0  2  0  0  0  0  0  0  0  0  0
   -0.6439   -3.0113    6.7230 C   0  0  0  0  0  0  0  0  0  0  0  0
   -0.5996   -5.0435    6.0105 O   0  0  0  0  0  0  0  0  0  0  0  0
    1.8593   -4.3751    6.5833 O   0  0  0  0  0  0  0  0  0  0  0  0
    2.8296   -5.4915    6.5564 C   0  0  1  0  0  0  0  0  0  0  0  0
    2.5799   -6.9031    5.7492 C   0  0  2  0  0  0  0  0  0  0  0  0
    3.6752   -7.8374    5.1251 C   0  0  1  0  0  0  0  0  0  0  0  0
    3.5284   -9.3909    5.1425 C   0  0  1  0  0  0  0  0  0  0  0  0
    2.3271  -10.1230    4.4994 C   0  0  0  0  0  0  0  0  0  0  0  0
    2.4146  -11.5010    4.7290 O   0  0  0  0  0  0  0  0  0  0  0  0
    4.6478   -9.7539    4.3400 O   0  0  0  0  0  0  0  0  0  0  0  0
    5.1051   -8.8150    3.5220 C   0  0  0  0  0  0  0  0  0  0  0  0
    5.9629   -8.9316    2.6453 O   0  0  0  0  0  0  0  0  0  0  0  0
    4.4795   -7.4910    3.8735 C   0  0  1  0  0  0  0  0  0  0  0  0
    3.9155   -6.7018    2.6359 C   0  0  1  0  0  0  0  0  0  0  0  0
    3.0086   -7.5543    1.9472 O   0  0  0  0  0  0  0  0  0  0  0  0
    3.6338   -5.0848    2.5598 C   0  0  2  0  0  0  0  0  0  0  0  0
    3.5509   -4.8275    0.9755 C   0  0  1  0  0  0  0  0  0  0  0  0
    3.0653   -3.5654    0.5672 O   0  0  0  0  0  0  0  0  0  0  0  0
    4.7762   -5.1547    0.3761 O   0  0  0  0  0  0  0  0  0  0  0  0
    5.8471   -4.3015    0.6528 C   0  0  1  0  0  0  0  0  0  0  0  0
    7.0931   -5.2055    0.7103 C   0  0  0  0  0  0  0  0  0  0  0  0
    6.0361   -3.3974   -0.4122 O   0  0  0  0  0  0  0  0  0  0  0  0
    5.6220   -3.4768    1.9620 C   0  0  0  0  0  0  0  0  0  0  0  0
    4.8470   -4.1630    3.1440 C   0  0  1  0  0  0  0  0  0  0  0  0
    5.8947   -4.9934    3.5534 O   0  0  0  0  0  0  0  0  0  0  0  0
    2.1659   -4.6909    3.0840 C   0  0  1  0  0  0  0  0  0  0  0  0
    1.3035   -5.6800    2.5932 O   0  0  0  0  0  0  0  0  0  0  0  0
    0.3808   -6.2997    3.4609 C   0  0  1  0  0  0  0  0  0  0  0  0
   -0.4171   -7.2631    2.5793 C   0  0  0  0  0  0  0  0  0  0  0  0
    0.9547   -7.3288    4.9312 S   0  0  0  0  0  0  0  0  0  0  0  0
   -0.1347   -7.6777    5.9415 O   0  0  0  0  0  0  0  0  0  0  0  0
    2.2012   -4.6049    4.4633 O   0  0  0  0  0  0  0  0  0  0  0  0
    4.2669   -4.8355    6.7740 C   0  0  0  0  0  0  0  0  0  0  0  0
    5.5411   -5.7129    6.6957 C   0  0  0  0  0  0  0  0  0  0  0  0
    4.3212   -4.6254    8.3343 C   0  0  0  0  0  0  0  0  0  0  0  0
    1.1647   -1.1693    4.3108 C   0  0  1  0  0  0  0  0  0  0  0  0
    0.6449   -2.0136    3.3174 O   0  0  0  0  0  0  0  0  0  0  0  0
   -2.1713    0.4676    6.5729 H   0  0  0  0  0  0  0  0  0  0  0  0
   -1.8137    1.8877    5.5928 H   0  0  0  0  0  0  0  0  0  0  0  0
   -1.2544    1.8106    7.2591 H   0  0  0  0  0  0  0  0  0  0  0  0
   -1.9878   -0.2085    4.3117 H   0  0  0  0  0  0  0  0  0  0  0  0
   -0.8865    0.5952    2.6277 H   0  0  0  0  0  0  0  0  0  0  0  0
   -0.0059    2.6737    2.8210 H   0  0  0  0  0  0  0  0  0  0  0  0
    1.0262   -0.2426    1.7002 H   0  0  0  0  0  0  0  0  0  0  0  0
    1.1055    1.9419    1.2708 H   0  0  0  0  0  0  0  0  0  0  0  0
    3.5845    0.7760    5.0943 H   0  0  0  0  0  0  0  0  0  0  0  0
    2.1740    1.6891    4.6782 H   0  0  0  0  0  0  0  0  0  0  0  0
    3.5210    1.5340    3.5929 H   0  0  0  0  0  0  0  0  0  0  0  0
    2.9620   -2.0350    2.5101 H   0  0  0  0  0  0  0  0  0  0  0  0
    3.2993   -0.1925    1.2689 H   0  0  0  0  0  0  0  0  0  0  0  0
    5.4828   -1.3466    3.3957 H   0  0  0  0  0  0  0  0  0  0  0  0
    4.6869   -0.9423    4.7436 H   0  0  0  0  0  0  0  0  0  0  0  0
    5.7966   -3.0002    4.5061 H   0  0  0  0  0  0  0  0  0  0  0  0
    5.5366   -3.2770    6.3641 H   0  0  0  0  0  0  0  0  0  0  0  0
    3.5984   -2.4000    7.8659 H   0  0  0  0  0  0  0  0  0  0  0  0
    4.6191   -1.4709    6.8891 H   0  0  0  0  0  0  0  0  0  0  0  0
    2.7935   -0.5741    6.2429 H   0  0  0  0  0  0  0  0  0  0  0  0
   -0.5814   -3.5558    4.6137 H   0  0  0  0  0  0  0  0  0  0  0  0
   -0.3990   -1.9567    6.7070 H   0  0  0  0  0  0  0  0  0  0  0  0
   -0.2941   -3.4104    7.6792 H   0  0  0  0  0  0  0  0  0  0  0  0
   -1.7316   -3.0875    6.7436 H   0  0  0  0  0  0  0  0  0  0  0  0
   -0.0186   -5.3531    6.6924 H   0  0  0  0  0  0  0  0  0  0  0  0
    2.5737   -5.8590    7.5460 H   0  0  0  0  0  0  0  0  0  0  0  0
    2.3804   -7.5254    6.6221 H   0  0  0  0  0  0  0  0  0  0  0  0
    4.4366   -7.7692    5.8835 H   0  0  0  0  0  0  0  0  0  0  0  0
    3.6650   -9.7574    6.1641 H   0  0  0  0  0  0  0  0  0  0  0  0
    1.3932   -9.9357    5.0086 H   0  0  0  0  0  0  0  0  0  0  0  0
    2.2153   -9.8809    3.4387 H   0  0  0  0  0  0  0  0  0  0  0  0
    2.2294  -11.6841    5.6560 H   0  0  0  0  0  0  0  0  0  0  0  0
    5.3822   -7.0207    4.2023 H   0  0  0  0  0  0  0  0  0  0  0  0
    4.7817   -6.7912    1.9885 H   0  0  0  0  0  0  0  0  0  0  0  0
    3.4550   -8.3872    1.7947 H   0  0  0  0  0  0  0  0  0  0  0  0
    2.8199   -5.5238    0.5522 H   0  0  0  0  0  0  0  0  0  0  0  0
    2.9580   -3.5908   -0.3826 H   0  0  0  0  0  0  0  0  0  0  0  0
    7.2000   -5.6992   -0.2486 H   0  0  0  0  0  0  0  0  0  0  0  0
    7.0070   -6.0007    1.4465 H   0  0  0  0  0  0  0  0  0  0  0  0
    7.9929   -4.6182    0.8963 H   0  0  0  0  0  0  0  0  0  0  0  0
    5.2716   -2.8281   -0.4354 H   0  0  0  0  0  0  0  0  0  0  0  0
    6.5837   -3.0826    2.2648 H   0  0  0  0  0  0  0  0  0  0  0  0
    5.0850   -2.6089    1.6230 H   0  0  0  0  0  0  0  0  0  0  0  0
    6.1820   -5.5420    2.8241 H   0  0  0  0  0  0  0  0  0  0  0  0
    1.7981   -3.8005    2.6134 H   0  0  0  0  0  0  0  0  0  0  0  0
   -0.3009   -5.5312    3.7363 H   0  0  0  0  0  0  0  0  0  0  0  0
   -0.7599   -6.7565    1.6727 H   0  0  0  0  0  0  0  0  0  0  0  0
   -1.2993   -7.6458    3.0971 H   0  0  0  0  0  0  0  0  0  0  0  0
    0.1874   -8.1178    2.2651 H   0  0  0  0  0  0  0  0  0  0  0  0
    5.4619   -6.6334    7.2725 H   0  0  0  0  0  0  0  0  0  0  0  0
    6.4027   -5.1919    7.1193 H   0  0  0  0  0  0  0  0  0  0  0  0
    5.8564   -5.9553    5.7052 H   0  0  0  0  0  0  0  0  0  0  0  0
    4.4461   -5.5671    8.8721 H   0  0  0  0  0  0  0  0  0  0  0  0
    3.4042   -4.2124    8.7583 H   0  0  0  0  0  0  0  0  0  0  0  0
    5.1521   -3.9878    8.6409 H   0  0  0  0  0  0  0  0  0  0  0  0
    0.5624   -1.5547    2.4913 H   0  0  0  0  0  0  0  0  0  0  0  0
  1  2  1  0
  1 59  1  0
  1 60  1  0
  1 61  1  0
  2  3  2  0
  2  4  1  0
  4 57  1  0
  4  5  1  6
  4  6  1  0
  5 62  1  0
  6  7  1  0
  6  8  1  0
  6 63  1  6
  7 64  1  0
  8  9  1  0
  8 10  1  0
  8 65  1  6
  9 66  1  0
 10 57  1  0
 10 11  1  1
 10 12  1  0
 11 67  1  0
 11 68  1  0
 11 69  1  0
 12 13  1  0
 12 14  1  0
 12 70  1  6
 13 71  1  0
 14 15  1  0
 14 72  1  0
 14 73  1  0
 15 45  1  0
 15 16  1  0
 15 74  1  1
 16 54  1  0
 16 17  1  0
 16 75  1  1
 17 18  1  0
 17 76  1  0
 17 77  1  0
 18 19  2  3
 18 78  1  0
 19 20  1  0
 19 57  1  0
 20 53  1  6
 20 21  1  0
 20 24  1  0
 21 22  1  0
 21 23  1  0
 21 79  1  6
 22 80  1  0
 22 81  1  0
 22 82  1  0
 23 83  1  0
 24 25  1  0
 25 26  1  0
 25 54  1  0
 25 84  1  1
 26 51  1  0
 26 27  1  0
 26 85  1  1
 27 34  1  0
 27 28  1  0
 27 86  1  1
 28 29  1  0
 28 31  1  0
 28 87  1  1
 29 30  1  0
 29 88  1  0
 29 89  1  0
 30 90  1  0
 31 32  1  0
 32 33  2  0
 32 34  1  0
 34 35  1  0
 34 91  1  1
 35 36  1  0
 35 37  1  0
 35 92  1  6
 36 93  1  0
 37 45  1  1
 37 38  1  0
 37 47  1  0
 38 39  1  0
 38 40  1  0
 38 94  1  6
 39 95  1  0
 40 41  1  0
 41 42  1  0
 41 43  1  6
 41 44  1  0
 42 96  1  0
 42 97  1  0
 42 98  1  0
 43 99  1  0
 44 45  1  0
 44100  1  0
 44101  1  0
 45 46  1  1
 46102  1  0
 47 48  1  0
 47 53  1  0
 47103  1  6
 48 49  1  0
 49 50  1  0
 51 49  1  1
 49104  1  1
 50105  1  0
 50106  1  0
 50107  1  0
 51 52  2  0
 54 55  1  0
 54 56  1  0
 55108  1  0
 55109  1  0
 55110  1  0
 56111  1  0
 56112  1  0
 56113  1  0
 57 58  1  6
 58114  1  0
M  END
>  <i_m_ct_stereo_status>  (147) 
1

>  <s_m_source_file>  (147) 
/var/tmp/pbs.5075288.sched01/tmpd529dnjr/198klec4xt1.sdf

>  <i_m_source_file_index>  (147) 
55

>  <i_lp_mmshare_version>  (147) 
48012

>  <i_f3d_flags>  (147) 
0

>  <s_epik_input>  (147) 
W09IXVtDQEhdMU9bQ0BAXShbQ0gzXSkoW09IXSlbQ0gyXVtDQEBdKFtDQEBdMTIzKShbT0hdKVtDQEBIXTRbQ0BIXTVbQ0gyXS9bQ0hdPUMoW0NAXTYoW09IXSlbQ0BAXShbQ0gzXSkoW0NAQEhdKFtPSF0pW0NIMl00KVtDQEhdKFtPSF0pW0NASF0oW09IXSlbQ0BdNihbT0hdKUMoPU8pW0NIM10pXFtDQF03KFtDQEhdKFtDSDNdKVtPSF0pT1tDQEhdKEM1KFtDSDNdKVtDSDNdKVtDQEBIXShbUytdKFtPLV0pW0NASF0oW0NIM10pT1tDQEhdM083KVtDQEBIXThbQ0BIXShbQ0BIXTJbT0hdKUMoPU8pT1tDQEBIXThbQ0gyXVtPSF0=

>  <s_epik_cmdline>  (147) 
J2VwaWtfcHl0aG9uJywgJy1waHQnLCAnMi4wJywgJy1waCcsICc3LjAnLCAnLXRuJywgJzgnLCAnLW1hJywgJzIwMCcsICctaW1hZScsICc8aW5maWxlLm1hZT4nLCAnLW9tYWUnLCAnPG91dGZpbGUubWFlPic=

>  <r_lp_tautomer_probability>  (147) 
1

>  <r_epik_Ionization_Penalty>  (147) 
4.36256e-06

>  <r_epik_Ionization_Penalty_Charging>  (147) 
0

>  <r_epik_Ionization_Penalty_Neutral>  (147) 
4.36256e-06

>  <r_epik_State_Penalty>  (147) 
-0

>  <r_epik_Charging_Adjusted_Penalty>  (147) 
0

>  <i_epik_Tot_Q>  (147) 
0

>  <i_epik_Tot_abs_Q>  (147) 
2

>  <s_epik_Chemistry_Notes>  (147) 
This compound has an ester and may undergo hydrolysis at high or low pH. This compound contains an acetal/aminal-like group ( X-CH(R)-Y where X, Y are N, S, or O) that may be acid/base labile, releasing an aldehyde.

>  <s_lp_Force_Field>  (147) 
OPLS3e

>  <r_lp_Energy>  (147) 
350.257

>  <b_lp_Chiralities_Consistent>  (147) 
1

>  <s_lp_Variant>  (147) 
99:0-1

>  <s_i_glide_gridfile>  (147) 
pfpi4k_grid

>  <i_i_glide_lignum>  (147) 
55

>  <i_i_glide_rotatable_bonds>  (147) 
14

>  <r_i_docking_score>  (147) 
-2.88796

>  <r_i_glide_ligand_efficiency>  (147) 
-0.0497924

>  <r_i_glide_ligand_efficiency_sa>  (147) 
-0.19274

>  <r_i_glide_ligand_efficiency_ln>  (147) 
-0.570693

>  <r_i_glide_gscore>  (147) 
-2.88796

>  <r_i_glide_lipo>  (147) 
-0.217381

>  <r_i_glide_hbond>  (147) 
0

>  <r_i_glide_metal>  (147) 
-0

>  <r_i_glide_rewards>  (147) 
-0.110715

>  <r_i_glide_evdw>  (147) 
-33.2927

>  <r_i_glide_ecoul>  (147) 
-6.16902

>  <r_i_glide_erotb>  (147) 
0.0608294

>  <r_i_glide_esite>  (147) 
-0.0307045

>  <r_i_glide_emodel>  (147) 
-43.092

>  <r_i_glide_energy>  (147) 
-39.4617

>  <r_i_glide_einternal>  (147) 
7.42217

>  <r_i_glide_intrahb_reward>  (147) 
-0

>  <i_i_glide_confnum>  (147) 
3

>  <i_i_glide_posenum>  (147) 
11

>  <r_i_glide_eff_state_penalty>  (147) 
0

>  <ligand_id>  (147) 
99

>  <original_smiles>  (147) 
CC(=O)C1(O)C(O)C(O)C2(C)C(O)CC3C4CC=C(C5(C(C)O)OC(C6C7C(CO)OC(=O)C7C(O)C7(C(O)OC(C)(O)CC37O)C(OC(C)[S+]6[O-])O5)C4(C)C)C12O

>  <smiles>  (147) 
[H]OC([H])([H])C1([H])OC(=O)C2([H])C([H])(O[H])C34C5([H])OC6(C([H])(O[H])C([H])([H])[H])OC([H])(C([H])(S(=O)C([H])(C([H])([H])[H])O5)C12[H])C(C([H])([H])[H])(C([H])([H])[H])C1([H])C([H])([H])C([H])=C6C2(O[H])C(O[H])(C(=O)C([H])([H])[H])C([H])(O[H])C([H])(O[H])C2(C([H])([H])[H])C([H])(O[H])C([H])([H])C1([H])C3(O[H])C([H])([H])C(O[H])(C([H])([H])[H])OC4([H])O[H]

$$$$
99:1:0
     RDKit          3D

114121  0  0  1  0  0  0  0  0999 V2000
    1.8673   -6.5045    4.9745 C   0  0  0  0  0  0  0  0  0  0  0  0
    1.4335   -6.1271    6.4130 C   0  0  0  0  0  0  0  0  0  0  0  0
    0.2905   -6.4046    6.7671 O   0  0  0  0  0  0  0  0  0  0  0  0
    2.4206   -5.3849    7.3921 C   0  0  1  0  0  0  0  0  0  0  0  0
    1.7182   -5.2908    8.6431 O   0  0  0  0  0  0  0  0  0  0  0  0
    3.7121   -6.1712    7.8185 C   0  0  1  0  0  0  0  0  0  0  0  0
    3.8964   -7.4160    7.1660 O   0  0  0  0  0  0  0  0  0  0  0  0
    4.9003   -5.2012    7.5693 C   0  0  1  0  0  0  0  0  0  0  0  0
    6.1256   -5.8924    7.3823 O   0  0  0  0  0  0  0  0  0  0  0  0
    4.4822   -4.2057    6.4245 C   0  0  2  0  0  0  0  0  0  0  0  0
    4.7010   -4.9870    5.0570 C   0  0  0  0  0  0  0  0  0  0  0  0
    5.3258   -2.8875    6.4311 C   0  0  1  0  0  0  0  0  0  0  0  0
    6.6972   -3.2651    6.4937 O   0  0  0  0  0  0  0  0  0  0  0  0
    5.2820   -1.8540    5.2442 C   0  0  0  0  0  0  0  0  0  0  0  0
    4.1577   -0.7523    4.9955 C   0  0  1  0  0  0  0  0  0  0  0  0
    3.0343   -1.1742    3.8774 C   0  0  1  0  0  0  0  0  0  0  0  0
    2.7958   -2.7048    3.7273 C   0  0  0  0  0  0  0  0  0  0  0  0
    1.8182   -3.2611    4.7415 C   0  0  0  0  0  0  0  0  0  0  0  0
    1.9870   -3.0564    6.0400 C   0  0  0  0  0  0  0  0  0  0  0  0
    1.2232   -1.8478    6.6702 C   0  0  2  0  0  0  0  0  0  0  0  0
    0.3096   -2.4887    7.8252 C   0  0  2  0  0  0  0  0  0  0  0  0
   -0.8931   -3.2765    7.2300 C   0  0  0  0  0  0  0  0  0  0  0  0
   -0.1145   -1.6581    8.8648 O   0  0  0  0  0  0  0  0  0  0  0  0
    0.3783   -1.1061    5.7572 O   0  0  0  0  0  0  0  0  0  0  0  0
    0.7399   -0.0444    4.7693 C   0  0  1  0  0  0  0  0  0  0  0  0
    0.2274    1.4775    4.9798 C   0  0  2  0  0  0  0  0  0  0  0  0
    1.1712    2.7697    5.0279 C   0  0  1  0  0  0  0  0  0  0  0  0
    0.4549    4.0977    4.6123 C   0  0  1  0  0  0  0  0  0  0  0  0
   -0.8788    4.0915    3.8187 C   0  0  0  0  0  0  0  0  0  0  0  0
   -1.0241    5.3214    3.1493 O   0  0  0  0  0  0  0  0  0  0  0  0
    0.2287    4.7621    5.8407 O   0  0  0  0  0  0  0  0  0  0  0  0
    1.1149    4.4521    6.7778 C   0  0  0  0  0  0  0  0  0  0  0  0
    1.2026    5.0290    7.8567 O   0  0  0  0  0  0  0  0  0  0  0  0
    2.0097    3.3115    6.2796 C   0  0  1  0  0  0  0  0  0  0  0  0
    2.9997    2.5605    7.3263 C   0  0  1  0  0  0  0  0  0  0  0  0
    2.6428    2.8760    8.6704 O   0  0  0  0  0  0  0  0  0  0  0  0
    3.4087    0.9927    7.2790 C   0  0  2  0  0  0  0  0  0  0  0  0
    4.3960    0.7563    8.4942 C   0  0  1  0  0  0  0  0  0  0  0  0
    4.5741   -0.5965    8.8242 O   0  0  0  0  0  0  0  0  0  0  0  0
    5.5974    1.4660    8.3590 O   0  0  0  0  0  0  0  0  0  0  0  0
    6.4317    1.0845    7.3047 C   0  0  1  0  0  0  0  0  0  0  0  0
    7.6080    2.0646    7.3773 C   0  0  0  0  0  0  0  0  0  0  0  0
    7.0015   -0.2044    7.4624 O   0  0  0  0  0  0  0  0  0  0  0  0
    5.6752    1.2449    5.9630 C   0  0  0  0  0  0  0  0  0  0  0  0
    4.2319    0.6042    5.9140 C   0  0  1  0  0  0  0  0  0  0  0  0
    3.7491    1.4881    4.9667 O   0  0  0  0  0  0  0  0  0  0  0  0
    2.1082    0.1751    7.6770 C   0  0  1  0  0  0  0  0  0  0  0  0
    1.0793    0.9485    7.2220 O   0  0  0  0  0  0  0  0  0  0  0  0
   -0.2975    0.9796    7.6422 C   0  0  1  0  0  0  0  0  0  0  0  0
   -0.5216    1.9310    8.8667 C   0  0  0  0  0  0  0  0  0  0  0  0
   -1.2127    1.6412    6.1839 S   0  0  0  0  0  0  0  0  0  0  0  0
   -2.1766    0.4874    5.9259 O   0  0  0  0  0  0  0  0  0  0  0  0
    2.2820   -1.0813    7.1454 O   0  0  0  0  0  0  0  0  0  0  0  0
    1.7152   -0.3498    3.5186 C   0  0  0  0  0  0  0  0  0  0  0  0
    2.0844    0.8407    2.5554 C   0  0  0  0  0  0  0  0  0  0  0  0
    0.8393   -1.0943    2.4430 C   0  0  0  0  0  0  0  0  0  0  0  0
    2.9709   -3.9448    6.9163 C   0  0  1  0  0  0  0  0  0  0  0  0
    3.2057   -3.2830    8.1834 O   0  0  0  0  0  0  0  0  0  0  0  0
    1.9891   -5.6210    4.3661 H   0  0  0  0  0  0  0  0  0  0  0  0
    1.0956   -7.1453    4.5121 H   0  0  0  0  0  0  0  0  0  0  0  0
    2.8213   -7.0376    4.9538 H   0  0  0  0  0  0  0  0  0  0  0  0
    2.2843   -4.8431    9.2551 H   0  0  0  0  0  0  0  0  0  0  0  0
    3.7098   -6.4447    8.8808 H   0  0  0  0  0  0  0  0  0  0  0  0
    4.0067   -7.2651    6.2491 H   0  0  0  0  0  0  0  0  0  0  0  0
    5.0764   -4.6662    8.5173 H   0  0  0  0  0  0  0  0  0  0  0  0
    6.8082   -5.2478    7.4432 H   0  0  0  0  0  0  0  0  0  0  0  0
    3.8322   -5.0193    4.4532 H   0  0  0  0  0  0  0  0  0  0  0  0
    5.0067   -6.0270    5.2446 H   0  0  0  0  0  0  0  0  0  0  0  0
    5.5689   -4.5528    4.5200 H   0  0  0  0  0  0  0  0  0  0  0  0
    5.2321   -2.3549    7.3617 H   0  0  0  0  0  0  0  0  0  0  0  0
    6.9124   -3.7394    5.7058 H   0  0  0  0  0  0  0  0  0  0  0  0
    6.1864   -1.2878    5.3443 H   0  0  0  0  0  0  0  0  0  0  0  0
    5.4865   -2.3683    4.3018 H   0  0  0  0  0  0  0  0  0  0  0  0
    4.7851   -0.3233    4.2044 H   0  0  0  0  0  0  0  0  0  0  0  0
    3.5859   -1.0454    2.9355 H   0  0  0  0  0  0  0  0  0  0  0  0
    2.4157   -2.9792    2.7421 H   0  0  0  0  0  0  0  0  0  0  0  0
    3.7509   -3.1870    3.6672 H   0  0  0  0  0  0  0  0  0  0  0  0
    0.8732   -2.9060    4.3936 H   0  0  0  0  0  0  0  0  0  0  0  0
    0.9087   -3.2182    8.3472 H   0  0  0  0  0  0  0  0  0  0  0  0
   -0.5697   -4.0603    6.5590 H   0  0  0  0  0  0  0  0  0  0  0  0
   -1.5899   -2.6583    6.6530 H   0  0  0  0  0  0  0  0  0  0  0  0
   -1.4401   -3.7821    8.0297 H   0  0  0  0  0  0  0  0  0  0  0  0
    0.6389   -1.1247    9.1107 H   0  0  0  0  0  0  0  0  0  0  0  0
   -0.1957   -0.2899    4.2710 H   0  0  0  0  0  0  0  0  0  0  0  0
   -0.2904    1.6201    4.0407 H   0  0  0  0  0  0  0  0  0  0  0  0
    1.8778    2.6621    4.2154 H   0  0  0  0  0  0  0  0  0  0  0  0
    1.1876    4.6889    4.0569 H   0  0  0  0  0  0  0  0  0  0  0  0
   -0.8900    3.3657    3.0096 H   0  0  0  0  0  0  0  0  0  0  0  0
   -1.7373    3.9113    4.4793 H   0  0  0  0  0  0  0  0  0  0  0  0
   -0.5496    5.2301    2.3245 H   0  0  0  0  0  0  0  0  0  0  0  0
    2.7514    3.9229    5.7531 H   0  0  0  0  0  0  0  0  0  0  0  0
    3.9306    3.1078    7.2104 H   0  0  0  0  0  0  0  0  0  0  0  0
    1.8029    2.4965    8.8613 H   0  0  0  0  0  0  0  0  0  0  0  0
    3.9578    1.1225    9.4163 H   0  0  0  0  0  0  0  0  0  0  0  0
    4.8995   -1.0342    8.0651 H   0  0  0  0  0  0  0  0  0  0  0  0
    8.1345    1.9196    8.3234 H   0  0  0  0  0  0  0  0  0  0  0  0
    7.2578    3.1015    7.3484 H   0  0  0  0  0  0  0  0  0  0  0  0
    8.3090    1.8888    6.5588 H   0  0  0  0  0  0  0  0  0  0  0  0
    6.4111   -0.8755    7.1668 H   0  0  0  0  0  0  0  0  0  0  0  0
    5.5928    2.3309    5.8308 H   0  0  0  0  0  0  0  0  0  0  0  0
    6.3199    0.9174    5.1514 H   0  0  0  0  0  0  0  0  0  0  0  0
    4.1985    1.3493    4.1549 H   0  0  0  0  0  0  0  0  0  0  0  0
    2.0109    0.0607    8.7508 H   0  0  0  0  0  0  0  0  0  0  0  0
   -0.7406    0.0597    7.7156 H   0  0  0  0  0  0  0  0  0  0  0  0
    0.0590    1.5900    9.7097 H   0  0  0  0  0  0  0  0  0  0  0  0
   -1.5560    1.8464    9.1788 H   0  0  0  0  0  0  0  0  0  0  0  0
   -0.3152    2.9771    8.7320 H   0  0  0  0  0  0  0  0  0  0  0  0
    1.2456    1.5138    2.3786 H   0  0  0  0  0  0  0  0  0  0  0  0
    2.3668    0.4875    1.5579 H   0  0  0  0  0  0  0  0  0  0  0  0
    2.9403    1.4409    2.8246 H   0  0  0  0  0  0  0  0  0  0  0  0
    0.0976   -0.4153    2.0246 H   0  0  0  0  0  0  0  0  0  0  0  0
    0.2689   -1.9320    2.8199 H   0  0  0  0  0  0  0  0  0  0  0  0
    1.4068   -1.4499    1.5784 H   0  0  0  0  0  0  0  0  0  0  0  0
    3.4594   -2.3854    8.0342 H   0  0  0  0  0  0  0  0  0  0  0  0
  1  2  1  0
  1 59  1  0
  1 60  1  0
  1 61  1  0
  2  3  2  0
  2  4  1  0
  4 57  1  0
  4  5  1  1
  4  6  1  0
  5 62  1  0
  6  7  1  0
  6  8  1  0
  6 63  1  1
  7 64  1  0
  8  9  1  0
  8 10  1  0
  8 65  1  1
  9 66  1  0
 10 57  1  0
 10 11  1  6
 10 12  1  0
 11 67  1  0
 11 68  1  0
 11 69  1  0
 12 13  1  0
 12 14  1  0
 12 70  1  1
 13 71  1  0
 14 15  1  0
 14 72  1  0
 14 73  1  0
 15 45  1  0
 15 16  1  0
 15 74  1  6
 16 54  1  0
 16 17  1  0
 16 75  1  6
 17 18  1  0
 17 76  1  0
 17 77  1  0
 18 19  2  3
 18 78  1  0
 19 20  1  0
 19 57  1  0
 20 53  1  1
 20 21  1  0
 20 24  1  0
 21 22  1  0
 21 23  1  0
 21 79  1  1
 22 80  1  0
 22 81  1  0
 22 82  1  0
 23 83  1  0
 24 25  1  0
 25 26  1  0
 25 54  1  0
 25 84  1  6
 26 51  1  0
 26 27  1  0
 26 85  1  6
 27 34  1  0
 27 28  1  0
 27 86  1  6
 28 29  1  0
 28 31  1  0
 28 87  1  6
 29 30  1  0
 29 88  1  0
 29 89  1  0
 30 90  1  0
 31 32  1  0
 32 33  2  0
 32 34  1  0
 34 35  1  0
 34 91  1  6
 35 36  1  0
 35 37  1  0
 35 92  1  6
 36 93  1  0
 37 45  1  6
 37 38  1  0
 37 47  1  0
 38 39  1  0
 38 40  1  0
 38 94  1  1
 39 95  1  0
 40 41  1  0
 41 42  1  0
 41 43  1  1
 41 44  1  0
 42 96  1  0
 42 97  1  0
 42 98  1  0
 43 99  1  0
 44 45  1  0
 44100  1  0
 44101  1  0
 45 46  1  6
 46102  1  0
 47 48  1  0
 47 53  1  0
 47103  1  1
 48 49  1  0
 49 50  1  0
 51 49  1  1
 49104  1  1
 50105  1  0
 50106  1  0
 50107  1  0
 51 52  2  0
 54 55  1  0
 54 56  1  0
 55108  1  0
 55109  1  0
 55110  1  0
 56111  1  0
 56112  1  0
 56113  1  0
 57 58  1  1
 58114  1  0
M  END
>  <i_m_ct_stereo_status>  (148) 
1

>  <s_m_source_file>  (148) 
/var/tmp/pbs.5075288.sched01/tmpd529dnjr/198klec4xt1.sdf

>  <i_m_source_file_index>  (148) 
56

>  <i_lp_mmshare_version>  (148) 
48012

>  <i_f3d_flags>  (148) 
0

>  <s_epik_input>  (148) 
W09IXVtDQEhdMU9bQ0BAXShbQ0gzXSkoW09IXSlbQ0gyXVtDQEBdKFtDQEBdMTIzKShbT0hdKVtDQEBIXTRbQ0BIXTVbQ0gyXS9bQ0hdPUMoW0NAXTYoW09IXSlbQ0BAXShbQ0gzXSkoW0NAQEhdKFtPSF0pW0NIMl00KVtDQEhdKFtPSF0pW0NASF0oW09IXSlbQ0BdNihbT0hdKUMoPU8pW0NIM10pXFtDQF03KFtDQEhdKFtDSDNdKVtPSF0pT1tDQEhdKEM1KFtDSDNdKVtDSDNdKVtDQEBIXShbUytdKFtPLV0pW0NASF0oW0NIM10pT1tDQEhdM083KVtDQEBIXThbQ0BIXShbQ0BIXTJbT0hdKUMoPU8pT1tDQEBIXThbQ0gyXVtPSF0=

>  <s_epik_cmdline>  (148) 
J2VwaWtfcHl0aG9uJywgJy1waHQnLCAnMi4wJywgJy1waCcsICc3LjAnLCAnLXRuJywgJzgnLCAnLW1hJywgJzIwMCcsICctaW1hZScsICc8aW5maWxlLm1hZT4nLCAnLW9tYWUnLCAnPG91dGZpbGUubWFlPic=

>  <r_lp_tautomer_probability>  (148) 
1

>  <r_epik_Ionization_Penalty>  (148) 
4.36256e-06

>  <r_epik_Ionization_Penalty_Charging>  (148) 
0

>  <r_epik_Ionization_Penalty_Neutral>  (148) 
4.36256e-06

>  <r_epik_State_Penalty>  (148) 
-0

>  <r_epik_Charging_Adjusted_Penalty>  (148) 
0

>  <i_epik_Tot_Q>  (148) 
0

>  <i_epik_Tot_abs_Q>  (148) 
2

>  <s_epik_Chemistry_Notes>  (148) 
This compound has an ester and may undergo hydrolysis at high or low pH. This compound contains an acetal/aminal-like group ( X-CH(R)-Y where X, Y are N, S, or O) that may be acid/base labile, releasing an aldehyde.

>  <s_lp_Force_Field>  (148) 
OPLS3e

>  <r_lp_Energy>  (148) 
338.187

>  <b_lp_Chiralities_Consistent>  (148) 
1

>  <s_lp_Variant>  (148) 
99:0-2

>  <s_i_glide_gridfile>  (148) 
pfpi4k_grid

>  <i_i_glide_lignum>  (148) 
56

>  <i_i_glide_rotatable_bonds>  (148) 
14

>  <r_i_docking_score>  (148) 
-4.08544

>  <r_i_glide_ligand_efficiency>  (148) 
-0.0704387

>  <r_i_glide_ligand_efficiency_sa>  (148) 
-0.27266

>  <r_i_glide_ligand_efficiency_ln>  (148) 
-0.807329

>  <r_i_glide_gscore>  (148) 
-4.08544

>  <r_i_glide_lipo>  (148) 
-0.103178

>  <r_i_glide_hbond>  (148) 
-0.0822924

>  <r_i_glide_metal>  (148) 
-0

>  <r_i_glide_rewards>  (148) 
-0.525545

>  <r_i_glide_evdw>  (148) 
-22.2796

>  <r_i_glide_ecoul>  (148) 
-15.3442

>  <r_i_glide_erotb>  (148) 
0.0608294

>  <r_i_glide_esite>  (148) 
-0.0196442

>  <r_i_glide_emodel>  (148) 
-48.903

>  <r_i_glide_energy>  (148) 
-37.6238

>  <r_i_glide_einternal>  (148) 
4.36236

>  <r_i_glide_intrahb_reward>  (148) 
-0.5

>  <i_i_glide_confnum>  (148) 
5

>  <i_i_glide_posenum>  (148) 
8

>  <r_i_glide_eff_state_penalty>  (148) 
0

>  <ligand_id>  (148) 
99

>  <original_smiles>  (148) 
CC(=O)C1(O)C(O)C(O)C2(C)C(O)CC3C4CC=C(C5(C(C)O)OC(C6C7C(CO)OC(=O)C7C(O)C7(C(O)OC(C)(O)CC37O)C(OC(C)[S+]6[O-])O5)C4(C)C)C12O

>  <smiles>  (148) 
[H]OC([H])([H])C1([H])OC(=O)C2([H])C([H])(O[H])C34C5([H])OC6(C([H])(O[H])C([H])([H])[H])OC([H])(C([H])(S(=O)C([H])(C([H])([H])[H])O5)C12[H])C(C([H])([H])[H])(C([H])([H])[H])C1([H])C([H])([H])C([H])=C6C2(O[H])C(O[H])(C(=O)C([H])([H])[H])C([H])(O[H])C([H])(O[H])C2(C([H])([H])[H])C([H])(O[H])C([H])([H])C1([H])C3(O[H])C([H])([H])C(O[H])(C([H])([H])[H])OC4([H])O[H]

$$$$
99:1:1
     RDKit          3D

114121  0  0  1  0  0  0  0  0999 V2000
    2.5451   -6.3832    6.1104 C   0  0  0  0  0  0  0  0  0  0  0  0
    2.0502   -5.9281    7.5028 C   0  0  0  0  0  0  0  0  0  0  0  0
    0.9659   -6.3533    7.8917 O   0  0  0  0  0  0  0  0  0  0  0  0
    2.9297   -4.9617    8.4011 C   0  0  1  0  0  0  0  0  0  0  0  0
    2.1745   -4.7849    9.6107 O   0  0  0  0  0  0  0  0  0  0  0  0
    4.2804   -5.5922    8.9144 C   0  0  1  0  0  0  0  0  0  0  0  0
    4.5601   -6.8842    8.3865 O   0  0  0  0  0  0  0  0  0  0  0  0
    5.3862   -4.5667    8.5523 C   0  0  1  0  0  0  0  0  0  0  0  0
    6.6773   -5.1490    8.4549 O   0  0  0  0  0  0  0  0  0  0  0  0
    4.8855   -3.7511    7.2908 C   0  0  2  0  0  0  0  0  0  0  0  0
    5.1925   -4.6683    6.0468 C   0  0  0  0  0  0  0  0  0  0  0  0
    5.6432   -2.3643    7.1342 C   0  0  1  0  0  0  0  0  0  0  0  0
    7.0366   -2.6195    7.2382 O   0  0  0  0  0  0  0  0  0  0  0  0
    5.5106   -1.4924    5.8350 C   0  0  0  0  0  0  0  0  0  0  0  0
    4.3072   -0.5306    5.4538 C   0  0  1  0  0  0  0  0  0  0  0  0
    3.2358   -1.1784    4.3802 C   0  0  1  0  0  0  0  0  0  0  0  0
    3.1421   -2.7333    4.4168 C   0  0  0  0  0  0  0  0  0  0  0  0
    2.2064   -3.2589    5.4884 C   0  0  0  0  0  0  0  0  0  0  0  0
    2.3213   -2.8593    6.7570 C   0  0  0  0  0  0  0  0  0  0  0  0
    1.4193   -1.6576    7.2391 C   0  0  2  0  0  0  0  0  0  0  0  0
    0.5642   -2.2395    8.4688 C   0  0  2  0  0  0  0  0  0  0  0  0
   -0.4316   -3.3439    8.0092 C   0  0  0  0  0  0  0  0  0  0  0  0
   -0.1327   -1.3489    9.2793 O   0  0  0  0  0  0  0  0  0  0  0  0
    0.5484   -1.1372    6.2051 O   0  0  0  0  0  0  0  0  0  0  0  0
    0.8403   -0.1521    5.1131 C   0  0  1  0  0  0  0  0  0  0  0  0
    0.1941    1.3366    5.1472 C   0  0  2  0  0  0  0  0  0  0  0  0
    1.0225    2.7018    5.0413 C   0  0  1  0  0  0  0  0  0  0  0  0
    0.1971    3.9078    4.4679 C   0  0  1  0  0  0  0  0  0  0  0  0
   -1.1108    3.6893    3.6689 C   0  0  0  0  0  0  0  0  0  0  0  0
   -1.3960    4.8512    2.9097 O   0  0  0  0  0  0  0  0  0  0  0  0
   -0.1176    4.6822    5.6069 O   0  0  0  0  0  0  0  0  0  0  0  0
    0.7813    4.5731    6.5770 C   0  0  0  0  0  0  0  0  0  0  0  0
    0.7881    5.2821    7.5866 O   0  0  0  0  0  0  0  0  0  0  0  0
    1.7946    3.4602    6.2178 C   0  0  1  0  0  0  0  0  0  0  0  0
    2.8267    2.9322    7.3687 C   0  0  1  0  0  0  0  0  0  0  0  0
    2.4180    3.3887    8.6560 O   0  0  0  0  0  0  0  0  0  0  0  0
    3.3705    1.4164    7.5194 C   0  0  2  0  0  0  0  0  0  0  0  0
    4.3495    1.4093    8.7537 C   0  0  1  0  0  0  0  0  0  0  0  0
    4.6359    0.1149    9.2103 O   0  0  0  0  0  0  0  0  0  0  0  0
    5.4866    2.1858    8.5425 O   0  0  0  0  0  0  0  0  0  0  0  0
    6.3657    1.7740    7.5480 C   0  0  1  0  0  0  0  0  0  0  0  0
    7.4541    2.8526    7.5130 C   0  0  0  0  0  0  0  0  0  0  0  0
    7.0347    0.5666    7.8462 O   0  0  0  0  0  0  0  0  0  0  0  0
    5.6226    1.7025    6.1961 C   0  0  0  0  0  0  0  0  0  0  0  0
    4.2377    0.9346    6.2118 C   0  0  1  0  0  0  0  0  0  0  0  0
    3.6950    1.6561    5.1534 O   0  0  0  0  0  0  0  0  0  0  0  0
    2.1302    0.5430    7.9935 C   0  0  1  0  0  0  0  0  0  0  0  0
    1.0298    1.1692    7.4581 O   0  0  0  0  0  0  0  0  0  0  0  0
   -0.3178    1.1488    7.8324 C   0  0  1  0  0  0  0  0  0  0  0  0
   -0.6548    2.1710    8.9536 C   0  0  0  0  0  0  0  0  0  0  0  0
   -1.2689    1.5094    6.3203 S   0  0  0  0  0  0  0  0  0  0  0  0
   -2.1302    0.2571    6.1642 O   0  0  0  0  0  0  0  0  0  0  0  0
    2.4190   -0.7463    7.5743 O   0  0  0  0  0  0  0  0  0  0  0  0
    1.8468   -0.5293    3.9080 C   0  0  0  0  0  0  0  0  0  0  0  0
    2.1369    0.5761    2.8251 C   0  0  0  0  0  0  0  0  0  0  0  0
    1.0468   -1.4776    2.9265 C   0  0  0  0  0  0  0  0  0  0  0  0
    3.3617   -3.5468    7.7546 C   0  0  1  0  0  0  0  0  0  0  0  0
    3.5150   -2.7200    8.9203 O   0  0  0  0  0  0  0  0  0  0  0  0
    2.6015   -5.5450    5.4212 H   0  0  0  0  0  0  0  0  0  0  0  0
    1.8256   -7.0981    5.6846 H   0  0  0  0  0  0  0  0  0  0  0  0
    3.5376   -6.8471    6.1847 H   0  0  0  0  0  0  0  0  0  0  0  0
    2.7029   -4.3000   10.2240 H   0  0  0  0  0  0  0  0  0  0  0  0
    4.2934   -5.7368    9.9978 H   0  0  0  0  0  0  0  0  0  0  0  0
    3.9075   -7.4868    8.7058 H   0  0  0  0  0  0  0  0  0  0  0  0
    5.4900   -3.8983    9.4156 H   0  0  0  0  0  0  0  0  0  0  0  0
    7.2930   -4.4425    8.3483 H   0  0  0  0  0  0  0  0  0  0  0  0
    4.3237   -4.8545    5.4456 H   0  0  0  0  0  0  0  0  0  0  0  0
    5.5777   -5.6522    6.3534 H   0  0  0  0  0  0  0  0  0  0  0  0
    5.9768   -4.2230    5.4096 H   0  0  0  0  0  0  0  0  0  0  0  0
    5.4745   -1.7375    7.9977 H   0  0  0  0  0  0  0  0  0  0  0  0
    7.2881   -3.1837    6.5243 H   0  0  0  0  0  0  0  0  0  0  0  0
    6.3789   -0.8428    5.8588 H   0  0  0  0  0  0  0  0  0  0  0  0
    5.7776   -2.0981    4.9710 H   0  0  0  0  0  0  0  0  0  0  0  0
    4.9055   -0.1412    4.6260 H   0  0  0  0  0  0  0  0  0  0  0  0
    3.7953   -1.1206    3.4374 H   0  0  0  0  0  0  0  0  0  0  0  0
    2.7923   -3.1498    3.4765 H   0  0  0  0  0  0  0  0  0  0  0  0
    4.1306   -3.1490    4.4239 H   0  0  0  0  0  0  0  0  0  0  0  0
    1.2378   -3.0461    5.0846 H   0  0  0  0  0  0  0  0  0  0  0  0
    1.2563   -2.6946    9.1587 H   0  0  0  0  0  0  0  0  0  0  0  0
    0.1179   -4.1511    7.5270 H   0  0  0  0  0  0  0  0  0  0  0  0
   -1.2038   -3.0469    7.2754 H   0  0  0  0  0  0  0  0  0  0  0  0
   -0.9078   -3.7842    8.8966 H   0  0  0  0  0  0  0  0  0  0  0  0
    0.4846   -0.6707    9.5387 H   0  0  0  0  0  0  0  0  0  0  0  0
   -0.0658   -0.5432    4.6534 H   0  0  0  0  0  0  0  0  0  0  0  0
   -0.3282    1.3216    4.2007 H   0  0  0  0  0  0  0  0  0  0  0  0
    1.7386    2.5669    4.2514 H   0  0  0  0  0  0  0  0  0  0  0  0
    0.8843    4.4944    3.8508 H   0  0  0  0  0  0  0  0  0  0  0  0
   -1.0184    2.8840    2.9396 H   0  0  0  0  0  0  0  0  0  0  0  0
   -1.9491    3.4610    4.3334 H   0  0  0  0  0  0  0  0  0  0  0  0
   -0.8007    4.8502    2.1574 H   0  0  0  0  0  0  0  0  0  0  0  0
    2.4888    4.0674    5.6319 H   0  0  0  0  0  0  0  0  0  0  0  0
    3.7180    3.5384    7.1926 H   0  0  0  0  0  0  0  0  0  0  0  0
    1.5787    3.0109    8.8544 H   0  0  0  0  0  0  0  0  0  0  0  0
    3.8865    1.8493    9.6305 H   0  0  0  0  0  0  0  0  0  0  0  0
    4.9224   -0.3813    8.4733 H   0  0  0  0  0  0  0  0  0  0  0  0
    7.9780    2.8644    8.4683 H   0  0  0  0  0  0  0  0  0  0  0  0
    7.0137    3.8369    7.3533 H   0  0  0  0  0  0  0  0  0  0  0  0
    8.1746    2.6398    6.7234 H   0  0  0  0  0  0  0  0  0  0  0  0
    6.4495   -0.1601    7.7635 H   0  0  0  0  0  0  0  0  0  0  0  0
    5.4569    2.7514    5.9252 H   0  0  0  0  0  0  0  0  0  0  0  0
    6.3068    1.3290    5.4340 H   0  0  0  0  0  0  0  0  0  0  0  0
    4.2232    1.5230    4.3854 H   0  0  0  0  0  0  0  0  0  0  0  0
    2.0250    0.5177    9.0806 H   0  0  0  0  0  0  0  0  0  0  0  0
   -0.7177    0.2126    8.0474 H   0  0  0  0  0  0  0  0  0  0  0  0
   -0.0579    2.0040    9.8626 H   0  0  0  0  0  0  0  0  0  0  0  0
   -1.6928    2.0479    9.2846 H   0  0  0  0  0  0  0  0  0  0  0  0
   -0.5375    3.2403    8.6922 H   0  0  0  0  0  0  0  0  0  0  0  0
    1.2498    1.1516    2.5658 H   0  0  0  0  0  0  0  0  0  0  0  0
    2.4673    0.1439    1.8767 H   0  0  0  0  0  0  0  0  0  0  0  0
    2.9348    1.2730    3.0294 H   0  0  0  0  0  0  0  0  0  0  0  0
    0.2360   -0.9352    2.4379 H   0  0  0  0  0  0  0  0  0  0  0  0
    0.5514   -2.3272    3.3846 H   0  0  0  0  0  0  0  0  0  0  0  0
    1.6566   -1.8749    2.1118 H   0  0  0  0  0  0  0  0  0  0  0  0
    3.7478   -1.8466    8.6633 H   0  0  0  0  0  0  0  0  0  0  0  0
  1  2  1  0
  1 59  1  0
  1 60  1  0
  1 61  1  0
  2  3  2  0
  2  4  1  0
  4 57  1  0
  4  5  1  1
  4  6  1  0
  5 62  1  0
  6  7  1  0
  6  8  1  0
  6 63  1  1
  7 64  1  0
  8  9  1  0
  8 10  1  0
  8 65  1  1
  9 66  1  0
 10 57  1  0
 10 11  1  6
 10 12  1  0
 11 67  1  0
 11 68  1  0
 11 69  1  0
 12 13  1  0
 12 14  1  0
 12 70  1  1
 13 71  1  0
 14 15  1  0
 14 72  1  0
 14 73  1  0
 15 45  1  0
 15 16  1  0
 15 74  1  6
 16 54  1  0
 16 17  1  0
 16 75  1  6
 17 18  1  0
 17 76  1  0
 17 77  1  0
 18 19  2  3
 18 78  1  0
 19 20  1  0
 19 57  1  0
 20 53  1  1
 20 21  1  0
 20 24  1  0
 21 22  1  0
 21 23  1  0
 21 79  1  1
 22 80  1  0
 22 81  1  0
 22 82  1  0
 23 83  1  0
 24 25  1  0
 25 26  1  0
 25 54  1  0
 25 84  1  6
 26 51  1  0
 26 27  1  0
 26 85  1  6
 27 34  1  0
 27 28  1  0
 27 86  1  6
 28 29  1  0
 28 31  1  0
 28 87  1  6
 29 30  1  0
 29 88  1  0
 29 89  1  0
 30 90  1  0
 31 32  1  0
 32 33  2  0
 32 34  1  0
 34 35  1  0
 34 91  1  6
 35 36  1  0
 35 37  1  0
 35 92  1  6
 36 93  1  0
 37 45  1  6
 37 38  1  0
 37 47  1  0
 38 39  1  0
 38 40  1  0
 38 94  1  1
 39 95  1  0
 40 41  1  0
 41 42  1  0
 41 43  1  1
 41 44  1  0
 42 96  1  0
 42 97  1  0
 42 98  1  0
 43 99  1  0
 44 45  1  0
 44100  1  0
 44101  1  0
 45 46  1  6
 46102  1  0
 47 48  1  0
 47 53  1  0
 47103  1  1
 48 49  1  0
 49 50  1  0
 51 49  1  1
 49104  1  1
 50105  1  0
 50106  1  0
 50107  1  0
 51 52  2  0
 54 55  1  0
 54 56  1  0
 55108  1  0
 55109  1  0
 55110  1  0
 56111  1  0
 56112  1  0
 56113  1  0
 57 58  1  1
 58114  1  0
M  END
>  <i_m_ct_stereo_status>  (149) 
1

>  <s_m_source_file>  (149) 
/var/tmp/pbs.5075288.sched01/tmpd529dnjr/198klec4xt1.sdf

>  <i_m_source_file_index>  (149) 
56

>  <i_lp_mmshare_version>  (149) 
48012

>  <i_f3d_flags>  (149) 
0

>  <s_epik_input>  (149) 
W09IXVtDQEhdMU9bQ0BAXShbQ0gzXSkoW09IXSlbQ0gyXVtDQEBdKFtDQEBdMTIzKShbT0hdKVtDQEBIXTRbQ0BIXTVbQ0gyXS9bQ0hdPUMoW0NAXTYoW09IXSlbQ0BAXShbQ0gzXSkoW0NAQEhdKFtPSF0pW0NIMl00KVtDQEhdKFtPSF0pW0NASF0oW09IXSlbQ0BdNihbT0hdKUMoPU8pW0NIM10pXFtDQF03KFtDQEhdKFtDSDNdKVtPSF0pT1tDQEhdKEM1KFtDSDNdKVtDSDNdKVtDQEBIXShbUytdKFtPLV0pW0NASF0oW0NIM10pT1tDQEhdM083KVtDQEBIXThbQ0BIXShbQ0BIXTJbT0hdKUMoPU8pT1tDQEBIXThbQ0gyXVtPSF0=

>  <s_epik_cmdline>  (149) 
J2VwaWtfcHl0aG9uJywgJy1waHQnLCAnMi4wJywgJy1waCcsICc3LjAnLCAnLXRuJywgJzgnLCAnLW1hJywgJzIwMCcsICctaW1hZScsICc8aW5maWxlLm1hZT4nLCAnLW9tYWUnLCAnPG91dGZpbGUubWFlPic=

>  <r_lp_tautomer_probability>  (149) 
1

>  <r_epik_Ionization_Penalty>  (149) 
4.36256e-06

>  <r_epik_Ionization_Penalty_Charging>  (149) 
0

>  <r_epik_Ionization_Penalty_Neutral>  (149) 
4.36256e-06

>  <r_epik_State_Penalty>  (149) 
-0

>  <r_epik_Charging_Adjusted_Penalty>  (149) 
0

>  <i_epik_Tot_Q>  (149) 
0

>  <i_epik_Tot_abs_Q>  (149) 
2

>  <s_epik_Chemistry_Notes>  (149) 
This compound has an ester and may undergo hydrolysis at high or low pH. This compound contains an acetal/aminal-like group ( X-CH(R)-Y where X, Y are N, S, or O) that may be acid/base labile, releasing an aldehyde.

>  <s_lp_Force_Field>  (149) 
OPLS3e

>  <r_lp_Energy>  (149) 
338.187

>  <b_lp_Chiralities_Consistent>  (149) 
1

>  <s_lp_Variant>  (149) 
99:0-2

>  <s_i_glide_gridfile>  (149) 
pfpi4k_grid

>  <i_i_glide_lignum>  (149) 
56

>  <i_i_glide_rotatable_bonds>  (149) 
14

>  <r_i_docking_score>  (149) 
-3.69591

>  <r_i_glide_ligand_efficiency>  (149) 
-0.0637225

>  <r_i_glide_ligand_efficiency_sa>  (149) 
-0.246662

>  <r_i_glide_ligand_efficiency_ln>  (149) 
-0.730352

>  <r_i_glide_gscore>  (149) 
-3.69591

>  <r_i_glide_lipo>  (149) 
-0.0591237

>  <r_i_glide_hbond>  (149) 
-0.16

>  <r_i_glide_metal>  (149) 
-0

>  <r_i_glide_rewards>  (149) 
-0.00565655

>  <r_i_glide_evdw>  (149) 
-22.3868

>  <r_i_glide_ecoul>  (149) 
-15.8962

>  <r_i_glide_erotb>  (149) 
0.0608294

>  <r_i_glide_esite>  (149) 
-0.0281832

>  <r_i_glide_emodel>  (149) 
-44.2508

>  <r_i_glide_energy>  (149) 
-38.283

>  <r_i_glide_einternal>  (149) 
3.47892

>  <r_i_glide_intrahb_reward>  (149) 
-0

>  <i_i_glide_confnum>  (149) 
3

>  <i_i_glide_posenum>  (149) 
1

>  <r_i_glide_eff_state_penalty>  (149) 
0

>  <ligand_id>  (149) 
99

>  <original_smiles>  (149) 
CC(=O)C1(O)C(O)C(O)C2(C)C(O)CC3C4CC=C(C5(C(C)O)OC(C6C7C(CO)OC(=O)C7C(O)C7(C(O)OC(C)(O)CC37O)C(OC(C)[S+]6[O-])O5)C4(C)C)C12O

>  <smiles>  (149) 
[H]OC([H])([H])C1([H])OC(=O)C2([H])C([H])(O[H])C34C5([H])OC6(C([H])(O[H])C([H])([H])[H])OC([H])(C([H])(S(=O)C([H])(C([H])([H])[H])O5)C12[H])C(C([H])([H])[H])(C([H])([H])[H])C1([H])C([H])([H])C([H])=C6C2(O[H])C(O[H])(C(=O)C([H])([H])[H])C([H])(O[H])C([H])(O[H])C2(C([H])([H])[H])C([H])(O[H])C([H])([H])C1([H])C3(O[H])C([H])([H])C(O[H])(C([H])([H])[H])OC4([H])O[H]

$$$$
99:1:2
     RDKit          3D

114121  0  0  1  0  0  0  0  0999 V2000
   -1.7966   -8.6326    3.3011 C   0  0  0  0  0  0  0  0  0  0  0  0
   -0.4289   -9.3573    3.4081 C   0  0  0  0  0  0  0  0  0  0  0  0
   -0.0087   -9.9332    2.4190 O   0  0  0  0  0  0  0  0  0  0  0  0
    0.4131   -9.3658    4.7297 C   0  0  1  0  0  0  0  0  0  0  0  0
   -0.4350   -8.9531    5.8029 O   0  0  0  0  0  0  0  0  0  0  0  0
    0.9619  -10.7869    5.1438 C   0  0  1  0  0  0  0  0  0  0  0  0
    0.6777  -11.8619    4.2637 O   0  0  0  0  0  0  0  0  0  0  0  0
    2.4905  -10.6335    5.3421 C   0  0  1  0  0  0  0  0  0  0  0  0
    3.1874  -11.8738    5.2703 O   0  0  0  0  0  0  0  0  0  0  0  0
    2.9441   -9.4487    4.4081 C   0  0  2  0  0  0  0  0  0  0  0  0
    3.0281  -10.0746    2.9773 C   0  0  0  0  0  0  0  0  0  0  0  0
    4.3435   -8.8321    4.8424 C   0  0  1  0  0  0  0  0  0  0  0  0
    5.2636   -9.8880    5.0507 O   0  0  0  0  0  0  0  0  0  0  0  0
    5.1367   -7.8304    3.9398 C   0  0  0  0  0  0  0  0  0  0  0  0
    4.8518   -6.2793    3.7619 C   0  0  1  0  0  0  0  0  0  0  0  0
    4.0064   -5.9045    2.3952 C   0  0  1  0  0  0  0  0  0  0  0  0
    3.0808   -7.0420    1.8577 C   0  0  0  0  0  0  0  0  0  0  0  0
    1.7192   -7.1177    2.5164 C   0  0  0  0  0  0  0  0  0  0  0  0
    1.5979   -7.1198    3.8518 C   0  0  0  0  0  0  0  0  0  0  0  0
    1.4711   -5.7296    4.5707 C   0  0  2  0  0  0  0  0  0  0  0  0
    0.0816   -5.6426    5.3979 C   0  0  2  0  0  0  0  0  0  0  0  0
    0.1194   -5.9309    6.9391 C   0  0  0  0  0  0  0  0  0  0  0  0
   -0.9423   -6.3937    4.8729 O   0  0  0  0  0  0  0  0  0  0  0  0
    1.4277   -4.6065    3.6750 O   0  0  0  0  0  0  0  0  0  0  0  0
    2.5037   -3.7913    3.0810 C   0  0  1  0  0  0  0  0  0  0  0  0
    2.7740   -2.2742    3.5713 C   0  0  2  0  0  0  0  0  0  0  0  0
    4.1858   -1.7124    4.0729 C   0  0  1  0  0  0  0  0  0  0  0  0
    4.3782   -0.1760    3.8513 C   0  0  1  0  0  0  0  0  0  0  0  0
    3.5341    0.5992    2.8227 C   0  0  0  0  0  0  0  0  0  0  0  0
    3.8037    0.1503    1.5083 O   0  0  0  0  0  0  0  0  0  0  0  0
    4.2091    0.3988    5.1265 O   0  0  0  0  0  0  0  0  0  0  0  0
    4.5170   -0.4226    6.1122 C   0  0  0  0  0  0  0  0  0  0  0  0
    4.5784   -0.0893    7.2928 O   0  0  0  0  0  0  0  0  0  0  0  0
    4.8130   -1.8261    5.5363 C   0  0  1  0  0  0  0  0  0  0  0  0
    4.9650   -3.0881    6.5513 C   0  0  1  0  0  0  0  0  0  0  0  0
    4.4604   -2.7454    7.8398 O   0  0  0  0  0  0  0  0  0  0  0  0
    4.5264   -4.6103    6.2215 C   0  0  2  0  0  0  0  0  0  0  0  0
    4.8629   -5.4664    7.5042 C   0  0  1  0  0  0  0  0  0  0  0  0
    4.2360   -6.7283    7.5158 O   0  0  0  0  0  0  0  0  0  0  0  0
    6.2281   -5.5271    7.7557 O   0  0  0  0  0  0  0  0  0  0  0  0
    7.0032   -6.1924    6.8154 C   0  0  1  0  0  0  0  0  0  0  0  0
    8.4421   -6.0473    7.3200 C   0  0  0  0  0  0  0  0  0  0  0  0
    6.7354   -7.5774    6.7483 O   0  0  0  0  0  0  0  0  0  0  0  0
    6.8354   -5.5288    5.4297 C   0  0  0  0  0  0  0  0  0  0  0  0
    5.3430   -5.2725    4.9749 C   0  0  1  0  0  0  0  0  0  0  0  0
    5.6210   -4.1870    4.1672 O   0  0  0  0  0  0  0  0  0  0  0  0
    2.9591   -4.6213    6.1749 C   0  0  1  0  0  0  0  0  0  0  0  0
    2.6115   -3.3525    5.7943 O   0  0  0  0  0  0  0  0  0  0  0  0
    1.4097   -2.6554    5.9657 C   0  0  1  0  0  0  0  0  0  0  0  0
    1.3072   -1.8609    7.2741 C   0  0  0  0  0  0  0  0  0  0  0  0
    1.3351   -1.5158    4.5243 S   0  0  0  0  0  0  0  0  0  0  0  0
    0.0591   -1.8488    3.7539 O   0  0  0  0  0  0  0  0  0  0  0  0
    2.6394   -5.6711    5.3345 O   0  0  0  0  0  0  0  0  0  0  0  0
    3.4595   -4.4539    1.9777 C   0  0  0  0  0  0  0  0  0  0  0  0
    4.6337   -3.5735    1.4196 C   0  0  0  0  0  0  0  0  0  0  0  0
    2.6448   -4.4866    0.6250 C   0  0  0  0  0  0  0  0  0  0  0  0
    1.7311   -8.4437    4.6967 C   0  0  1  0  0  0  0  0  0  0  0  0
    1.9530   -8.0783    6.0550 O   0  0  0  0  0  0  0  0  0  0  0  0
   -2.5108   -8.9999    4.0538 H   0  0  0  0  0  0  0  0  0  0  0  0
   -2.2199   -8.7885    2.3102 H   0  0  0  0  0  0  0  0  0  0  0  0
   -1.7092   -7.5648    3.3447 H   0  0  0  0  0  0  0  0  0  0  0  0
   -0.1228   -9.3313    6.6081 H   0  0  0  0  0  0  0  0  0  0  0  0
    0.4891  -11.1067    6.0583 H   0  0  0  0  0  0  0  0  0  0  0  0
   -0.2704  -11.9522    4.2655 H   0  0  0  0  0  0  0  0  0  0  0  0
    2.6444  -10.3688    6.3854 H   0  0  0  0  0  0  0  0  0  0  0  0
    2.7972  -12.4629    5.8984 H   0  0  0  0  0  0  0  0  0  0  0  0
    2.3702   -9.6039    2.2543 H   0  0  0  0  0  0  0  0  0  0  0  0
    2.7400  -11.1269    2.9373 H   0  0  0  0  0  0  0  0  0  0  0  0
    4.0416  -10.0546    2.5745 H   0  0  0  0  0  0  0  0  0  0  0  0
    4.2919   -8.4160    5.8303 H   0  0  0  0  0  0  0  0  0  0  0  0
    5.2610  -10.4442    4.2907 H   0  0  0  0  0  0  0  0  0  0  0  0
    6.1535   -7.8714    4.3225 H   0  0  0  0  0  0  0  0  0  0  0  0
    5.2994   -8.2857    2.9670 H   0  0  0  0  0  0  0  0  0  0  0  0
    5.7978   -6.1900    3.2216 H   0  0  0  0  0  0  0  0  0  0  0  0
    4.7778   -6.0135    1.6257 H   0  0  0  0  0  0  0  0  0  0  0  0
    2.9017   -6.9458    0.7901 H   0  0  0  0  0  0  0  0  0  0  0  0
    3.6132   -7.9740    1.8535 H   0  0  0  0  0  0  0  0  0  0  0  0
    1.2235   -6.2720    2.0918 H   0  0  0  0  0  0  0  0  0  0  0  0
   -0.3783   -4.6911    5.1752 H   0  0  0  0  0  0  0  0  0  0  0  0
    0.7279   -5.2141    7.4915 H   0  0  0  0  0  0  0  0  0  0  0  0
    0.4003   -6.9509    7.2145 H   0  0  0  0  0  0  0  0  0  0  0  0
   -0.9045   -5.8189    7.3117 H   0  0  0  0  0  0  0  0  0  0  0  0
   -0.6703   -7.3189    4.9042 H   0  0  0  0  0  0  0  0  0  0  0  0
    1.7199   -3.4350    2.4124 H   0  0  0  0  0  0  0  0  0  0  0  0
    2.6624   -1.7535    2.6280 H   0  0  0  0  0  0  0  0  0  0  0  0
    4.9280   -2.0876    3.3892 H   0  0  0  0  0  0  0  0  0  0  0  0
    5.4274   -0.0080    3.5917 H   0  0  0  0  0  0  0  0  0  0  0  0
    2.4667    0.5499    3.0286 H   0  0  0  0  0  0  0  0  0  0  0  0
    3.7837    1.6576    2.8910 H   0  0  0  0  0  0  0  0  0  0  0  0
    3.1314    0.4854    0.9373 H   0  0  0  0  0  0  0  0  0  0  0  0
    5.8682   -1.6827    5.3001 H   0  0  0  0  0  0  0  0  0  0  0  0
    6.0369   -3.1464    6.7353 H   0  0  0  0  0  0  0  0  0  0  0  0
    3.5341   -2.5956    7.7732 H   0  0  0  0  0  0  0  0  0  0  0  0
    4.4640   -5.0169    8.4065 H   0  0  0  0  0  0  0  0  0  0  0  0
    4.4880   -7.1764    6.7285 H   0  0  0  0  0  0  0  0  0  0  0  0
    8.5449   -6.5396    8.2870 H   0  0  0  0  0  0  0  0  0  0  0  0
    8.6853   -4.9918    7.4566 H   0  0  0  0  0  0  0  0  0  0  0  0
    9.1451   -6.4906    6.6171 H   0  0  0  0  0  0  0  0  0  0  0  0
    6.9935   -7.9676    7.5610 H   0  0  0  0  0  0  0  0  0  0  0  0
    7.3658   -4.5814    5.5342 H   0  0  0  0  0  0  0  0  0  0  0  0
    7.4133   -6.0902    4.6954 H   0  0  0  0  0  0  0  0  0  0  0  0
    6.1835   -4.4744    3.4759 H   0  0  0  0  0  0  0  0  0  0  0  0
    2.5785   -4.7619    7.1790 H   0  0  0  0  0  0  0  0  0  0  0  0
    0.5303   -3.2453    5.9528 H   0  0  0  0  0  0  0  0  0  0  0  0
    1.3990   -2.5256    8.1344 H   0  0  0  0  0  0  0  0  0  0  0  0
    0.3329   -1.3733    7.3612 H   0  0  0  0  0  0  0  0  0  0  0  0
    2.0680   -1.0906    7.3502 H   0  0  0  0  0  0  0  0  0  0  0  0
    4.3392   -2.5362    1.2617 H   0  0  0  0  0  0  0  0  0  0  0  0
    4.9665   -3.9198    0.4385 H   0  0  0  0  0  0  0  0  0  0  0  0
    5.5612   -3.5729    1.9708 H   0  0  0  0  0  0  0  0  0  0  0  0
    2.4561   -3.4791    0.2431 H   0  0  0  0  0  0  0  0  0  0  0  0
    1.6646   -4.9414    0.6860 H   0  0  0  0  0  0  0  0  0  0  0  0
    3.1703   -5.0068   -0.1799 H   0  0  0  0  0  0  0  0  0  0  0  0
    1.9169   -8.8394    6.5882 H   0  0  0  0  0  0  0  0  0  0  0  0
  1  2  1  0
  1 59  1  0
  1 60  1  0
  1 61  1  0
  2  3  2  0
  2  4  1  0
  4 57  1  0
  4  5  1  1
  4  6  1  0
  5 62  1  0
  6  7  1  0
  6  8  1  0
  6 63  1  1
  7 64  1  0
  8  9  1  0
  8 10  1  0
  8 65  1  1
  9 66  1  0
 10 57  1  0
 10 11  1  6
 10 12  1  0
 11 67  1  0
 11 68  1  0
 11 69  1  0
 12 13  1  0
 12 14  1  0
 12 70  1  1
 13 71  1  0
 14 15  1  0
 14 72  1  0
 14 73  1  0
 15 45  1  0
 15 16  1  0
 15 74  1  6
 16 54  1  0
 16 17  1  0
 16 75  1  6
 17 18  1  0
 17 76  1  0
 17 77  1  0
 18 19  2  3
 18 78  1  0
 19 20  1  0
 19 57  1  0
 20 53  1  1
 20 21  1  0
 20 24  1  0
 21 22  1  0
 21 23  1  0
 21 79  1  1
 22 80  1  0
 22 81  1  0
 22 82  1  0
 23 83  1  0
 24 25  1  0
 25 26  1  0
 25 54  1  0
 25 84  1  6
 26 51  1  0
 26 27  1  0
 26 85  1  6
 27 34  1  0
 27 28  1  0
 27 86  1  6
 28 29  1  0
 28 31  1  0
 28 87  1  6
 29 30  1  0
 29 88  1  0
 29 89  1  0
 30 90  1  0
 31 32  1  0
 32 33  2  0
 32 34  1  0
 34 35  1  0
 34 91  1  6
 35 36  1  0
 35 37  1  0
 35 92  1  1
 36 93  1  0
 37 45  1  6
 37 38  1  0
 37 47  1  0
 38 39  1  0
 38 40  1  0
 38 94  1  1
 39 95  1  0
 40 41  1  0
 41 42  1  0
 41 43  1  6
 41 44  1  0
 42 96  1  0
 42 97  1  0
 42 98  1  0
 43 99  1  0
 44 45  1  0
 44100  1  0
 44101  1  0
 45 46  1  6
 46102  1  0
 47 48  1  0
 47 53  1  0
 47103  1  1
 48 49  1  0
 49 50  1  0
 51 49  1  1
 49104  1  6
 50105  1  0
 50106  1  0
 50107  1  0
 51 52  2  0
 54 55  1  0
 54 56  1  0
 55108  1  0
 55109  1  0
 55110  1  0
 56111  1  0
 56112  1  0
 56113  1  0
 57 58  1  1
 58114  1  0
M  END
>  <i_m_ct_stereo_status>  (150) 
1

>  <s_m_source_file>  (150) 
/var/tmp/pbs.5075288.sched01/tmpd529dnjr/198klec4xt1.sdf

>  <i_m_source_file_index>  (150) 
56

>  <i_lp_mmshare_version>  (150) 
48012

>  <i_f3d_flags>  (150) 
0

>  <s_epik_input>  (150) 
W09IXVtDQEhdMU9bQ0BAXShbQ0gzXSkoW09IXSlbQ0gyXVtDQEBdKFtDQEBdMTIzKShbT0hdKVtDQEBIXTRbQ0BIXTVbQ0gyXS9bQ0hdPUMoW0NAXTYoW09IXSlbQ0BAXShbQ0gzXSkoW0NAQEhdKFtPSF0pW0NIMl00KVtDQEhdKFtPSF0pW0NASF0oW09IXSlbQ0BdNihbT0hdKUMoPU8pW0NIM10pXFtDQF03KFtDQEhdKFtDSDNdKVtPSF0pT1tDQEhdKEM1KFtDSDNdKVtDSDNdKVtDQEBIXShbUytdKFtPLV0pW0NASF0oW0NIM10pT1tDQEhdM083KVtDQEBIXThbQ0BIXShbQ0BIXTJbT0hdKUMoPU8pT1tDQEBIXThbQ0gyXVtPSF0=

>  <s_epik_cmdline>  (150) 
J2VwaWtfcHl0aG9uJywgJy1waHQnLCAnMi4wJywgJy1waCcsICc3LjAnLCAnLXRuJywgJzgnLCAnLW1hJywgJzIwMCcsICctaW1hZScsICc8aW5maWxlLm1hZT4nLCAnLW9tYWUnLCAnPG91dGZpbGUubWFlPic=

>  <r_lp_tautomer_probability>  (150) 
1

>  <r_epik_Ionization_Penalty>  (150) 
4.36256e-06

>  <r_epik_Ionization_Penalty_Charging>  (150) 
0

>  <r_epik_Ionization_Penalty_Neutral>  (150) 
4.36256e-06

>  <r_epik_State_Penalty>  (150) 
-0

>  <r_epik_Charging_Adjusted_Penalty>  (150) 
0

>  <i_epik_Tot_Q>  (150) 
0

>  <i_epik_Tot_abs_Q>  (150) 
2

>  <s_epik_Chemistry_Notes>  (150) 
This compound has an ester and may undergo hydrolysis at high or low pH. This compound contains an acetal/aminal-like group ( X-CH(R)-Y where X, Y are N, S, or O) that may be acid/base labile, releasing an aldehyde.

>  <s_lp_Force_Field>  (150) 
OPLS3e

>  <r_lp_Energy>  (150) 
338.187

>  <b_lp_Chiralities_Consistent>  (150) 
1

>  <s_lp_Variant>  (150) 
99:0-2

>  <s_i_glide_gridfile>  (150) 
pfpi4k_grid

>  <i_i_glide_lignum>  (150) 
56

>  <i_i_glide_rotatable_bonds>  (150) 
14

>  <r_i_docking_score>  (150) 
-0.957471

>  <r_i_glide_ligand_efficiency>  (150) 
-0.0165081

>  <r_i_glide_ligand_efficiency_sa>  (150) 
-0.0639009

>  <r_i_glide_ligand_efficiency_ln>  (150) 
-0.189207

>  <r_i_glide_gscore>  (150) 
-0.957471

>  <r_i_glide_lipo>  (150) 
-0.147815

>  <r_i_glide_hbond>  (150) 
0

>  <r_i_glide_metal>  (150) 
-0

>  <r_i_glide_rewards>  (150) 
-0.00508567

>  <r_i_glide_evdw>  (150) 
-30.0907

>  <r_i_glide_ecoul>  (150) 
1.43172

>  <r_i_glide_erotb>  (150) 
0.0608294

>  <r_i_glide_esite>  (150) 
-0.063542

>  <r_i_glide_emodel>  (150) 
-25.2101

>  <r_i_glide_energy>  (150) 
-28.659

>  <r_i_glide_einternal>  (150) 
3.47631

>  <r_i_glide_intrahb_reward>  (150) 
-0

>  <i_i_glide_confnum>  (150) 
4

>  <i_i_glide_posenum>  (150) 
25

>  <r_i_glide_eff_state_penalty>  (150) 
0

>  <ligand_id>  (150) 
99

>  <original_smiles>  (150) 
CC(=O)C1(O)C(O)C(O)C2(C)C(O)CC3C4CC=C(C5(C(C)O)OC(C6C7C(CO)OC(=O)C7C(O)C7(C(O)OC(C)(O)CC37O)C(OC(C)[S+]6[O-])O5)C4(C)C)C12O

>  <smiles>  (150) 
[H]OC([H])([H])C1([H])OC(=O)C2([H])C([H])(O[H])C34C5([H])OC6(C([H])(O[H])C([H])([H])[H])OC([H])(C([H])(S(=O)C([H])(C([H])([H])[H])O5)C12[H])C(C([H])([H])[H])(C([H])([H])[H])C1([H])C([H])([H])C([H])=C6C2(O[H])C(O[H])(C(=O)C([H])([H])[H])C([H])(O[H])C([H])(O[H])C2(C([H])([H])[H])C([H])(O[H])C([H])([H])C1([H])C3(O[H])C([H])([H])C(O[H])(C([H])([H])[H])OC4([H])O[H]

$$$$
102:0:0
     RDKit          3D

 70 76  0  0  1  0  0  0  0  0999 V2000
    0.2065   -6.7273    9.3245 C   0  0  0  0  0  0  0  0  0  0  0  0
   -0.1458   -7.1726    8.1101 C   0  0  0  0  0  0  0  0  0  0  0  0
    0.0179   -6.3984    6.8071 C   0  0  0  0  0  0  0  0  0  0  0  0
    0.7778   -7.1713    5.6985 C   0  0  2  0  0  0  0  0  0  0  0  0
    0.2354   -8.6108    5.4055 C   0  0  1  0  0  0  0  0  0  0  0  0
   -1.0670   -8.6590    4.8226 O   0  0  0  0  0  0  0  0  0  0  0  0
    1.3324   -9.2544    4.5377 C   0  0  2  0  0  0  0  0  0  0  0  0
    1.4484   -8.5980    3.2711 O   0  0  0  0  0  0  0  0  0  0  0  0
    0.5051   -8.9772    2.2797 C   0  0  0  0  0  0  0  0  0  0  0  0
    1.7476  -10.7696    4.5113 C   0  0  0  0  0  0  0  0  0  0  0  0
    3.1504  -10.8777    5.2064 C   0  0  2  0  0  0  0  0  0  0  0  0
    3.4387  -12.1762    5.6931 O   0  0  0  0  0  0  0  0  0  0  0  0
    2.8420   -9.9173    6.3385 C   0  0  1  0  0  0  0  0  0  0  0  0
    3.8578   -9.7671    7.3037 O   0  0  0  0  0  0  0  0  0  0  0  0
    2.4721   -8.7614    5.4006 C   0  0  2  0  0  0  0  0  0  0  0  0
    2.3215   -7.3575    5.9178 C   0  0  2  0  0  0  0  0  0  0  0  0
    2.6863   -7.2498    7.2846 O   0  0  0  0  0  0  0  0  0  0  0  0
    3.3541   -6.5326    5.0527 C   0  0  1  0  0  0  0  0  0  0  0  0
    4.0613   -5.1322    5.9963 S   0  0  0  0  0  0  0  0  0  0  0  0
    3.4210   -3.8748    5.4500 O   0  0  0  0  0  0  0  0  0  0  0  0
    5.3975   -5.5950    4.8245 C   0  0  0  0  0  0  0  0  0  0  0  0
    4.8345   -7.0599    4.6206 C   0  0  2  0  0  0  0  0  0  0  0  0
    5.0055   -7.3189    3.2265 O   0  0  0  0  0  0  0  0  0  0  0  0
    6.3650   -7.5950    2.9702 C   0  0  2  0  0  0  0  0  0  0  0  0
    6.9635   -6.4255    2.4776 O   0  0  0  0  0  0  0  0  0  0  0  0
    8.3547   -6.3910    2.2108 C   0  0  0  0  0  0  0  0  0  0  0  0
    6.4668   -8.7459    1.9809 C   0  0  0  0  0  0  0  0  0  0  0  0
    5.7540   -9.8641    1.9763 C   0  0  0  0  0  0  0  0  0  0  0  0
    4.6101  -10.2533    2.8538 C   0  0  1  0  0  0  0  0  0  0  0  0
    3.4701  -10.2680    2.0725 O   0  0  0  0  0  0  0  0  0  0  0  0
    4.9462  -11.4374    3.5510 O   0  0  0  0  0  0  0  0  0  0  0  0
    4.4310  -10.3904    4.3760 C   0  0  2  0  0  0  0  0  0  0  0  0
    5.3737   -9.6020    5.1573 O   0  0  0  0  0  0  0  0  0  0  0  0
    5.7275   -8.1854    5.2443 C   0  0  2  0  0  0  0  0  0  0  0  0
    6.0101   -7.8439    6.5860 O   0  0  0  0  0  0  0  0  0  0  0  0
    6.9831   -7.9949    4.3651 C   0  0  1  0  0  0  0  0  0  0  0  0
    7.7233   -9.2198    4.3343 O   0  0  0  0  0  0  0  0  0  0  0  0
    9.0783   -9.1551    3.9252 C   0  0  0  0  0  0  0  0  0  0  0  0
    0.6400   -5.7463    9.4502 H   0  0  0  0  0  0  0  0  0  0  0  0
    0.0706   -7.3437   10.2018 H   0  0  0  0  0  0  0  0  0  0  0  0
   -0.5778   -8.1618    8.0497 H   0  0  0  0  0  0  0  0  0  0  0  0
   -0.9696   -6.1311    6.4403 H   0  0  0  0  0  0  0  0  0  0  0  0
    0.5214   -5.4505    7.0001 H   0  0  0  0  0  0  0  0  0  0  0  0
    0.6524   -6.5906    4.7795 H   0  0  0  0  0  0  0  0  0  0  0  0
    0.1437   -9.2018    6.3147 H   0  0  0  0  0  0  0  0  0  0  0  0
   -1.4063   -9.5300    4.8754 H   0  0  0  0  0  0  0  0  0  0  0  0
    0.8844   -8.6334    1.3211 H   0  0  0  0  0  0  0  0  0  0  0  0
   -0.4645   -8.5070    2.4297 H   0  0  0  0  0  0  0  0  0  0  0  0
    0.3601  -10.0553    2.2204 H   0  0  0  0  0  0  0  0  0  0  0  0
    1.0105  -11.3448    5.0685 H   0  0  0  0  0  0  0  0  0  0  0  0
    1.7276  -11.2209    3.5223 H   0  0  0  0  0  0  0  0  0  0  0  0
    2.7297  -12.4643    6.2638 H   0  0  0  0  0  0  0  0  0  0  0  0
    1.9705  -10.2509    6.9012 H   0  0  0  0  0  0  0  0  0  0  0  0
    3.9060  -10.5923    7.7763 H   0  0  0  0  0  0  0  0  0  0  0  0
    3.1561   -8.6359    4.5988 H   0  0  0  0  0  0  0  0  0  0  0  0
    2.2727   -7.9533    7.7688 H   0  0  0  0  0  0  0  0  0  0  0  0
    2.9007   -6.0786    4.1723 H   0  0  0  0  0  0  0  0  0  0  0  0
    5.2750   -4.9487    3.9517 H   0  0  0  0  0  0  0  0  0  0  0  0
    6.3713   -5.4698    5.3209 H   0  0  0  0  0  0  0  0  0  0  0  0
    8.6239   -5.4183    1.7976 H   0  0  0  0  0  0  0  0  0  0  0  0
    8.6221   -7.1653    1.4934 H   0  0  0  0  0  0  0  0  0  0  0  0
    8.9218   -6.5288    3.1341 H   0  0  0  0  0  0  0  0  0  0  0  0
    7.2537   -8.7073    1.2362 H   0  0  0  0  0  0  0  0  0  0  0  0
    6.0244  -10.6381    1.2620 H   0  0  0  0  0  0  0  0  0  0  0  0
    3.6180  -10.9393    1.3933 H   0  0  0  0  0  0  0  0  0  0  0  0
    5.2168   -7.9726    7.1001 H   0  0  0  0  0  0  0  0  0  0  0  0
    7.5823   -7.1923    4.7965 H   0  0  0  0  0  0  0  0  0  0  0  0
    9.5353  -10.1528    4.0225 H   0  0  0  0  0  0  0  0  0  0  0  0
    9.6210   -8.4941    4.5979 H   0  0  0  0  0  0  0  0  0  0  0  0
    9.1684   -8.7862    2.9154 H   0  0  0  0  0  0  0  0  0  0  0  0
  1  2  2  0
  1 39  1  0
  1 40  1  0
  2  3  1  0
  2 41  1  0
  3  4  1  0
  3 42  1  0
  3 43  1  0
  4 16  1  0
  4  5  1  0
  4 44  1  6
  5  6  1  0
  5  7  1  0
  5 45  1  1
  6 46  1  0
  7 15  1  0
  7  8  1  6
  7 10  1  0
  8  9  1  0
  9 47  1  0
  9 48  1  0
  9 49  1  0
 10 11  1  0
 10 50  1  0
 10 51  1  0
 11 32  1  0
 11 12  1  1
 11 13  1  0
 12 52  1  0
 13 14  1  0
 13 15  1  0
 13 53  1  1
 14 54  1  0
 15 16  1  0
 15 55  1  6
 16 17  1  1
 16 18  1  0
 17 56  1  0
 18 22  1  0
 18 19  1  0
 18 57  1  6
 19 20  2  0
 19 21  1  6
 21 22  1  0
 21 58  1  0
 21 59  1  0
 22 34  1  0
 22 23  1  6
 23 24  1  0
 24 36  1  0
 24 25  1  6
 24 27  1  0
 25 26  1  0
 26 60  1  0
 26 61  1  0
 26 62  1  0
 27 28  2  3
 27 63  1  0
 28 29  1  0
 28 64  1  0
 29 32  1  0
 29 30  1  6
 29 31  1  0
 30 65  1  0
 32 31  1  1
 32 33  1  0
 33 34  1  0
 34 35  1  1
 34 36  1  0
 35 66  1  0
 36 37  1  0
 36 67  1  1
 37 38  1  0
 38 68  1  0
 38 69  1  0
 38 70  1  0
M  END
>  <i_m_ct_stereo_status>  (151) 
1

>  <s_m_source_file>  (151) 
/var/tmp/pbs.5075288.sched01/tmpd529dnjr/198klec4xt1.sdf

>  <i_m_source_file_index>  (151) 
59

>  <i_lp_mmshare_version>  (151) 
48012

>  <i_f3d_flags>  (151) 
0

>  <s_epik_input>  (151) 
W0NIMl09W0NIXVtDSDJdW0NAQEhdMVtDQEBIXShbT0hdKVtDQEBdKE9bQ0gzXSkoW0NASF0yW0NAQF0xKFtPSF0pW0NASF0oW0NAXTM0NSlbUytdKFtPLV0pW0NIMl0zKVtDSDJdW0NAXShbT0hdKShbQ0BIXTJbT0hdKVtDQF02N1tDQEBdKE82KShbT0hdKS9bQ0hdPVtDSF1cW0NAXShPNCkoT1tDSDNdKVtDQEBIXShbQ0BAXTUoTzcpW09IXSlPW0NIM10=

>  <s_epik_cmdline>  (151) 
J2VwaWtfcHl0aG9uJywgJy1waHQnLCAnMi4wJywgJy1waCcsICc3LjAnLCAnLXRuJywgJzgnLCAnLW1hJywgJzIwMCcsICctaW1hZScsICc8aW5maWxlLm1hZT4nLCAnLW9tYWUnLCAnPG91dGZpbGUubWFlPic=

>  <r_epik_Ionization_Penalty>  (151) 
0.000927552

>  <r_epik_Ionization_Penalty_Charging>  (151) 
0

>  <r_epik_Ionization_Penalty_Neutral>  (151) 
0.000927552

>  <r_epik_State_Penalty>  (151) 
0.000572693

>  <r_epik_Charging_Adjusted_Penalty>  (151) 
0.000572693

>  <i_epik_Tot_Q>  (151) 
0

>  <i_epik_Tot_abs_Q>  (151) 
2

>  <s_lp_Force_Field>  (151) 
OPLS3e

>  <r_lp_Energy>  (151) 
145.693

>  <b_lp_Chiralities_Consistent>  (151) 
1

>  <s_lp_Variant>  (151) 
102:0-1

>  <s_i_glide_gridfile>  (151) 
pfpi4k_grid

>  <i_i_glide_lignum>  (151) 
59

>  <i_i_glide_rotatable_bonds>  (151) 
11

>  <r_i_docking_score>  (151) 
-3.43164

>  <r_i_glide_ligand_efficiency>  (151) 
-0.0903064

>  <r_i_glide_ligand_efficiency_sa>  (151) 
-0.303608

>  <r_i_glide_ligand_efficiency_ln>  (151) 
-0.739963

>  <r_i_glide_gscore>  (151) 
-3.43164

>  <r_i_glide_lipo>  (151) 
-0.0722574

>  <r_i_glide_hbond>  (151) 
0

>  <r_i_glide_metal>  (151) 
-0

>  <r_i_glide_rewards>  (151) 
-0.518142

>  <r_i_glide_evdw>  (151) 
-17.7495

>  <r_i_glide_ecoul>  (151) 
-13.0208

>  <r_i_glide_erotb>  (151) 
0.0521778

>  <r_i_glide_esite>  (151) 
-0.0528307

>  <r_i_glide_emodel>  (151) 
-40.1068

>  <r_i_glide_energy>  (151) 
-30.7702

>  <r_i_glide_einternal>  (151) 
8.386

>  <r_i_glide_intrahb_reward>  (151) 
-0.5

>  <i_i_glide_confnum>  (151) 
4

>  <i_i_glide_posenum>  (151) 
17

>  <r_i_glide_eff_state_penalty>  (151) 
0

>  <ligand_id>  (151) 
102

>  <original_smiles>  (151) 
C=CCC1C(O)C2(OC)CC3(O)C(O)C2C1(O)C1[S+]([O-])CC12OC1(OC)C=CC4(O)OC43OC2(O)C1OC

>  <smiles>  (151) 
[H]OC12OC13OC1(O[H])C([H])(OC([H])([H])[H])C(OC([H])([H])[H])(OC14C([H])([H])S(=O)C4([H])C1(O[H])C([H])(C([H])([H])C([H])=C([H])[H])C([H])(O[H])C4(OC([H])([H])[H])C([H])([H])C3(O[H])C([H])(O[H])C41[H])C([H])=C2[H]

$$$$
102:0:1
     RDKit          3D

 70 76  0  0  1  0  0  0  0  0999 V2000
   -1.3624   -4.4115    6.8810 C   0  0  0  0  0  0  0  0  0  0  0  0
   -1.0182   -5.6281    6.4304 C   0  0  0  0  0  0  0  0  0  0  0  0
    0.1780   -6.4183    6.9107 C   0  0  0  0  0  0  0  0  0  0  0  0
    0.9077   -7.1634    5.7645 C   0  0  2  0  0  0  0  0  0  0  0  0
    0.3351   -8.6066    5.5147 C   0  0  1  0  0  0  0  0  0  0  0  0
   -0.9670   -8.6554    4.9730 O   0  0  0  0  0  0  0  0  0  0  0  0
    1.4126   -9.2611    4.6180 C   0  0  2  0  0  0  0  0  0  0  0  0
    1.4993   -8.6085    3.3479 O   0  0  0  0  0  0  0  0  0  0  0  0
    0.5329   -8.9832    2.3797 C   0  0  0  0  0  0  0  0  0  0  0  0
    1.8211  -10.7848    4.5647 C   0  0  0  0  0  0  0  0  0  0  0  0
    3.2411  -10.9078    5.2225 C   0  0  2  0  0  0  0  0  0  0  0  0
    3.4627  -12.2224    5.6869 O   0  0  0  0  0  0  0  0  0  0  0  0
    2.9738   -9.9472    6.3616 C   0  0  1  0  0  0  0  0  0  0  0  0
    4.0213   -9.8037    7.2943 O   0  0  0  0  0  0  0  0  0  0  0  0
    2.5849   -8.7752    5.4431 C   0  0  2  0  0  0  0  0  0  0  0  0
    2.4458   -7.3763    5.9640 C   0  0  2  0  0  0  0  0  0  0  0  0
    2.8099   -7.2744    7.3390 O   0  0  0  0  0  0  0  0  0  0  0  0
    3.4701   -6.5699    5.0776 C   0  0  1  0  0  0  0  0  0  0  0  0
    4.2214   -5.1788    6.0177 S   0  0  0  0  0  0  0  0  0  0  0  0
    3.5779   -3.9182    5.4764 O   0  0  0  0  0  0  0  0  0  0  0  0
    5.5108   -5.6377    4.7942 C   0  0  0  0  0  0  0  0  0  0  0  0
    4.9330   -7.0944    4.6061 C   0  0  2  0  0  0  0  0  0  0  0  0
    5.0691   -7.3425    3.2001 O   0  0  0  0  0  0  0  0  0  0  0  0
    6.4163   -7.6397    2.9036 C   0  0  2  0  0  0  0  0  0  0  0  0
    7.0059   -6.4756    2.3758 O   0  0  0  0  0  0  0  0  0  0  0  0
    8.3955   -6.4518    2.1025 C   0  0  0  0  0  0  0  0  0  0  0  0
    6.4870   -8.8030    1.9053 C   0  0  0  0  0  0  0  0  0  0  0  0
    5.7702   -9.9055    1.9201 C   0  0  0  0  0  0  0  0  0  0  0  0
    4.6421  -10.2891    2.8265 C   0  0  1  0  0  0  0  0  0  0  0  0
    3.4786  -10.2846    2.0787 O   0  0  0  0  0  0  0  0  0  0  0  0
    4.9798  -11.4748    3.5146 O   0  0  0  0  0  0  0  0  0  0  0  0
    4.5143  -10.4300    4.3698 C   0  0  2  0  0  0  0  0  0  0  0  0
    5.4849   -9.6366    5.1112 O   0  0  0  0  0  0  0  0  0  0  0  0
    5.8343   -8.2272    5.1876 C   0  0  2  0  0  0  0  0  0  0  0  0
    6.1641   -7.8940    6.5246 O   0  0  0  0  0  0  0  0  0  0  0  0
    7.0680   -8.0401    4.2831 C   0  0  1  0  0  0  0  0  0  0  0  0
    7.8059   -9.2615    4.2201 O   0  0  0  0  0  0  0  0  0  0  0  0
    9.1938   -9.1816    3.9657 C   0  0  0  0  0  0  0  0  0  0  0  0
   -0.7741   -3.9025    7.6309 H   0  0  0  0  0  0  0  0  0  0  0  0
   -2.2391   -3.9095    6.4985 H   0  0  0  0  0  0  0  0  0  0  0  0
   -1.6310   -6.1010    5.6756 H   0  0  0  0  0  0  0  0  0  0  0  0
    0.8366   -5.7124    7.4161 H   0  0  0  0  0  0  0  0  0  0  0  0
   -0.1592   -7.1268    7.6687 H   0  0  0  0  0  0  0  0  0  0  0  0
    0.7758   -6.5949    4.8417 H   0  0  0  0  0  0  0  0  0  0  0  0
    0.2895   -9.1461    6.4643 H   0  0  0  0  0  0  0  0  0  0  0  0
   -1.2899   -9.5427    5.0205 H   0  0  0  0  0  0  0  0  0  0  0  0
    0.8837   -8.6388    1.4105 H   0  0  0  0  0  0  0  0  0  0  0  0
   -0.4312   -8.5108    2.5551 H   0  0  0  0  0  0  0  0  0  0  0  0
    0.3811  -10.0603    2.3128 H   0  0  0  0  0  0  0  0  0  0  0  0
    1.0903  -11.3616    5.1375 H   0  0  0  0  0  0  0  0  0  0  0  0
    1.7724  -11.2254    3.5713 H   0  0  0  0  0  0  0  0  0  0  0  0
    2.7637  -12.4949    6.2653 H   0  0  0  0  0  0  0  0  0  0  0  0
    2.1086  -10.2549    6.9536 H   0  0  0  0  0  0  0  0  0  0  0  0
    4.0737  -10.6278    7.7658 H   0  0  0  0  0  0  0  0  0  0  0  0
    3.2491   -8.6534    4.6216 H   0  0  0  0  0  0  0  0  0  0  0  0
    2.4716   -8.0296    7.8046 H   0  0  0  0  0  0  0  0  0  0  0  0
    3.0080   -6.0986    4.2087 H   0  0  0  0  0  0  0  0  0  0  0  0
    5.3803   -4.9846    3.9240 H   0  0  0  0  0  0  0  0  0  0  0  0
    6.4946   -5.5155    5.2603 H   0  0  0  0  0  0  0  0  0  0  0  0
    8.6509   -5.5110    1.6076 H   0  0  0  0  0  0  0  0  0  0  0  0
    8.6571   -7.2598    1.4267 H   0  0  0  0  0  0  0  0  0  0  0  0
    8.9725   -6.5227    3.0256 H   0  0  0  0  0  0  0  0  0  0  0  0
    7.2434   -8.7656    1.1405 H   0  0  0  0  0  0  0  0  0  0  0  0
    6.0127  -10.6691    1.1979 H   0  0  0  0  0  0  0  0  0  0  0  0
    3.6150  -10.9574    1.3844 H   0  0  0  0  0  0  0  0  0  0  0  0
    5.3879   -8.0234    7.0685 H   0  0  0  0  0  0  0  0  0  0  0  0
    7.6808   -7.2345    4.6990 H   0  0  0  0  0  0  0  0  0  0  0  0
    9.6430  -10.1815    4.0101 H   0  0  0  0  0  0  0  0  0  0  0  0
    9.6719   -8.5694    4.7279 H   0  0  0  0  0  0  0  0  0  0  0  0
    9.3874   -8.7430    2.9828 H   0  0  0  0  0  0  0  0  0  0  0  0
  1  2  2  0
  1 39  1  0
  1 40  1  0
  2  3  1  0
  2 41  1  0
  3  4  1  0
  3 42  1  0
  3 43  1  0
  4 16  1  0
  4  5  1  0
  4 44  1  6
  5  6  1  0
  5  7  1  0
  5 45  1  1
  6 46  1  0
  7 15  1  0
  7  8  1  6
  7 10  1  0
  8  9  1  0
  9 47  1  0
  9 48  1  0
  9 49  1  0
 10 11  1  0
 10 50  1  0
 10 51  1  0
 11 32  1  0
 11 12  1  1
 11 13  1  0
 12 52  1  0
 13 14  1  0
 13 15  1  0
 13 53  1  1
 14 54  1  0
 15 16  1  0
 15 55  1  6
 16 17  1  1
 16 18  1  0
 17 56  1  0
 18 22  1  0
 18 19  1  0
 18 57  1  6
 19 20  2  0
 19 21  1  6
 21 22  1  0
 21 58  1  0
 21 59  1  0
 22 34  1  0
 22 23  1  6
 23 24  1  0
 24 36  1  0
 24 25  1  6
 24 27  1  0
 25 26  1  0
 26 60  1  0
 26 61  1  0
 26 62  1  0
 27 28  2  3
 27 63  1  0
 28 29  1  0
 28 64  1  0
 29 32  1  0
 29 30  1  6
 29 31  1  0
 30 65  1  0
 32 31  1  6
 32 33  1  0
 33 34  1  0
 34 35  1  1
 34 36  1  0
 35 66  1  0
 36 37  1  0
 36 67  1  1
 37 38  1  0
 38 68  1  0
 38 69  1  0
 38 70  1  0
M  END
>  <i_m_ct_stereo_status>  (152) 
1

>  <s_m_source_file>  (152) 
/var/tmp/pbs.5075288.sched01/tmpd529dnjr/198klec4xt1.sdf

>  <i_m_source_file_index>  (152) 
59

>  <i_lp_mmshare_version>  (152) 
48012

>  <i_f3d_flags>  (152) 
0

>  <s_epik_input>  (152) 
W0NIMl09W0NIXVtDSDJdW0NAQEhdMVtDQEBIXShbT0hdKVtDQEBdKE9bQ0gzXSkoW0NASF0yW0NAQF0xKFtPSF0pW0NASF0oW0NAXTM0NSlbUytdKFtPLV0pW0NIMl0zKVtDSDJdW0NAXShbT0hdKShbQ0BIXTJbT0hdKVtDQF02N1tDQEBdKE82KShbT0hdKS9bQ0hdPVtDSF1cW0NAXShPNCkoT1tDSDNdKVtDQEBIXShbQ0BAXTUoTzcpW09IXSlPW0NIM10=

>  <s_epik_cmdline>  (152) 
J2VwaWtfcHl0aG9uJywgJy1waHQnLCAnMi4wJywgJy1waCcsICc3LjAnLCAnLXRuJywgJzgnLCAnLW1hJywgJzIwMCcsICctaW1hZScsICc8aW5maWxlLm1hZT4nLCAnLW9tYWUnLCAnPG91dGZpbGUubWFlPic=

>  <r_epik_Ionization_Penalty>  (152) 
0.000927552

>  <r_epik_Ionization_Penalty_Charging>  (152) 
0

>  <r_epik_Ionization_Penalty_Neutral>  (152) 
0.000927552

>  <r_epik_State_Penalty>  (152) 
0.000572693

>  <r_epik_Charging_Adjusted_Penalty>  (152) 
0.000572693

>  <i_epik_Tot_Q>  (152) 
0

>  <i_epik_Tot_abs_Q>  (152) 
2

>  <s_lp_Force_Field>  (152) 
OPLS3e

>  <r_lp_Energy>  (152) 
145.693

>  <b_lp_Chiralities_Consistent>  (152) 
1

>  <s_lp_Variant>  (152) 
102:0-1

>  <s_i_glide_gridfile>  (152) 
pfpi4k_grid

>  <i_i_glide_lignum>  (152) 
59

>  <i_i_glide_rotatable_bonds>  (152) 
11

>  <r_i_docking_score>  (152) 
-3.40083

>  <r_i_glide_ligand_efficiency>  (152) 
-0.0894956

>  <r_i_glide_ligand_efficiency_sa>  (152) 
-0.300882

>  <r_i_glide_ligand_efficiency_ln>  (152) 
-0.73332

>  <r_i_glide_gscore>  (152) 
-3.40083

>  <r_i_glide_lipo>  (152) 
-0.159864

>  <r_i_glide_hbond>  (152) 
0

>  <r_i_glide_metal>  (152) 
-0

>  <r_i_glide_rewards>  (152) 
-0.522223

>  <r_i_glide_evdw>  (152) 
-18.2494

>  <r_i_glide_ecoul>  (152) 
-12.0221

>  <r_i_glide_erotb>  (152) 
0.0521778

>  <r_i_glide_esite>  (152) 
-0.0551382

>  <r_i_glide_emodel>  (152) 
-39.4981

>  <r_i_glide_energy>  (152) 
-30.2715

>  <r_i_glide_einternal>  (152) 
8.39877

>  <r_i_glide_intrahb_reward>  (152) 
-0.5

>  <i_i_glide_confnum>  (152) 
4

>  <i_i_glide_posenum>  (152) 
16

>  <r_i_glide_eff_state_penalty>  (152) 
0

>  <ligand_id>  (152) 
102

>  <original_smiles>  (152) 
C=CCC1C(O)C2(OC)CC3(O)C(O)C2C1(O)C1[S+]([O-])CC12OC1(OC)C=CC4(O)OC43OC2(O)C1OC

>  <smiles>  (152) 
[H]OC12OC13OC1(O[H])C([H])(OC([H])([H])[H])C(OC([H])([H])[H])(OC14C([H])([H])S(=O)C4([H])C1(O[H])C([H])(C([H])([H])C([H])=C([H])[H])C([H])(O[H])C4(OC([H])([H])[H])C([H])([H])C3(O[H])C([H])(O[H])C41[H])C([H])=C2[H]

$$$$
102:0:2
     RDKit          3D

 70 76  0  0  1  0  0  0  0  0999 V2000
    2.6121    6.3535    3.5250 C   0  0  0  0  0  0  0  0  0  0  0  0
    2.2869    5.2587    2.8238 C   0  0  0  0  0  0  0  0  0  0  0  0
    2.9280    3.9010    3.0210 C   0  0  0  0  0  0  0  0  0  0  0  0
    1.9308    2.7836    3.4448 C   0  0  2  0  0  0  0  0  0  0  0  0
    0.9054    3.2379    4.5431 C   0  0  1  0  0  0  0  0  0  0  0  0
   -0.0535    4.1969    4.1439 O   0  0  0  0  0  0  0  0  0  0  0  0
    0.2969    1.9080    5.0373 C   0  0  2  0  0  0  0  0  0  0  0  0
   -0.4657    1.1953    4.0445 O   0  0  0  0  0  0  0  0  0  0  0  0
   -1.5526    1.8927    3.4453 C   0  0  0  0  0  0  0  0  0  0  0  0
   -0.2520    1.6252    6.4752 C   0  0  0  0  0  0  0  0  0  0  0  0
    0.7747    0.6373    7.1609 C   0  0  2  0  0  0  0  0  0  0  0  0
    0.6958    0.8004    8.5691 O   0  0  0  0  0  0  0  0  0  0  0  0
    2.0287    1.3313    6.6528 C   0  0  1  0  0  0  0  0  0  0  0  0
    3.2383    0.7742    7.1513 O   0  0  0  0  0  0  0  0  0  0  0  0
    1.6252    1.1997    5.1726 C   0  0  2  0  0  0  0  0  0  0  0  0
    2.5841    1.4738    4.0467 C   0  0  2  0  0  0  0  0  0  0  0  0
    3.8878    1.7362    4.5429 O   0  0  0  0  0  0  0  0  0  0  0  0
    2.5832    0.1220    3.2232 C   0  0  1  0  0  0  0  0  0  0  0  0
    4.2253   -0.2560    2.5121 S   0  0  0  0  0  0  0  0  0  0  0  0
    4.1448    0.0269    1.0128 O   0  0  0  0  0  0  0  0  0  0  0  0
    3.5152   -1.9101    2.7725 C   0  0  0  0  0  0  0  0  0  0  0  0
    2.5350   -1.3722    3.8757 C   0  0  2  0  0  0  0  0  0  0  0  0
    1.3160   -2.0900    3.6733 O   0  0  0  0  0  0  0  0  0  0  0  0
    1.4684   -3.4074    4.1467 C   0  0  2  0  0  0  0  0  0  0  0  0
    1.7576   -4.2409    3.0516 O   0  0  0  0  0  0  0  0  0  0  0  0
    2.0900   -5.6069    3.2612 C   0  0  0  0  0  0  0  0  0  0  0  0
    0.1877   -3.8518    4.8419 C   0  0  0  0  0  0  0  0  0  0  0  0
   -0.5426   -3.1181    5.6985 C   0  0  0  0  0  0  0  0  0  0  0  0
   -0.3910   -1.7214    6.1160 C   0  0  1  0  0  0  0  0  0  0  0  0
   -1.4589   -0.9736    5.6003 O   0  0  0  0  0  0  0  0  0  0  0  0
   -0.1659   -1.6649    7.5273 O   0  0  0  0  0  0  0  0  0  0  0  0
    0.7713   -0.8954    6.7307 C   0  0  2  0  0  0  0  0  0  0  0  0
    2.1174   -1.4524    6.5274 O   0  0  0  0  0  0  0  0  0  0  0  0
    2.8765   -1.8387    5.3462 C   0  0  2  0  0  0  0  0  0  0  0  0
    4.2421   -1.5716    5.6004 O   0  0  0  0  0  0  0  0  0  0  0  0
    2.6634   -3.3577    5.1676 C   0  0  1  0  0  0  0  0  0  0  0  0
    2.3713   -3.9809    6.4311 O   0  0  0  0  0  0  0  0  0  0  0  0
    2.5122   -5.3999    6.4930 C   0  0  0  0  0  0  0  0  0  0  0  0
    3.3925    6.3321    4.2726 H   0  0  0  0  0  0  0  0  0  0  0  0
    2.0911    7.2858    3.3555 H   0  0  0  0  0  0  0  0  0  0  0  0
    1.5165    5.3322    2.0799 H   0  0  0  0  0  0  0  0  0  0  0  0
    3.4121    3.6268    2.0841 H   0  0  0  0  0  0  0  0  0  0  0  0
    3.7219    4.0357    3.7587 H   0  0  0  0  0  0  0  0  0  0  0  0
    1.3548    2.5030    2.5594 H   0  0  0  0  0  0  0  0  0  0  0  0
    1.4507    3.7228    5.3544 H   0  0  0  0  0  0  0  0  0  0  0  0
   -0.1065    4.1650    3.1956 H   0  0  0  0  0  0  0  0  0  0  0  0
   -2.1807    1.2017    2.9015 H   0  0  0  0  0  0  0  0  0  0  0  0
   -1.2058    2.5986    2.6908 H   0  0  0  0  0  0  0  0  0  0  0  0
   -2.1627    2.4176    4.1819 H   0  0  0  0  0  0  0  0  0  0  0  0
   -0.2960    2.5570    7.0369 H   0  0  0  0  0  0  0  0  0  0  0  0
   -1.2791    1.2671    6.4924 H   0  0  0  0  0  0  0  0  0  0  0  0
    1.5760    0.8167    8.9077 H   0  0  0  0  0  0  0  0  0  0  0  0
    2.0465    2.3720    6.9701 H   0  0  0  0  0  0  0  0  0  0  0  0
    3.2430   -0.1552    6.9717 H   0  0  0  0  0  0  0  0  0  0  0  0
    1.2569    0.2385    4.9238 H   0  0  0  0  0  0  0  0  0  0  0  0
    4.4050    2.0855    3.8283 H   0  0  0  0  0  0  0  0  0  0  0  0
    1.8855    0.1299    2.3952 H   0  0  0  0  0  0  0  0  0  0  0  0
    3.0341   -2.2254    1.8578 H   0  0  0  0  0  0  0  0  0  0  0  0
    4.3181   -2.5785    3.0763 H   0  0  0  0  0  0  0  0  0  0  0  0
    2.2739   -6.0824    2.2931 H   0  0  0  0  0  0  0  0  0  0  0  0
    1.3024   -6.1504    3.7891 H   0  0  0  0  0  0  0  0  0  0  0  0
    3.0081   -5.6978    3.8392 H   0  0  0  0  0  0  0  0  0  0  0  0
   -0.1231   -4.8768    4.7001 H   0  0  0  0  0  0  0  0  0  0  0  0
   -1.3749   -3.6495    6.1734 H   0  0  0  0  0  0  0  0  0  0  0  0
   -1.1086   -0.3827    4.9458 H   0  0  0  0  0  0  0  0  0  0  0  0
    4.4099   -0.6425    5.5303 H   0  0  0  0  0  0  0  0  0  0  0  0
    3.5748   -3.7752    4.7324 H   0  0  0  0  0  0  0  0  0  0  0  0
    2.3037   -5.7649    7.5095 H   0  0  0  0  0  0  0  0  0  0  0  0
    3.5461   -5.6706    6.2665 H   0  0  0  0  0  0  0  0  0  0  0  0
    1.8418   -5.8987    5.7974 H   0  0  0  0  0  0  0  0  0  0  0  0
  1  2  2  0
  1 39  1  0
  1 40  1  0
  2  3  1  0
  2 41  1  0
  3  4  1  0
  3 42  1  0
  3 43  1  0
  4 16  1  0
  4  5  1  0
  4 44  1  6
  5  6  1  0
  5  7  1  0
  5 45  1  1
  6 46  1  0
  7 15  1  0
  7  8  1  6
  7 10  1  0
  8  9  1  0
  9 47  1  0
  9 48  1  0
  9 49  1  0
 10 11  1  0
 10 50  1  0
 10 51  1  0
 11 32  1  0
 11 12  1  1
 11 13  1  0
 12 52  1  0
 13 14  1  0
 13 15  1  0
 13 53  1  1
 14 54  1  0
 15 16  1  0
 15 55  1  1
 16 17  1  1
 16 18  1  0
 17 56  1  0
 18 22  1  0
 18 19  1  0
 18 57  1  6
 19 20  2  0
 19 21  1  6
 21 22  1  0
 21 58  1  0
 21 59  1  0
 22 34  1  0
 22 23  1  6
 23 24  1  0
 24 36  1  0
 24 25  1  6
 24 27  1  0
 25 26  1  0
 26 60  1  0
 26 61  1  0
 26 62  1  0
 27 28  2  3
 27 63  1  0
 28 29  1  0
 28 64  1  0
 29 32  1  0
 29 30  1  1
 29 31  1  0
 30 65  1  0
 32 31  1  1
 32 33  1  0
 33 34  1  0
 34 35  1  1
 34 36  1  0
 35 66  1  0
 36 37  1  0
 36 67  1  6
 37 38  1  0
 38 68  1  0
 38 69  1  0
 38 70  1  0
M  END
>  <i_m_ct_stereo_status>  (153) 
1

>  <s_m_source_file>  (153) 
/var/tmp/pbs.5075288.sched01/tmpd529dnjr/198klec4xt1.sdf

>  <i_m_source_file_index>  (153) 
59

>  <i_lp_mmshare_version>  (153) 
48012

>  <i_f3d_flags>  (153) 
0

>  <s_epik_input>  (153) 
W0NIMl09W0NIXVtDSDJdW0NAQEhdMVtDQEBIXShbT0hdKVtDQEBdKE9bQ0gzXSkoW0NASF0yW0NAQF0xKFtPSF0pW0NASF0oW0NAXTM0NSlbUytdKFtPLV0pW0NIMl0zKVtDSDJdW0NAXShbT0hdKShbQ0BIXTJbT0hdKVtDQF02N1tDQEBdKE82KShbT0hdKS9bQ0hdPVtDSF1cW0NAXShPNCkoT1tDSDNdKVtDQEBIXShbQ0BAXTUoTzcpW09IXSlPW0NIM10=

>  <s_epik_cmdline>  (153) 
J2VwaWtfcHl0aG9uJywgJy1waHQnLCAnMi4wJywgJy1waCcsICc3LjAnLCAnLXRuJywgJzgnLCAnLW1hJywgJzIwMCcsICctaW1hZScsICc8aW5maWxlLm1hZT4nLCAnLW9tYWUnLCAnPG91dGZpbGUubWFlPic=

>  <r_epik_Ionization_Penalty>  (153) 
0.000927552

>  <r_epik_Ionization_Penalty_Charging>  (153) 
0

>  <r_epik_Ionization_Penalty_Neutral>  (153) 
0.000927552

>  <r_epik_State_Penalty>  (153) 
0.000572693

>  <r_epik_Charging_Adjusted_Penalty>  (153) 
0.000572693

>  <i_epik_Tot_Q>  (153) 
0

>  <i_epik_Tot_abs_Q>  (153) 
2

>  <s_lp_Force_Field>  (153) 
OPLS3e

>  <r_lp_Energy>  (153) 
145.693

>  <b_lp_Chiralities_Consistent>  (153) 
1

>  <s_lp_Variant>  (153) 
102:0-1

>  <s_i_glide_gridfile>  (153) 
pfpi4k_grid

>  <i_i_glide_lignum>  (153) 
59

>  <i_i_glide_rotatable_bonds>  (153) 
11

>  <r_i_docking_score>  (153) 
-3.22299

>  <r_i_glide_ligand_efficiency>  (153) 
-0.0848154

>  <r_i_glide_ligand_efficiency_sa>  (153) 
-0.285147

>  <r_i_glide_ligand_efficiency_ln>  (153) 
-0.694971

>  <r_i_glide_gscore>  (153) 
-3.22299

>  <r_i_glide_lipo>  (153) 
0

>  <r_i_glide_hbond>  (153) 
-0.0392595

>  <r_i_glide_metal>  (153) 
-0

>  <r_i_glide_rewards>  (153) 
-1.10213

>  <r_i_glide_evdw>  (153) 
-22.0875

>  <r_i_glide_ecoul>  (153) 
-6.50662

>  <r_i_glide_erotb>  (153) 
0.0521778

>  <r_i_glide_esite>  (153) 
-0.0534044

>  <r_i_glide_emodel>  (153) 
-39.8404

>  <r_i_glide_energy>  (153) 
-28.5941

>  <r_i_glide_einternal>  (153) 
12.1596

>  <r_i_glide_intrahb_reward>  (153) 
-1

>  <i_i_glide_confnum>  (153) 
2

>  <i_i_glide_posenum>  (153) 
9

>  <r_i_glide_eff_state_penalty>  (153) 
0

>  <ligand_id>  (153) 
102

>  <original_smiles>  (153) 
C=CCC1C(O)C2(OC)CC3(O)C(O)C2C1(O)C1[S+]([O-])CC12OC1(OC)C=CC4(O)OC43OC2(O)C1OC

>  <smiles>  (153) 
[H]OC12OC13OC1(O[H])C([H])(OC([H])([H])[H])C(OC([H])([H])[H])(OC14C([H])([H])S(=O)C4([H])C1(O[H])C([H])(C([H])([H])C([H])=C([H])[H])C([H])(O[H])C4(OC([H])([H])[H])C([H])([H])C3(O[H])C([H])(O[H])C41[H])C([H])=C2[H]

$$$$
102:1:0
     RDKit          3D

 70 76  0  0  1  0  0  0  0  0999 V2000
    4.1361   -4.5821   -0.3516 C   0  0  0  0  0  0  0  0  0  0  0  0
    4.6537   -5.7998   -0.1230 C   0  0  0  0  0  0  0  0  0  0  0  0
    5.6485   -6.1185    0.9771 C   0  0  0  0  0  0  0  0  0  0  0  0
    5.1014   -7.0548    2.0836 C   0  0  2  0  0  0  0  0  0  0  0  0
    4.6002   -8.4515    1.5789 C   0  0  1  0  0  0  0  0  0  0  0  0
    5.5871   -9.3066    1.0454 O   0  0  0  0  0  0  0  0  0  0  0  0
    3.8723   -9.0347    2.8099 C   0  0  2  0  0  0  0  0  0  0  0  0
    4.7411   -9.3253    3.9155 O   0  0  0  0  0  0  0  0  0  0  0  0
    5.5347  -10.4985    3.8127 C   0  0  0  0  0  0  0  0  0  0  0  0
    2.6467  -10.0052    2.7333 C   0  0  0  0  0  0  0  0  0  0  0  0
    1.4134   -9.2166    3.2830 C   0  0  2  0  0  0  0  0  0  0  0  0
    0.1983   -9.7239    2.7850 O   0  0  0  0  0  0  0  0  0  0  0  0
    1.7136   -7.9109    2.5872 C   0  0  1  0  0  0  0  0  0  0  0  0
    0.7336   -6.9075    2.7832 O   0  0  0  0  0  0  0  0  0  0  0  0
    3.1345   -7.7585    3.1764 C   0  0  2  0  0  0  0  0  0  0  0  0
    3.9256   -6.5017    2.9639 C   0  0  2  0  0  0  0  0  0  0  0  0
    3.1379   -5.5439    2.2806 O   0  0  0  0  0  0  0  0  0  0  0  0
    4.2305   -5.9596    4.4068 C   0  0  1  0  0  0  0  0  0  0  0  0
    4.0170   -4.1292    4.5228 S   0  0  0  0  0  0  0  0  0  0  0  0
    5.4105   -3.5237    4.5352 O   0  0  0  0  0  0  0  0  0  0  0  0
    3.7249   -4.7278    6.2336 C   0  0  0  0  0  0  0  0  0  0  0  0
    3.3077   -6.1570    5.7238 C   0  0  2  0  0  0  0  0  0  0  0  0
    3.9758   -6.9653    6.6907 O   0  0  0  0  0  0  0  0  0  0  0  0
    3.1190   -7.3622    7.7274 C   0  0  2  0  0  0  0  0  0  0  0  0
    3.5922   -6.8974    8.9531 O   0  0  0  0  0  0  0  0  0  0  0  0
    4.8944   -7.3387    9.3100 C   0  0  0  0  0  0  0  0  0  0  0  0
    3.0433   -8.8835    7.6070 C   0  0  0  0  0  0  0  0  0  0  0  0
    1.9475   -9.5716    7.3792 C   0  0  0  0  0  0  0  0  0  0  0  0
    1.7918   -9.9919    5.9704 C   0  0  1  0  0  0  0  0  0  0  0  0
    2.6110  -11.0859    5.6810 O   0  0  0  0  0  0  0  0  0  0  0  0
    0.4848   -9.9726    5.4896 O   0  0  0  0  0  0  0  0  0  0  0  0
    1.3370   -9.0058    4.8756 C   0  0  2  0  0  0  0  0  0  0  0  0
    1.0894   -7.6033    5.2816 O   0  0  0  0  0  0  0  0  0  0  0  0
    1.7676   -6.4693    5.9185 C   0  0  2  0  0  0  0  0  0  0  0  0
    1.0290   -5.3110    5.5943 O   0  0  0  0  0  0  0  0  0  0  0  0
    1.7927   -6.5891    7.4390 C   0  0  1  0  0  0  0  0  0  0  0  0
    0.5867   -7.1504    7.9183 O   0  0  0  0  0  0  0  0  0  0  0  0
    0.5178   -7.2704    9.3283 C   0  0  0  0  0  0  0  0  0  0  0  0
    4.4220   -3.7284    0.2466 H   0  0  0  0  0  0  0  0  0  0  0  0
    3.4123   -4.4113   -1.1355 H   0  0  0  0  0  0  0  0  0  0  0  0
    4.3527   -6.6301   -0.7419 H   0  0  0  0  0  0  0  0  0  0  0  0
    6.5250   -6.5706    0.5109 H   0  0  0  0  0  0  0  0  0  0  0  0
    5.9971   -5.1885    1.4252 H   0  0  0  0  0  0  0  0  0  0  0  0
    5.9432   -7.2552    2.7460 H   0  0  0  0  0  0  0  0  0  0  0  0
    3.8683   -8.3113    0.7808 H   0  0  0  0  0  0  0  0  0  0  0  0
    5.1703  -10.1452    0.8603 H   0  0  0  0  0  0  0  0  0  0  0  0
    5.9037  -10.7636    4.8021 H   0  0  0  0  0  0  0  0  0  0  0  0
    6.4078  -10.3363    3.1829 H   0  0  0  0  0  0  0  0  0  0  0  0
    4.9836  -11.3554    3.4268 H   0  0  0  0  0  0  0  0  0  0  0  0
    2.4845  -10.2625    1.6817 H   0  0  0  0  0  0  0  0  0  0  0  0
    2.8137  -10.9610    3.2170 H   0  0  0  0  0  0  0  0  0  0  0  0
    0.2650   -9.8918    1.8485 H   0  0  0  0  0  0  0  0  0  0  0  0
    1.7605   -8.0545    1.5017 H   0  0  0  0  0  0  0  0  0  0  0  0
   -0.0851   -7.2581    2.4476 H   0  0  0  0  0  0  0  0  0  0  0  0
    3.1608   -7.8757    4.2335 H   0  0  0  0  0  0  0  0  0  0  0  0
    3.1327   -5.7642    1.3581 H   0  0  0  0  0  0  0  0  0  0  0  0
    5.2706   -6.1363    4.7035 H   0  0  0  0  0  0  0  0  0  0  0  0
    4.6868   -4.7058    6.7702 H   0  0  0  0  0  0  0  0  0  0  0  0
    2.9704   -4.0938    6.7178 H   0  0  0  0  0  0  0  0  0  0  0  0
    5.2274   -6.7576   10.1697 H   0  0  0  0  0  0  0  0  0  0  0  0
    5.6250   -7.1851    8.5119 H   0  0  0  0  0  0  0  0  0  0  0  0
    4.9066   -8.3939    9.5937 H   0  0  0  0  0  0  0  0  0  0  0  0
    3.9210   -9.2447    7.0825 H   0  0  0  0  0  0  0  0  0  0  0  0
    0.9949   -9.3309    7.7725 H   0  0  0  0  0  0  0  0  0  0  0  0
    2.3391  -11.7930    6.2768 H   0  0  0  0  0  0  0  0  0  0  0  0
    0.1525   -5.4510    5.9239 H   0  0  0  0  0  0  0  0  0  0  0  0
    1.8930   -5.5884    7.8705 H   0  0  0  0  0  0  0  0  0  0  0  0
   -0.4660   -7.6397    9.6185 H   0  0  0  0  0  0  0  0  0  0  0  0
    0.6876   -6.3128    9.8215 H   0  0  0  0  0  0  0  0  0  0  0  0
    1.2436   -7.9905    9.7098 H   0  0  0  0  0  0  0  0  0  0  0  0
  1  2  2  0
  1 39  1  0
  1 40  1  0
  2  3  1  0
  2 41  1  0
  3  4  1  0
  3 42  1  0
  3 43  1  0
  4 16  1  0
  4  5  1  0
  4 44  1  1
  5  6  1  0
  5  7  1  0
  5 45  1  6
  6 46  1  0
  7 15  1  0
  7  8  1  1
  7 10  1  0
  8  9  1  0
  9 47  1  0
  9 48  1  0
  9 49  1  0
 10 11  1  0
 10 50  1  0
 10 51  1  0
 11 32  1  0
 11 12  1  6
 11 13  1  0
 12 52  1  0
 13 14  1  0
 13 15  1  0
 13 53  1  6
 14 54  1  0
 15 16  1  0
 15 55  1  1
 16 17  1  6
 16 18  1  0
 17 56  1  0
 18 22  1  0
 18 19  1  0
 18 57  1  1
 19 20  2  0
 19 21  1  1
 21 22  1  0
 21 58  1  0
 21 59  1  0
 22 34  1  0
 22 23  1  1
 23 24  1  0
 24 36  1  0
 24 25  1  1
 24 27  1  0
 25 26  1  0
 26 60  1  0
 26 61  1  0
 26 62  1  0
 27 28  2  3
 27 63  1  0
 28 29  1  0
 28 64  1  0
 29 32  1  0
 29 30  1  6
 29 31  1  0
 30 65  1  0
 32 31  1  1
 32 33  1  0
 33 34  1  0
 34 35  1  1
 34 36  1  0
 35 66  1  0
 36 37  1  0
 36 67  1  1
 37 38  1  0
 38 68  1  0
 38 69  1  0
 38 70  1  0
M  END
>  <i_m_ct_stereo_status>  (154) 
1

>  <s_m_source_file>  (154) 
/var/tmp/pbs.5075288.sched01/tmpd529dnjr/198klec4xt1.sdf

>  <i_m_source_file_index>  (154) 
60

>  <i_lp_mmshare_version>  (154) 
48012

>  <i_f3d_flags>  (154) 
0

>  <s_epik_input>  (154) 
W0NIMl09W0NIXVtDSDJdW0NAQEhdMVtDQEBIXShbT0hdKVtDQEBdKE9bQ0gzXSkoW0NASF0yW0NAQF0xKFtPSF0pW0NASF0oW0NAXTM0NSlbUytdKFtPLV0pW0NIMl0zKVtDSDJdW0NAXShbT0hdKShbQ0BIXTJbT0hdKVtDQF02N1tDQEBdKE82KShbT0hdKS9bQ0hdPVtDSF1cW0NAXShPNCkoT1tDSDNdKVtDQEBIXShbQ0BAXTUoTzcpW09IXSlPW0NIM10=

>  <s_epik_cmdline>  (154) 
J2VwaWtfcHl0aG9uJywgJy1waHQnLCAnMi4wJywgJy1waCcsICc3LjAnLCAnLXRuJywgJzgnLCAnLW1hJywgJzIwMCcsICctaW1hZScsICc8aW5maWxlLm1hZT4nLCAnLW9tYWUnLCAnPG91dGZpbGUubWFlPic=

>  <r_epik_Ionization_Penalty>  (154) 
0.000927552

>  <r_epik_Ionization_Penalty_Charging>  (154) 
0

>  <r_epik_Ionization_Penalty_Neutral>  (154) 
0.000927552

>  <r_epik_State_Penalty>  (154) 
0.000572693

>  <r_epik_Charging_Adjusted_Penalty>  (154) 
0.000572693

>  <i_epik_Tot_Q>  (154) 
0

>  <i_epik_Tot_abs_Q>  (154) 
2

>  <s_lp_Force_Field>  (154) 
OPLS3e

>  <r_lp_Energy>  (154) 
175.96

>  <b_lp_Chiralities_Consistent>  (154) 
1

>  <s_lp_Variant>  (154) 
102:0-2

>  <s_i_glide_gridfile>  (154) 
pfpi4k_grid

>  <i_i_glide_lignum>  (154) 
60

>  <i_i_glide_rotatable_bonds>  (154) 
11

>  <r_i_docking_score>  (154) 
-2.18835

>  <r_i_glide_ligand_efficiency>  (154) 
-0.0575883

>  <r_i_glide_ligand_efficiency_sa>  (154) 
-0.19361

>  <r_i_glide_ligand_efficiency_ln>  (154) 
-0.471874

>  <r_i_glide_gscore>  (154) 
-2.18835

>  <r_i_glide_lipo>  (154) 
-0.113487

>  <r_i_glide_hbond>  (154) 
0

>  <r_i_glide_metal>  (154) 
-0

>  <r_i_glide_rewards>  (154) 
0

>  <r_i_glide_evdw>  (154) 
-20.8784

>  <r_i_glide_ecoul>  (154) 
-6.48627

>  <r_i_glide_erotb>  (154) 
0.0521778

>  <r_i_glide_esite>  (154) 
-0.110184

>  <r_i_glide_emodel>  (154) 
-27.3727

>  <r_i_glide_energy>  (154) 
-27.3647

>  <r_i_glide_einternal>  (154) 
4.01372

>  <r_i_glide_intrahb_reward>  (154) 
-0

>  <i_i_glide_confnum>  (154) 
3

>  <i_i_glide_posenum>  (154) 
4

>  <r_i_glide_eff_state_penalty>  (154) 
0

>  <ligand_id>  (154) 
102

>  <original_smiles>  (154) 
C=CCC1C(O)C2(OC)CC3(O)C(O)C2C1(O)C1[S+]([O-])CC12OC1(OC)C=CC4(O)OC43OC2(O)C1OC

>  <smiles>  (154) 
[H]OC12OC13OC1(O[H])C([H])(OC([H])([H])[H])C(OC([H])([H])[H])(OC14C([H])([H])S(=O)C4([H])C1(O[H])C([H])(C([H])([H])C([H])=C([H])[H])C([H])(O[H])C4(OC([H])([H])[H])C([H])([H])C3(O[H])C([H])(O[H])C41[H])C([H])=C2[H]

$$$$
102:1:1
     RDKit          3D

 70 76  0  0  1  0  0  0  0  0999 V2000
   -1.5522   -8.4436    2.0635 C   0  0  0  0  0  0  0  0  0  0  0  0
   -0.7988   -9.3200    2.7380 C   0  0  0  0  0  0  0  0  0  0  0  0
    0.6808   -9.5515    2.4827 C   0  0  0  0  0  0  0  0  0  0  0  0
    1.5898   -9.2989    3.7076 C   0  0  2  0  0  0  0  0  0  0  0  0
    1.2006  -10.1036    4.9858 C   0  0  1  0  0  0  0  0  0  0  0  0
    1.3521  -11.5029    4.8800 O   0  0  0  0  0  0  0  0  0  0  0  0
    2.0613   -9.4609    6.0921 C   0  0  2  0  0  0  0  0  0  0  0  0
    3.4701   -9.6806    5.9412 O   0  0  0  0  0  0  0  0  0  0  0  0
    3.9575  -10.9745    6.2792 C   0  0  0  0  0  0  0  0  0  0  0  0
    1.6365   -9.3669    7.5907 C   0  0  0  0  0  0  0  0  0  0  0  0
    1.4247   -7.8447    7.8943 C   0  0  2  0  0  0  0  0  0  0  0  0
    0.5414   -7.6918    8.9949 O   0  0  0  0  0  0  0  0  0  0  0  0
    0.6855   -7.5168    6.6080 C   0  0  1  0  0  0  0  0  0  0  0  0
    0.2302   -6.1745    6.5105 O   0  0  0  0  0  0  0  0  0  0  0  0
    1.7979   -8.0215    5.6780 C   0  0  2  0  0  0  0  0  0  0  0  0
    1.7235   -7.8099    4.1897 C   0  0  2  0  0  0  0  0  0  0  0  0
    0.5703   -7.0474    3.8482 O   0  0  0  0  0  0  0  0  0  0  0  0
    3.0198   -7.0092    3.8164 C   0  0  1  0  0  0  0  0  0  0  0  0
    2.6801   -5.6537    2.6157 S   0  0  0  0  0  0  0  0  0  0  0  0
    3.1314   -6.1157    1.2297 O   0  0  0  0  0  0  0  0  0  0  0  0
    4.1589   -5.0667    3.5192 C   0  0  0  0  0  0  0  0  0  0  0  0
    3.7988   -5.9583    4.7738 C   0  0  2  0  0  0  0  0  0  0  0  0
    5.0873   -6.4443    5.1466 O   0  0  0  0  0  0  0  0  0  0  0  0
    5.6822   -5.6743    6.1572 C   0  0  2  0  0  0  0  0  0  0  0  0
    6.8790   -5.1161    5.7136 O   0  0  0  0  0  0  0  0  0  0  0  0
    7.8651   -6.0354    5.2640 C   0  0  0  0  0  0  0  0  0  0  0  0
    5.8504   -6.6430    7.3243 C   0  0  0  0  0  0  0  0  0  0  0  0
    5.2697   -6.5054    8.5139 C   0  0  0  0  0  0  0  0  0  0  0  0
    4.0684   -7.3181    8.7104 C   0  0  1  0  0  0  0  0  0  0  0  0
    4.3497   -8.6839    8.9271 O   0  0  0  0  0  0  0  0  0  0  0  0
    3.0284   -6.7246    9.4580 O   0  0  0  0  0  0  0  0  0  0  0  0
    2.7224   -6.9449    8.0519 C   0  0  2  0  0  0  0  0  0  0  0  0
    2.6998   -5.6951    7.2474 O   0  0  0  0  0  0  0  0  0  0  0  0
    3.3155   -5.1253    6.0440 C   0  0  2  0  0  0  0  0  0  0  0  0
    2.4641   -4.1037    5.5844 O   0  0  0  0  0  0  0  0  0  0  0  0
    4.6749   -4.4893    6.3654 C   0  0  1  0  0  0  0  0  0  0  0  0
    4.6846   -3.8589    7.6390 O   0  0  0  0  0  0  0  0  0  0  0  0
    4.2599   -2.4980    7.6126 C   0  0  0  0  0  0  0  0  0  0  0  0
   -1.1289   -7.8533    1.2642 H   0  0  0  0  0  0  0  0  0  0  0  0
   -2.5926   -8.3134    2.3028 H   0  0  0  0  0  0  0  0  0  0  0  0
   -1.2630   -9.8942    3.5218 H   0  0  0  0  0  0  0  0  0  0  0  0
    0.7988  -10.5791    2.1443 H   0  0  0  0  0  0  0  0  0  0  0  0
    1.0183   -8.9172    1.6631 H   0  0  0  0  0  0  0  0  0  0  0  0
    2.5902   -9.6390    3.4210 H   0  0  0  0  0  0  0  0  0  0  0  0
    0.1510   -9.9416    5.2293 H   0  0  0  0  0  0  0  0  0  0  0  0
    1.3240  -11.8552    5.7621 H   0  0  0  0  0  0  0  0  0  0  0  0
    5.0389  -10.9218    6.4009 H   0  0  0  0  0  0  0  0  0  0  0  0
    3.7648  -11.6976    5.4884 H   0  0  0  0  0  0  0  0  0  0  0  0
    3.5409  -11.3600    7.2089 H   0  0  0  0  0  0  0  0  0  0  0  0
    0.6943   -9.9050    7.7283 H   0  0  0  0  0  0  0  0  0  0  0  0
    2.3184   -9.8528    8.2765 H   0  0  0  0  0  0  0  0  0  0  0  0
    1.0306   -7.8893    9.7812 H   0  0  0  0  0  0  0  0  0  0  0  0
   -0.2053   -8.1366    6.5053 H   0  0  0  0  0  0  0  0  0  0  0  0
   -0.3848   -6.0272    7.2120 H   0  0  0  0  0  0  0  0  0  0  0  0
    2.7538   -7.6359    5.9303 H   0  0  0  0  0  0  0  0  0  0  0  0
   -0.1974   -7.5477    4.0802 H   0  0  0  0  0  0  0  0  0  0  0  0
    3.7666   -7.6451    3.3499 H   0  0  0  0  0  0  0  0  0  0  0  0
    5.0619   -5.3768    3.0015 H   0  0  0  0  0  0  0  0  0  0  0  0
    4.1083   -3.9800    3.6334 H   0  0  0  0  0  0  0  0  0  0  0  0
    8.6534   -5.4791    4.7530 H   0  0  0  0  0  0  0  0  0  0  0  0
    7.4733   -6.7647    4.5537 H   0  0  0  0  0  0  0  0  0  0  0  0
    8.3249   -6.5727    6.0943 H   0  0  0  0  0  0  0  0  0  0  0  0
    5.8540   -7.6593    6.9440 H   0  0  0  0  0  0  0  0  0  0  0  0
    5.1632   -5.5414    8.9728 H   0  0  0  0  0  0  0  0  0  0  0  0
    4.8829   -8.7651    9.7073 H   0  0  0  0  0  0  0  0  0  0  0  0
    2.3858   -3.4840    6.2906 H   0  0  0  0  0  0  0  0  0  0  0  0
    4.9322   -3.7501    5.6050 H   0  0  0  0  0  0  0  0  0  0  0  0
    4.2835   -2.0683    8.6145 H   0  0  0  0  0  0  0  0  0  0  0  0
    3.2414   -2.3835    7.2458 H   0  0  0  0  0  0  0  0  0  0  0  0
    4.9211   -1.9059    6.9790 H   0  0  0  0  0  0  0  0  0  0  0  0
  1  2  2  0
  1 39  1  0
  1 40  1  0
  2  3  1  0
  2 41  1  0
  3  4  1  0
  3 42  1  0
  3 43  1  0
  4 16  1  0
  4  5  1  0
  4 44  1  6
  5  6  1  0
  5  7  1  0
  5 45  1  1
  6 46  1  0
  7 15  1  0
  7  8  1  1
  7 10  1  0
  8  9  1  0
  9 47  1  0
  9 48  1  0
  9 49  1  0
 10 11  1  0
 10 50  1  0
 10 51  1  0
 11 32  1  0
 11 12  1  1
 11 13  1  0
 12 52  1  0
 13 14  1  0
 13 15  1  0
 13 53  1  1
 14 54  1  0
 15 16  1  0
 15 55  1  1
 16 17  1  1
 16 18  1  0
 17 56  1  0
 18 22  1  0
 18 19  1  0
 18 57  1  6
 19 20  2  0
 19 21  1  1
 21 22  1  0
 21 58  1  0
 21 59  1  0
 22 34  1  0
 22 23  1  1
 23 24  1  0
 24 36  1  0
 24 25  1  6
 24 27  1  0
 25 26  1  0
 26 60  1  0
 26 61  1  0
 26 62  1  0
 27 28  2  3
 27 63  1  0
 28 29  1  0
 28 64  1  0
 29 32  1  0
 29 30  1  1
 29 31  1  0
 30 65  1  0
 32 31  1  1
 32 33  1  0
 33 34  1  0
 34 35  1  6
 34 36  1  0
 35 66  1  0
 36 37  1  0
 36 67  1  6
 37 38  1  0
 38 68  1  0
 38 69  1  0
 38 70  1  0
M  END
>  <i_m_ct_stereo_status>  (155) 
1

>  <s_m_source_file>  (155) 
/var/tmp/pbs.5075288.sched01/tmpd529dnjr/198klec4xt1.sdf

>  <i_m_source_file_index>  (155) 
60

>  <i_lp_mmshare_version>  (155) 
48012

>  <i_f3d_flags>  (155) 
0

>  <s_epik_input>  (155) 
W0NIMl09W0NIXVtDSDJdW0NAQEhdMVtDQEBIXShbT0hdKVtDQEBdKE9bQ0gzXSkoW0NASF0yW0NAQF0xKFtPSF0pW0NASF0oW0NAXTM0NSlbUytdKFtPLV0pW0NIMl0zKVtDSDJdW0NAXShbT0hdKShbQ0BIXTJbT0hdKVtDQF02N1tDQEBdKE82KShbT0hdKS9bQ0hdPVtDSF1cW0NAXShPNCkoT1tDSDNdKVtDQEBIXShbQ0BAXTUoTzcpW09IXSlPW0NIM10=

>  <s_epik_cmdline>  (155) 
J2VwaWtfcHl0aG9uJywgJy1waHQnLCAnMi4wJywgJy1waCcsICc3LjAnLCAnLXRuJywgJzgnLCAnLW1hJywgJzIwMCcsICctaW1hZScsICc8aW5maWxlLm1hZT4nLCAnLW9tYWUnLCAnPG91dGZpbGUubWFlPic=

>  <r_epik_Ionization_Penalty>  (155) 
0.000927552

>  <r_epik_Ionization_Penalty_Charging>  (155) 
0

>  <r_epik_Ionization_Penalty_Neutral>  (155) 
0.000927552

>  <r_epik_State_Penalty>  (155) 
0.000572693

>  <r_epik_Charging_Adjusted_Penalty>  (155) 
0.000572693

>  <i_epik_Tot_Q>  (155) 
0

>  <i_epik_Tot_abs_Q>  (155) 
2

>  <s_lp_Force_Field>  (155) 
OPLS3e

>  <r_lp_Energy>  (155) 
175.96

>  <b_lp_Chiralities_Consistent>  (155) 
1

>  <s_lp_Variant>  (155) 
102:0-2

>  <s_i_glide_gridfile>  (155) 
pfpi4k_grid

>  <i_i_glide_lignum>  (155) 
60

>  <i_i_glide_rotatable_bonds>  (155) 
11

>  <r_i_docking_score>  (155) 
-1.73732

>  <r_i_glide_ligand_efficiency>  (155) 
-0.0457189

>  <r_i_glide_ligand_efficiency_sa>  (155) 
-0.153706

>  <r_i_glide_ligand_efficiency_ln>  (155) 
-0.374617

>  <r_i_glide_gscore>  (155) 
-1.73732

>  <r_i_glide_lipo>  (155) 
-0.150492

>  <r_i_glide_hbond>  (155) 
0

>  <r_i_glide_metal>  (155) 
-0

>  <r_i_glide_rewards>  (155) 
0

>  <r_i_glide_evdw>  (155) 
-20.3568

>  <r_i_glide_ecoul>  (155) 
-4.10805

>  <r_i_glide_erotb>  (155) 
0.0521778

>  <r_i_glide_esite>  (155) 
-0.00495726

>  <r_i_glide_emodel>  (155) 
-24.1785

>  <r_i_glide_energy>  (155) 
-24.4648

>  <r_i_glide_einternal>  (155) 
4.88673

>  <r_i_glide_intrahb_reward>  (155) 
-0

>  <i_i_glide_confnum>  (155) 
3

>  <i_i_glide_posenum>  (155) 
11

>  <r_i_glide_eff_state_penalty>  (155) 
0

>  <ligand_id>  (155) 
102

>  <original_smiles>  (155) 
C=CCC1C(O)C2(OC)CC3(O)C(O)C2C1(O)C1[S+]([O-])CC12OC1(OC)C=CC4(O)OC43OC2(O)C1OC

>  <smiles>  (155) 
[H]OC12OC13OC1(O[H])C([H])(OC([H])([H])[H])C(OC([H])([H])[H])(OC14C([H])([H])S(=O)C4([H])C1(O[H])C([H])(C([H])([H])C([H])=C([H])[H])C([H])(O[H])C4(OC([H])([H])[H])C([H])([H])C3(O[H])C([H])(O[H])C41[H])C([H])=C2[H]

$$$$
102:1:2
     RDKit          3D

 70 76  0  0  1  0  0  0  0  0999 V2000
   -3.5368    2.9770    9.1391 C   0  0  0  0  0  0  0  0  0  0  0  0
   -2.2005    3.0019    9.2234 C   0  0  0  0  0  0  0  0  0  0  0  0
   -1.2588    3.1319    8.0393 C   0  0  0  0  0  0  0  0  0  0  0  0
   -0.2158    1.9882    7.9148 C   0  0  2  0  0  0  0  0  0  0  0  0
    0.8519    1.9434    9.0596 C   0  0  1  0  0  0  0  0  0  0  0  0
    0.3853    1.5652   10.3306 O   0  0  0  0  0  0  0  0  0  0  0  0
    1.9164    0.9678    8.5183 C   0  0  2  0  0  0  0  0  0  0  0  0
    1.4421   -0.3779    8.3549 O   0  0  0  0  0  0  0  0  0  0  0  0
    1.3093   -1.1591    9.5340 C   0  0  0  0  0  0  0  0  0  0  0  0
    3.4389    1.0221    8.8726 C   0  0  0  0  0  0  0  0  0  0  0  0
    4.1823    1.4165    7.5414 C   0  0  2  0  0  0  0  0  0  0  0  0
    5.4132    2.0293    7.8538 O   0  0  0  0  0  0  0  0  0  0  0  0
    3.2057    2.4853    7.1108 C   0  0  1  0  0  0  0  0  0  0  0  0
    3.5210    3.1523    5.9032 O   0  0  0  0  0  0  0  0  0  0  0  0
    1.9788    1.5613    7.1281 C   0  0  2  0  0  0  0  0  0  0  0  0
    0.6531    2.0368    6.6127 C   0  0  2  0  0  0  0  0  0  0  0  0
    0.7573    3.3774    6.1424 O   0  0  0  0  0  0  0  0  0  0  0  0
    0.3087    1.0465    5.4340 C   0  0  1  0  0  0  0  0  0  0  0  0
   -0.3914    1.8942    3.9584 S   0  0  0  0  0  0  0  0  0  0  0  0
   -1.8881    1.6939    4.0170 O   0  0  0  0  0  0  0  0  0  0  0  0
    0.3551    0.3672    3.2724 C   0  0  0  0  0  0  0  0  0  0  0  0
    1.3425    0.2450    4.4905 C   0  0  2  0  0  0  0  0  0  0  0  0
    1.3152   -1.1694    4.7193 O   0  0  0  0  0  0  0  0  0  0  0  0
    2.3743   -1.8411    4.0974 C   0  0  2  0  0  0  0  0  0  0  0  0
    1.8900   -2.7834    3.1852 O   0  0  0  0  0  0  0  0  0  0  0  0
    1.1139   -3.8379    3.7345 C   0  0  0  0  0  0  0  0  0  0  0  0
    3.1707   -2.4460    5.2532 C   0  0  0  0  0  0  0  0  0  0  0  0
    4.4295   -2.1727    5.5388 C   0  0  0  0  0  0  0  0  0  0  0  0
    4.6123   -1.2114    6.6377 C   0  0  1  0  0  0  0  0  0  0  0  0
    4.3710   -1.7821    7.9012 O   0  0  0  0  0  0  0  0  0  0  0  0
    5.6783   -0.2980    6.4856 O   0  0  0  0  0  0  0  0  0  0  0  0
    4.3584    0.3005    6.4208 C   0  0  2  0  0  0  0  0  0  0  0  0
    3.9472    0.7413    5.0602 O   0  0  0  0  0  0  0  0  0  0  0  0
    2.8499    0.5394    4.1112 C   0  0  2  0  0  0  0  0  0  0  0  0
    2.8537    1.6494    3.2318 O   0  0  0  0  0  0  0  0  0  0  0  0
    3.0759   -0.7166    3.2626 C   0  0  1  0  0  0  0  0  0  0  0  0
    4.4460   -0.9422    2.9700 O   0  0  0  0  0  0  0  0  0  0  0  0
    4.8274   -0.5257    1.6675 C   0  0  0  0  0  0  0  0  0  0  0  0
   -4.0444    3.0475    8.1875 H   0  0  0  0  0  0  0  0  0  0  0  0
   -4.1373    2.8851   10.0347 H   0  0  0  0  0  0  0  0  0  0  0  0
   -1.7601    2.9365   10.2079 H   0  0  0  0  0  0  0  0  0  0  0  0
   -1.8506    3.1722    7.1219 H   0  0  0  0  0  0  0  0  0  0  0  0
   -0.7593    4.0975    8.1202 H   0  0  0  0  0  0  0  0  0  0  0  0
   -0.7570    1.0386    7.9308 H   0  0  0  0  0  0  0  0  0  0  0  0
    1.2885    2.9391    9.1725 H   0  0  0  0  0  0  0  0  0  0  0  0
   -0.2280    2.2173   10.6311 H   0  0  0  0  0  0  0  0  0  0  0  0
    1.2386   -2.2104    9.2590 H   0  0  0  0  0  0  0  0  0  0  0  0
    0.3974   -0.9134   10.0758 H   0  0  0  0  0  0  0  0  0  0  0  0
    2.1540   -1.0536   10.2140 H   0  0  0  0  0  0  0  0  0  0  0  0
    3.5959    1.7876    9.6383 H   0  0  0  0  0  0  0  0  0  0  0  0
    3.8179    0.1167    9.3305 H   0  0  0  0  0  0  0  0  0  0  0  0
    5.8230    2.3088    7.0455 H   0  0  0  0  0  0  0  0  0  0  0  0
    3.1230    3.2699    7.8680 H   0  0  0  0  0  0  0  0  0  0  0  0
    2.9353    3.8888    5.8303 H   0  0  0  0  0  0  0  0  0  0  0  0
    2.1515    0.6617    6.5903 H   0  0  0  0  0  0  0  0  0  0  0  0
    1.2325    3.3534    5.3226 H   0  0  0  0  0  0  0  0  0  0  0  0
   -0.4596    0.3320    5.7208 H   0  0  0  0  0  0  0  0  0  0  0  0
   -0.4018   -0.4193    3.2481 H   0  0  0  0  0  0  0  0  0  0  0  0
    0.7599    0.5671    2.2747 H   0  0  0  0  0  0  0  0  0  0  0  0
    0.6273   -4.3670    2.9156 H   0  0  0  0  0  0  0  0  0  0  0  0
    0.3317   -3.4839    4.4093 H   0  0  0  0  0  0  0  0  0  0  0  0
    1.7363   -4.5599    4.2659 H   0  0  0  0  0  0  0  0  0  0  0  0
    2.5196   -2.5367    6.1226 H   0  0  0  0  0  0  0  0  0  0  0  0
    5.1578   -2.0127    4.7691 H   0  0  0  0  0  0  0  0  0  0  0  0
    4.9645   -2.5217    8.0218 H   0  0  0  0  0  0  0  0  0  0  0  0
    2.6544    2.4354    3.7216 H   0  0  0  0  0  0  0  0  0  0  0  0
    2.5229   -0.6535    2.3237 H   0  0  0  0  0  0  0  0  0  0  0  0
    5.8983   -0.6695    1.4960 H   0  0  0  0  0  0  0  0  0  0  0  0
    4.6007    0.5287    1.5030 H   0  0  0  0  0  0  0  0  0  0  0  0
    4.2893   -1.1140    0.9227 H   0  0  0  0  0  0  0  0  0  0  0  0
  1  2  2  0
  1 39  1  0
  1 40  1  0
  2  3  1  0
  2 41  1  0
  3  4  1  0
  3 42  1  0
  3 43  1  0
  4 16  1  0
  4  5  1  0
  4 44  1  6
  5  6  1  0
  5  7  1  0
  5 45  1  1
  6 46  1  0
  7 15  1  0
  7  8  1  6
  7 10  1  0
  8  9  1  0
  9 47  1  0
  9 48  1  0
  9 49  1  0
 10 11  1  0
 10 50  1  0
 10 51  1  0
 11 32  1  0
 11 12  1  1
 11 13  1  0
 12 52  1  0
 13 14  1  0
 13 15  1  0
 13 53  1  1
 14 54  1  0
 15 16  1  0
 15 55  1  6
 16 17  1  6
 16 18  1  0
 17 56  1  0
 18 22  1  0
 18 19  1  0
 18 57  1  1
 19 20  2  0
 19 21  1  6
 21 22  1  0
 21 58  1  0
 21 59  1  0
 22 34  1  0
 22 23  1  1
 23 24  1  0
 24 36  1  0
 24 25  1  6
 24 27  1  0
 25 26  1  0
 26 60  1  0
 26 61  1  0
 26 62  1  0
 27 28  2  3
 27 63  1  0
 28 29  1  0
 28 64  1  0
 29 32  1  0
 29 30  1  1
 29 31  1  0
 30 65  1  0
 32 31  1  6
 32 33  1  0
 33 34  1  0
 34 35  1  6
 34 36  1  0
 35 66  1  0
 36 37  1  0
 36 67  1  6
 37 38  1  0
 38 68  1  0
 38 69  1  0
 38 70  1  0
M  END
>  <i_m_ct_stereo_status>  (156) 
1

>  <s_m_source_file>  (156) 
/var/tmp/pbs.5075288.sched01/tmpd529dnjr/198klec4xt1.sdf

>  <i_m_source_file_index>  (156) 
60

>  <i_lp_mmshare_version>  (156) 
48012

>  <i_f3d_flags>  (156) 
0

>  <s_epik_input>  (156) 
W0NIMl09W0NIXVtDSDJdW0NAQEhdMVtDQEBIXShbT0hdKVtDQEBdKE9bQ0gzXSkoW0NASF0yW0NAQF0xKFtPSF0pW0NASF0oW0NAXTM0NSlbUytdKFtPLV0pW0NIMl0zKVtDSDJdW0NAXShbT0hdKShbQ0BIXTJbT0hdKVtDQF02N1tDQEBdKE82KShbT0hdKS9bQ0hdPVtDSF1cW0NAXShPNCkoT1tDSDNdKVtDQEBIXShbQ0BAXTUoTzcpW09IXSlPW0NIM10=

>  <s_epik_cmdline>  (156) 
J2VwaWtfcHl0aG9uJywgJy1waHQnLCAnMi4wJywgJy1waCcsICc3LjAnLCAnLXRuJywgJzgnLCAnLW1hJywgJzIwMCcsICctaW1hZScsICc8aW5maWxlLm1hZT4nLCAnLW9tYWUnLCAnPG91dGZpbGUubWFlPic=

>  <r_epik_Ionization_Penalty>  (156) 
0.000927552

>  <r_epik_Ionization_Penalty_Charging>  (156) 
0

>  <r_epik_Ionization_Penalty_Neutral>  (156) 
0.000927552

>  <r_epik_State_Penalty>  (156) 
0.000572693

>  <r_epik_Charging_Adjusted_Penalty>  (156) 
0.000572693

>  <i_epik_Tot_Q>  (156) 
0

>  <i_epik_Tot_abs_Q>  (156) 
2

>  <s_lp_Force_Field>  (156) 
OPLS3e

>  <r_lp_Energy>  (156) 
175.96

>  <b_lp_Chiralities_Consistent>  (156) 
1

>  <s_lp_Variant>  (156) 
102:0-2

>  <s_i_glide_gridfile>  (156) 
pfpi4k_grid

>  <i_i_glide_lignum>  (156) 
60

>  <i_i_glide_rotatable_bonds>  (156) 
11

>  <r_i_docking_score>  (156) 
-1.15278

>  <r_i_glide_ligand_efficiency>  (156) 
-0.0303363

>  <r_i_glide_ligand_efficiency_sa>  (156) 
-0.10199

>  <r_i_glide_ligand_efficiency_ln>  (156) 
-0.248573

>  <r_i_glide_gscore>  (156) 
-1.15278

>  <r_i_glide_lipo>  (156) 
-0.154815

>  <r_i_glide_hbond>  (156) 
0

>  <r_i_glide_metal>  (156) 
-0

>  <r_i_glide_rewards>  (156) 
0

>  <r_i_glide_evdw>  (156) 
-20.198

>  <r_i_glide_ecoul>  (156) 
-0.084593

>  <r_i_glide_erotb>  (156) 
0.0521778

>  <r_i_glide_esite>  (156) 
-0.027551

>  <r_i_glide_emodel>  (156) 
-19.9583

>  <r_i_glide_energy>  (156) 
-20.2826

>  <r_i_glide_einternal>  (156) 
2.86999

>  <r_i_glide_intrahb_reward>  (156) 
-0

>  <i_i_glide_confnum>  (156) 
1

>  <i_i_glide_posenum>  (156) 
7

>  <r_i_glide_eff_state_penalty>  (156) 
0

>  <ligand_id>  (156) 
102

>  <original_smiles>  (156) 
C=CCC1C(O)C2(OC)CC3(O)C(O)C2C1(O)C1[S+]([O-])CC12OC1(OC)C=CC4(O)OC43OC2(O)C1OC

>  <smiles>  (156) 
[H]OC12OC13OC1(O[H])C([H])(OC([H])([H])[H])C(OC([H])([H])[H])(OC14C([H])([H])S(=O)C4([H])C1(O[H])C([H])(C([H])([H])C([H])=C([H])[H])C([H])(O[H])C4(OC([H])([H])[H])C([H])([H])C3(O[H])C([H])(O[H])C41[H])C([H])=C2[H]

$$$$
103:0:0
     RDKit          3D

100107  0  0  1  0  0  0  0  0999 V2000
    1.8520    2.3086    2.5549 C   0  0  0  0  0  0  0  0  0  0  0  0
    2.1534    1.1468    3.1594 C   0  0  0  0  0  0  0  0  0  0  0  0
    1.1682    0.0419    3.5709 C   0  0  1  0  0  0  0  0  0  0  0  0
   -0.2970    0.5175    3.4834 C   0  0  0  0  0  0  0  0  0  0  0  0
    1.4095   -1.2545    2.7424 C   0  0  0  0  0  0  0  0  0  0  0  0
    1.3068   -2.2622    3.8555 C   0  0  1  0  0  0  0  0  0  0  0  0
    1.5740   -3.7695    3.8270 C   0  0  2  0  0  0  0  0  0  0  0  0
    1.8685   -4.1021    5.3780 C   0  0  1  0  0  0  0  0  0  0  0  0
    1.6325   -2.6970    6.0733 C   0  0  1  0  0  0  0  0  0  0  0  0
    2.4520   -2.5371    7.2198 O   0  0  0  0  0  0  0  0  0  0  0  0
    2.0090   -1.6304    5.0216 C   0  0  1  0  0  0  0  0  0  0  0  0
    3.5341   -1.3684    4.9599 C   0  0  0  0  0  0  0  0  0  0  0  0
    1.3502   -0.3634    4.9544 O   0  0  0  0  0  0  0  0  0  0  0  0
    1.1073   -5.3457    6.0927 C   0  0  0  0  0  0  0  0  0  0  0  0
    0.8261   -5.0197    7.5990 C   0  0  0  0  0  0  0  0  0  0  0  0
   -0.3509   -5.4373    5.5838 C   0  0  0  0  0  0  0  0  0  0  0  0
    1.7943   -6.8157    6.1024 C   0  0  2  0  0  0  0  0  0  0  0  0
    3.1612   -6.8850    7.4236 S   0  0  0  0  0  0  0  0  0  0  0  0
    2.5030   -7.3836    8.7261 O   0  0  0  0  0  0  0  0  0  0  0  0
    4.5835   -8.0785    7.0597 C   0  0  0  0  0  0  0  0  0  0  0  0
    4.3794   -9.0709    5.8725 C   0  0  1  0  0  0  0  0  0  0  0  0
    2.9755   -9.6757    5.9986 C   0  0  0  0  0  0  0  0  0  0  0  0
    2.0524   -9.0389    5.1446 O   0  0  0  0  0  0  0  0  0  0  0  0
    2.1802   -7.6500    4.8080 C   0  0  1  0  0  0  0  0  0  0  0  0
    1.1699   -7.7325    3.6208 C   0  0  1  0  0  0  0  0  0  0  0  0
   -0.1430   -7.9833    4.1268 O   0  0  0  0  0  0  0  0  0  0  0  0
   -1.0301   -8.6450    3.2363 C   0  0  0  0  0  0  0  0  0  0  0  0
    1.1415   -6.6077    2.5548 C   0  0  0  0  0  0  0  0  0  0  0  0
    2.4512   -5.8020    2.3056 C   0  0  1  0  0  0  0  0  0  0  0  0
    2.7695   -5.9673    0.8013 C   0  0  0  0  0  0  0  0  0  0  0  0
    2.4375   -4.2537    2.5853 C   0  0  2  0  0  0  0  0  0  0  0  0
    3.9644   -3.9143    2.6112 C   0  0  0  0  0  0  0  0  0  0  0  0
    4.7432   -5.1854    3.0378 C   0  0  0  0  0  0  0  0  0  0  0  0
    3.6103   -6.1821    3.2472 C   0  0  2  0  0  0  0  0  0  0  0  0
    3.6082   -7.3409    4.2781 C   0  0  2  0  0  0  0  0  0  0  0  0
    4.6580   -8.4598    4.4693 C   0  0  2  0  0  0  0  0  0  0  0  0
    4.8163   -9.6924    3.5179 C   0  0  1  0  0  0  0  0  0  0  0  0
    5.5461   -9.4719    2.1463 C   0  0  0  0  0  0  0  0  0  0  0  0
    4.6338   -8.7973    1.1322 C   0  0  0  0  0  0  0  0  0  0  0  0
    6.8473   -8.6581    2.2660 C   0  0  0  0  0  0  0  0  0  0  0  0
    5.8796  -10.6901    1.5235 O   0  0  0  0  0  0  0  0  0  0  0  0
    5.4167  -10.7898    4.4717 C   0  0  1  0  0  0  0  0  0  0  0  0
    6.7353  -11.2481    4.2205 O   0  0  0  0  0  0  0  0  0  0  0  0
    5.4111  -10.2050    5.8934 C   0  0  0  0  0  0  0  0  0  0  0  0
    0.8409    2.5747    2.2809 H   0  0  0  0  0  0  0  0  0  0  0  0
    2.6257    3.0189    2.3110 H   0  0  0  0  0  0  0  0  0  0  0  0
    3.1911    0.9724    3.3849 H   0  0  0  0  0  0  0  0  0  0  0  0
   -0.5733    0.7920    2.4623 H   0  0  0  0  0  0  0  0  0  0  0  0
   -0.4411    1.3988    4.1136 H   0  0  0  0  0  0  0  0  0  0  0  0
   -1.0037   -0.2349    3.8202 H   0  0  0  0  0  0  0  0  0  0  0  0
    0.6658   -1.4022    1.9590 H   0  0  0  0  0  0  0  0  0  0  0  0
    2.3991   -1.2692    2.2771 H   0  0  0  0  0  0  0  0  0  0  0  0
    0.2426   -2.2344    4.1048 H   0  0  0  0  0  0  0  0  0  0  0  0
    0.5917   -4.1472    3.5909 H   0  0  0  0  0  0  0  0  0  0  0  0
    2.9398   -4.2505    5.5189 H   0  0  0  0  0  0  0  0  0  0  0  0
    0.5878   -2.5602    6.3416 H   0  0  0  0  0  0  0  0  0  0  0  0
    2.2095   -3.1903    7.8531 H   0  0  0  0  0  0  0  0  0  0  0  0
    4.1229   -2.2528    5.2025 H   0  0  0  0  0  0  0  0  0  0  0  0
    3.8098   -0.6110    5.6998 H   0  0  0  0  0  0  0  0  0  0  0  0
    3.8715   -1.0020    3.9946 H   0  0  0  0  0  0  0  0  0  0  0  0
    0.3563   -5.8655    8.1012 H   0  0  0  0  0  0  0  0  0  0  0  0
    0.1269   -4.1949    7.7327 H   0  0  0  0  0  0  0  0  0  0  0  0
    1.7133   -4.7759    8.1749 H   0  0  0  0  0  0  0  0  0  0  0  0
   -0.9086   -6.2076    6.1119 H   0  0  0  0  0  0  0  0  0  0  0  0
   -0.4407   -5.6786    4.5404 H   0  0  0  0  0  0  0  0  0  0  0  0
   -0.8750   -4.4941    5.7193 H   0  0  0  0  0  0  0  0  0  0  0  0
    1.0202   -7.4416    6.5456 H   0  0  0  0  0  0  0  0  0  0  0  0
    5.4910   -7.4949    6.9107 H   0  0  0  0  0  0  0  0  0  0  0  0
    4.7686   -8.6382    7.9742 H   0  0  0  0  0  0  0  0  0  0  0  0
    2.9614  -10.7233    5.7149 H   0  0  0  0  0  0  0  0  0  0  0  0
    2.6151   -9.6619    7.0323 H   0  0  0  0  0  0  0  0  0  0  0  0
    1.4845   -8.6130    3.0628 H   0  0  0  0  0  0  0  0  0  0  0  0
   -1.9682   -8.8715    3.7501 H   0  0  0  0  0  0  0  0  0  0  0  0
   -0.6058   -9.5882    2.8932 H   0  0  0  0  0  0  0  0  0  0  0  0
   -1.2663   -8.0213    2.3741 H   0  0  0  0  0  0  0  0  0  0  0  0
    0.8728   -7.1458    1.6403 H   0  0  0  0  0  0  0  0  0  0  0  0
    0.2820   -5.9542    2.6454 H   0  0  0  0  0  0  0  0  0  0  0  0
    3.7593   -5.6199    0.5123 H   0  0  0  0  0  0  0  0  0  0  0  0
    2.0608   -5.4212    0.1777 H   0  0  0  0  0  0  0  0  0  0  0  0
    2.7219   -7.0215    0.5540 H   0  0  0  0  0  0  0  0  0  0  0  0
    1.9971   -3.7524    1.7193 H   0  0  0  0  0  0  0  0  0  0  0  0
    4.2880   -3.6247    1.6114 H   0  0  0  0  0  0  0  0  0  0  0  0
    4.2031   -3.0778    3.2455 H   0  0  0  0  0  0  0  0  0  0  0  0
    5.4322   -5.5127    2.2575 H   0  0  0  0  0  0  0  0  0  0  0  0
    5.3230   -5.0161    3.9494 H   0  0  0  0  0  0  0  0  0  0  0  0
    3.1995   -5.6229    4.0546 H   0  0  0  0  0  0  0  0  0  0  0  0
    4.0846   -6.7771    5.0773 H   0  0  0  0  0  0  0  0  0  0  0  0
    5.6408   -7.9771    4.5403 H   0  0  0  0  0  0  0  0  0  0  0  0
    3.8031  -10.0230    3.2890 H   0  0  0  0  0  0  0  0  0  0  0  0
    4.3784   -7.8430    1.5340 H   0  0  0  0  0  0  0  0  0  0  0  0
    3.7250   -9.3720    0.9452 H   0  0  0  0  0  0  0  0  0  0  0  0
    5.1285   -8.6411    0.1714 H   0  0  0  0  0  0  0  0  0  0  0  0
    6.6476   -7.6256    2.5599 H   0  0  0  0  0  0  0  0  0  0  0  0
    7.3741   -8.6068    1.3111 H   0  0  0  0  0  0  0  0  0  0  0  0
    7.5355   -9.0720    2.9977 H   0  0  0  0  0  0  0  0  0  0  0  0
    5.0961  -11.1574    1.2049 H   0  0  0  0  0  0  0  0  0  0  0  0
    4.7675  -11.6633    4.4254 H   0  0  0  0  0  0  0  0  0  0  0  0
    7.2978  -10.5009    4.1097 H   0  0  0  0  0  0  0  0  0  0  0  0
    6.3912   -9.7900    6.1322 H   0  0  0  0  0  0  0  0  0  0  0  0
    5.1963  -10.9664    6.6454 H   0  0  0  0  0  0  0  0  0  0  0  0
  1  2  2  0
  1 45  1  0
  1 46  1  0
  2  3  1  0
  2 47  1  0
  3 13  1  0
  3  4  1  1
  3  5  1  0
  4 48  1  0
  4 49  1  0
  4 50  1  0
  5  6  1  0
  5 51  1  0
  5 52  1  0
  6 11  1  0
  6  7  1  0
  6 53  1  1
  7 31  1  0
  7  8  1  0
  7 54  1  6
  8  9  1  0
  8 14  1  0
  8 55  1  6
  9 10  1  0
  9 11  1  0
  9 56  1  1
 10 57  1  0
 11 12  1  6
 11 13  1  0
 12 58  1  0
 12 59  1  0
 12 60  1  0
 14 15  1  0
 14 16  1  0
 14 17  1  0
 15 61  1  0
 15 62  1  0
 15 63  1  0
 16 64  1  0
 16 65  1  0
 16 66  1  0
 17 24  1  0
 17 18  1  0
 17 67  1  1
 18 19  2  0
 18 20  1  6
 20 21  1  0
 20 68  1  0
 20 69  1  0
 21 36  1  0
 21 44  1  1
 21 22  1  0
 22 23  1  0
 22 70  1  0
 22 71  1  0
 24 23  1  1
 24 35  1  0
 24 25  1  0
 25 26  1  0
 25 28  1  0
 25 72  1  6
 26 27  1  0
 27 73  1  0
 27 74  1  0
 27 75  1  0
 28 29  1  0
 28 76  1  0
 28 77  1  0
 29 34  1  0
 29 30  1  6
 29 31  1  0
 30 78  1  0
 30 79  1  0
 30 80  1  0
 31 32  1  0
 31 81  1  6
 32 33  1  0
 32 82  1  0
 32 83  1  0
 33 34  1  0
 33 84  1  0
 33 85  1  0
 34 35  1  0
 34 86  1  6
 35 36  1  0
 35 87  1  1
 36 37  1  0
 36 88  1  1
 37 38  1  0
 37 42  1  0
 37 89  1  6
 38 39  1  0
 38 40  1  0
 38 41  1  0
 39 90  1  0
 39 91  1  0
 39 92  1  0
 40 93  1  0
 40 94  1  0
 40 95  1  0
 41 96  1  0
 42 43  1  0
 42 44  1  0
 42 97  1  1
 43 98  1  0
 44 99  1  0
 44100  1  0
M  END
>  <i_m_ct_stereo_status>  (157) 
1

>  <s_m_source_file>  (157) 
/var/tmp/pbs.5075288.sched01/tmpd529dnjr/198klec4xt1.sdf

>  <i_m_source_file_index>  (157) 
61

>  <i_lp_mmshare_version>  (157) 
48012

>  <i_f3d_flags>  (157) 
0

>  <s_epik_input>  (157) 
W0NIMl09W0NIXVtDQEBdKFtDSDNdKShbQ0gyXTEpT1tDQEBdKFtDSDNdKShbQ0BASF0yW09IXSlbQ0BASF0xW0NAQEhdKFtDQEBIXTNbQ0BAXShbQ0gzXSkoW0NAQEhdNFtDSDJdW0NIMl0zKVtDSDJdW0NAQEhdNU9bQ0gzXSlbQ0BASF0yQyhbQ0gzXSkoW0NIM10pW0NASF0oW1MrXShbTy1dKVtDSDJdNilbQ0BdNShPW0NIMl03KVtDQEhdNFtDQEBIXShbQ0BAXTY3OClbQ0BASF0oQyhbQ0gzXSkoW0NIM10pW09IXSlbQ0BASF0oW09IXSlbQ0gyXTg=

>  <s_epik_cmdline>  (157) 
J2VwaWtfcHl0aG9uJywgJy1waHQnLCAnMi4wJywgJy1waCcsICc3LjAnLCAnLXRuJywgJzgnLCAnLW1hJywgJzIwMCcsICctaW1hZScsICc8aW5maWxlLm1hZT4nLCAnLW9tYWUnLCAnPG91dGZpbGUubWFlPic=

>  <r_lp_tautomer_probability>  (157) 
1

>  <r_epik_Ionization_Penalty>  (157) 
1.87993e-06

>  <r_epik_Ionization_Penalty_Charging>  (157) 
0

>  <r_epik_Ionization_Penalty_Neutral>  (157) 
1.87993e-06

>  <r_epik_State_Penalty>  (157) 
-0

>  <r_epik_Charging_Adjusted_Penalty>  (157) 
0

>  <i_epik_Tot_Q>  (157) 
0

>  <i_epik_Tot_abs_Q>  (157) 
2

>  <s_lp_Force_Field>  (157) 
OPLS3e

>  <r_lp_Energy>  (157) 
211.566

>  <b_lp_Chiralities_Consistent>  (157) 
1

>  <s_lp_Variant>  (157) 
103:0-1

>  <s_i_glide_gridfile>  (157) 
pfpi4k_grid

>  <i_i_glide_lignum>  (157) 
61

>  <i_i_glide_rotatable_bonds>  (157) 
6

>  <r_i_docking_score>  (157) 
-2.21582

>  <r_i_glide_ligand_efficiency>  (157) 
-0.0503595

>  <r_i_glide_ligand_efficiency_sa>  (157) 
-0.177786

>  <r_i_glide_ligand_efficiency_ln>  (157) 
-0.463154

>  <r_i_glide_gscore>  (157) 
-2.21582

>  <r_i_glide_lipo>  (157) 
-0.116235

>  <r_i_glide_hbond>  (157) 
0

>  <r_i_glide_metal>  (157) 
-0

>  <r_i_glide_rewards>  (157) 
0

>  <r_i_glide_evdw>  (157) 
-23.8746

>  <r_i_glide_ecoul>  (157) 
-6.74326

>  <r_i_glide_erotb>  (157) 
0.10564

>  <r_i_glide_esite>  (157) 
0

>  <r_i_glide_emodel>  (157) 
-32.9894

>  <r_i_glide_energy>  (157) 
-30.6179

>  <r_i_glide_einternal>  (157) 
2.8604

>  <r_i_glide_intrahb_reward>  (157) 
-0

>  <i_i_glide_confnum>  (157) 
4

>  <i_i_glide_posenum>  (157) 
40

>  <r_i_glide_eff_state_penalty>  (157) 
0

>  <ligand_id>  (157) 
103

>  <original_smiles>  (157) 
C=CC1(C)CC2C3C(C(O)C2(C)O1)C(C)(C)C1[S+]([O-])CC24COC15C(OC)CC1(C)C3CCC1C5C2C(C(C)(C)O)C(O)C4

>  <smiles>  (157) 
[H]OC1([H])C([H])([H])C23C([H])([H])OC45C([H])(OC([H])([H])[H])C([H])([H])C6(C([H])([H])[H])C([H])(C([H])([H])C([H])([H])C6([H])C4([H])C2([H])C1([H])C(O[H])(C([H])([H])[H])C([H])([H])[H])C1([H])C2([H])C([H])([H])C(C([H])=C([H])[H])(C([H])([H])[H])OC2(C([H])([H])[H])C([H])(O[H])C1([H])C(C([H])([H])[H])(C([H])([H])[H])C5([H])S(=O)C3([H])[H]

$$$$
103:0:1
     RDKit          3D

100107  0  0  1  0  0  0  0  0999 V2000
    1.8220   -6.0567   12.6359 C   0  0  0  0  0  0  0  0  0  0  0  0
    1.0245   -6.9166   11.9870 C   0  0  0  0  0  0  0  0  0  0  0  0
    1.4773   -8.0872   11.1226 C   0  0  1  0  0  0  0  0  0  0  0  0
    1.0259   -9.4006   11.7815 C   0  0  0  0  0  0  0  0  0  0  0  0
    0.9465   -7.9429    9.6663 C   0  0  0  0  0  0  0  0  0  0  0  0
    2.1948   -8.3571    8.9302 C   0  0  1  0  0  0  0  0  0  0  0  0
    2.4885   -8.3233    7.4241 C   0  0  2  0  0  0  0  0  0  0  0  0
    4.1062   -8.3108    7.3987 C   0  0  1  0  0  0  0  0  0  0  0  0
    4.4781   -8.4288    8.9390 C   0  0  1  0  0  0  0  0  0  0  0  0
    5.7108   -7.8109    9.2659 O   0  0  0  0  0  0  0  0  0  0  0  0
    3.3316   -7.7403    9.6971 C   0  0  1  0  0  0  0  0  0  0  0  0
    3.4785   -6.2004    9.7492 C   0  0  0  0  0  0  0  0  0  0  0  0
    2.9213   -8.1739   10.9962 O   0  0  0  0  0  0  0  0  0  0  0  0
    4.8919   -9.3577    6.4416 C   0  0  0  0  0  0  0  0  0  0  0  0
    6.2376   -9.7944    7.1063 C   0  0  0  0  0  0  0  0  0  0  0  0
    4.1617  -10.7247    6.4309 C   0  0  0  0  0  0  0  0  0  0  0  0
    5.2945   -8.9112    4.9318 C   0  0  2  0  0  0  0  0  0  0  0  0
    6.8300   -7.7841    4.9669 S   0  0  0  0  0  0  0  0  0  0  0  0
    8.0603   -8.6811    4.8270 O   0  0  0  0  0  0  0  0  0  0  0  0
    6.9410   -6.5195    3.5644 C   0  0  0  0  0  0  0  0  0  0  0  0
    5.9505   -6.6993    2.3796 C   0  0  1  0  0  0  0  0  0  0  0  0
    5.9354   -8.1866    1.9913 C   0  0  0  0  0  0  0  0  0  0  0  0
    4.8217   -8.8571    2.5320 O   0  0  0  0  0  0  0  0  0  0  0  0
    4.2683   -8.4791    3.8013 C   0  0  1  0  0  0  0  0  0  0  0  0
    2.9570   -9.3117    3.6145 C   0  0  1  0  0  0  0  0  0  0  0  0
    3.2812  -10.7013    3.6535 O   0  0  0  0  0  0  0  0  0  0  0  0
    2.2330  -11.6231    3.3937 C   0  0  0  0  0  0  0  0  0  0  0  0
    1.7046   -8.9835    4.4730 C   0  0  0  0  0  0  0  0  0  0  0  0
    1.5419   -7.5380    5.0051 C   0  0  1  0  0  0  0  0  0  0  0  0
    0.1899   -7.0082    4.4531 C   0  0  0  0  0  0  0  0  0  0  0  0
    1.5176   -7.3761    6.5779 C   0  0  2  0  0  0  0  0  0  0  0  0
    1.7444   -5.8363    6.7357 C   0  0  0  0  0  0  0  0  0  0  0  0
    2.5372   -5.3279    5.4998 C   0  0  0  0  0  0  0  0  0  0  0  0
    2.7306   -6.6105    4.6986 C   0  0  2  0  0  0  0  0  0  0  0  0
    3.9552   -6.9544    3.8188 C   0  0  2  0  0  0  0  0  0  0  0  0
    4.5286   -6.1274    2.6525 C   0  0  2  0  0  0  0  0  0  0  0  0
    3.8505   -6.0558    1.2589 C   0  0  1  0  0  0  0  0  0  0  0  0
    2.5805   -5.1489    1.1230 C   0  0  0  0  0  0  0  0  0  0  0  0
    2.7375   -3.7198    1.6808 C   0  0  0  0  0  0  0  0  0  0  0  0
    2.0110   -5.1449   -0.3086 C   0  0  0  0  0  0  0  0  0  0  0  0
    1.5695   -5.7641    1.8816 O   0  0  0  0  0  0  0  0  0  0  0  0
    5.0534   -5.7634    0.3040 C   0  0  1  0  0  0  0  0  0  0  0  0
    5.0668   -4.5035   -0.3338 O   0  0  0  0  0  0  0  0  0  0  0  0
    6.3413   -5.8754    1.1502 C   0  0  0  0  0  0  0  0  0  0  0  0
    2.9001   -6.1358   12.5920 H   0  0  0  0  0  0  0  0  0  0  0  0
    1.4033   -5.2556   13.2262 H   0  0  0  0  0  0  0  0  0  0  0  0
   -0.0440   -6.7906   12.0728 H   0  0  0  0  0  0  0  0  0  0  0  0
   -0.0575   -9.4436   11.8827 H   0  0  0  0  0  0  0  0  0  0  0  0
    1.4546   -9.4926   12.7789 H   0  0  0  0  0  0  0  0  0  0  0  0
    1.3449  -10.2703   11.2072 H   0  0  0  0  0  0  0  0  0  0  0  0
    0.0949   -8.5930    9.4529 H   0  0  0  0  0  0  0  0  0  0  0  0
    0.6625   -6.9137    9.4300 H   0  0  0  0  0  0  0  0  0  0  0  0
    2.2429   -9.4315    9.1440 H   0  0  0  0  0  0  0  0  0  0  0  0
    2.1615   -9.3167    7.1554 H   0  0  0  0  0  0  0  0  0  0  0  0
    4.4510   -7.3106    7.1455 H   0  0  0  0  0  0  0  0  0  0  0  0
    4.5117   -9.4711    9.2526 H   0  0  0  0  0  0  0  0  0  0  0  0
    5.6478   -6.8961    9.0452 H   0  0  0  0  0  0  0  0  0  0  0  0
    3.9550   -5.7916    8.8618 H   0  0  0  0  0  0  0  0  0  0  0  0
    4.1133   -5.9210   10.5908 H   0  0  0  0  0  0  0  0  0  0  0  0
    2.5300   -5.6896    9.8917 H   0  0  0  0  0  0  0  0  0  0  0  0
    6.8098  -10.4501    6.4531 H   0  0  0  0  0  0  0  0  0  0  0  0
    6.0906  -10.3676    8.0188 H   0  0  0  0  0  0  0  0  0  0  0  0
    6.8891   -8.9678    7.3671 H   0  0  0  0  0  0  0  0  0  0  0  0
    4.7231  -11.4719    5.8698 H   0  0  0  0  0  0  0  0  0  0  0  0
    3.1798  -10.7039    5.9895 H   0  0  0  0  0  0  0  0  0  0  0  0
    4.0096  -11.1206    7.4350 H   0  0  0  0  0  0  0  0  0  0  0  0
    5.7020   -9.8305    4.5118 H   0  0  0  0  0  0  0  0  0  0  0  0
    6.8429   -5.5188    3.9857 H   0  0  0  0  0  0  0  0  0  0  0  0
    7.9635   -6.5538    3.1877 H   0  0  0  0  0  0  0  0  0  0  0  0
    5.8543   -8.3201    0.9160 H   0  0  0  0  0  0  0  0  0  0  0  0
    6.8666   -8.6842    2.2719 H   0  0  0  0  0  0  0  0  0  0  0  0
    2.6199   -9.1145    2.5948 H   0  0  0  0  0  0  0  0  0  0  0  0
    2.6720  -12.6154    3.2878 H   0  0  0  0  0  0  0  0  0  0  0  0
    1.7120  -11.3716    2.4912 H   0  0  0  0  0  0  0  0  0  0  0  0
    1.5091  -11.6712    4.2122 H   0  0  0  0  0  0  0  0  0  0  0  0
    0.8611   -9.2079    3.8111 H   0  0  0  0  0  0  0  0  0  0  0  0
    1.5236   -9.6960    5.2682 H   0  0  0  0  0  0  0  0  0  0  0  0
    0.0087   -5.9586    4.6776 H   0  0  0  0  0  0  0  0  0  0  0  0
   -0.6304   -7.5788    4.8930 H   0  0  0  0  0  0  0  0  0  0  0  0
    0.1071   -7.1365    3.3765 H   0  0  0  0  0  0  0  0  0  0  0  0
    0.5081   -7.6161    6.9246 H   0  0  0  0  0  0  0  0  0  0  0  0
    0.7773   -5.3336    6.7721 H   0  0  0  0  0  0  0  0  0  0  0  0
    2.2416   -5.5748    7.6553 H   0  0  0  0  0  0  0  0  0  0  0  0
    1.9631   -4.5903    4.9368 H   0  0  0  0  0  0  0  0  0  0  0  0
    3.4887   -4.8740    5.7869 H   0  0  0  0  0  0  0  0  0  0  0  0
    3.3276   -7.0576    5.4643 H   0  0  0  0  0  0  0  0  0  0  0  0
    4.7036   -6.5216    4.4768 H   0  0  0  0  0  0  0  0  0  0  0  0
    4.6716   -5.1006    3.0095 H   0  0  0  0  0  0  0  0  0  0  0  0
    3.5378   -7.0717    1.0159 H   0  0  0  0  0  0  0  0  0  0  0  0
    3.5283   -3.1653    1.1801 H   0  0  0  0  0  0  0  0  0  0  0  0
    2.9687   -3.7087    2.7454 H   0  0  0  0  0  0  0  0  0  0  0  0
    1.8195   -3.1447    1.5562 H   0  0  0  0  0  0  0  0  0  0  0  0
    2.6491   -4.6075   -1.0053 H   0  0  0  0  0  0  0  0  0  0  0  0
    1.0414   -4.6723   -0.3954 H   0  0  0  0  0  0  0  0  0  0  0  0
    1.8657   -6.1608   -0.6651 H   0  0  0  0  0  0  0  0  0  0  0  0
    1.9206   -5.9631    2.7393 H   0  0  0  0  0  0  0  0  0  0  0  0
    5.0344   -6.5152   -0.4893 H   0  0  0  0  0  0  0  0  0  0  0  0
    4.4186   -4.5234   -1.0233 H   0  0  0  0  0  0  0  0  0  0  0  0
    6.6508   -4.8752    1.4662 H   0  0  0  0  0  0  0  0  0  0  0  0
    7.1761   -6.2973    0.5852 H   0  0  0  0  0  0  0  0  0  0  0  0
  1  2  2  0
  1 45  1  0
  1 46  1  0
  2  3  1  0
  2 47  1  0
  3 13  1  0
  3  4  1  1
  3  5  1  0
  4 48  1  0
  4 49  1  0
  4 50  1  0
  5  6  1  0
  5 51  1  0
  5 52  1  0
  6 11  1  0
  6  7  1  0
  6 53  1  1
  7 31  1  0
  7  8  1  0
  7 54  1  6
  8  9  1  0
  8 14  1  0
  8 55  1  6
  9 10  1  0
  9 11  1  0
  9 56  1  1
 10 57  1  0
 11 12  1  1
 11 13  1  0
 12 58  1  0
 12 59  1  0
 12 60  1  0
 14 15  1  0
 14 16  1  0
 14 17  1  0
 15 61  1  0
 15 62  1  0
 15 63  1  0
 16 64  1  0
 16 65  1  0
 16 66  1  0
 17 24  1  0
 17 18  1  0
 17 67  1  6
 18 19  2  0
 18 20  1  6
 20 21  1  0
 20 68  1  0
 20 69  1  0
 21 36  1  0
 21 44  1  6
 21 22  1  0
 22 23  1  0
 22 70  1  0
 22 71  1  0
 24 23  1  6
 24 35  1  0
 24 25  1  0
 25 26  1  0
 25 28  1  0
 25 72  1  6
 26 27  1  0
 27 73  1  0
 27 74  1  0
 27 75  1  0
 28 29  1  0
 28 76  1  0
 28 77  1  0
 29 34  1  0
 29 30  1  6
 29 31  1  0
 30 78  1  0
 30 79  1  0
 30 80  1  0
 31 32  1  0
 31 81  1  1
 32 33  1  0
 32 82  1  0
 32 83  1  0
 33 34  1  0
 33 84  1  0
 33 85  1  0
 34 35  1  0
 34 86  1  6
 35 36  1  0
 35 87  1  1
 36 37  1  0
 36 88  1  1
 37 38  1  0
 37 42  1  0
 37 89  1  6
 38 39  1  0
 38 40  1  0
 38 41  1  0
 39 90  1  0
 39 91  1  0
 39 92  1  0
 40 93  1  0
 40 94  1  0
 40 95  1  0
 41 96  1  0
 42 43  1  0
 42 44  1  0
 42 97  1  6
 43 98  1  0
 44 99  1  0
 44100  1  0
M  END
>  <i_m_ct_stereo_status>  (158) 
1

>  <s_m_source_file>  (158) 
/var/tmp/pbs.5075288.sched01/tmpd529dnjr/198klec4xt1.sdf

>  <i_m_source_file_index>  (158) 
61

>  <i_lp_mmshare_version>  (158) 
48012

>  <i_f3d_flags>  (158) 
0

>  <s_epik_input>  (158) 
W0NIMl09W0NIXVtDQEBdKFtDSDNdKShbQ0gyXTEpT1tDQEBdKFtDSDNdKShbQ0BASF0yW09IXSlbQ0BASF0xW0NAQEhdKFtDQEBIXTNbQ0BAXShbQ0gzXSkoW0NAQEhdNFtDSDJdW0NIMl0zKVtDSDJdW0NAQEhdNU9bQ0gzXSlbQ0BASF0yQyhbQ0gzXSkoW0NIM10pW0NASF0oW1MrXShbTy1dKVtDSDJdNilbQ0BdNShPW0NIMl03KVtDQEhdNFtDQEBIXShbQ0BAXTY3OClbQ0BASF0oQyhbQ0gzXSkoW0NIM10pW09IXSlbQ0BASF0oW09IXSlbQ0gyXTg=

>  <s_epik_cmdline>  (158) 
J2VwaWtfcHl0aG9uJywgJy1waHQnLCAnMi4wJywgJy1waCcsICc3LjAnLCAnLXRuJywgJzgnLCAnLW1hJywgJzIwMCcsICctaW1hZScsICc8aW5maWxlLm1hZT4nLCAnLW9tYWUnLCAnPG91dGZpbGUubWFlPic=

>  <r_lp_tautomer_probability>  (158) 
1

>  <r_epik_Ionization_Penalty>  (158) 
1.87993e-06

>  <r_epik_Ionization_Penalty_Charging>  (158) 
0

>  <r_epik_Ionization_Penalty_Neutral>  (158) 
1.87993e-06

>  <r_epik_State_Penalty>  (158) 
-0

>  <r_epik_Charging_Adjusted_Penalty>  (158) 
0

>  <i_epik_Tot_Q>  (158) 
0

>  <i_epik_Tot_abs_Q>  (158) 
2

>  <s_lp_Force_Field>  (158) 
OPLS3e

>  <r_lp_Energy>  (158) 
211.566

>  <b_lp_Chiralities_Consistent>  (158) 
1

>  <s_lp_Variant>  (158) 
103:0-1

>  <s_i_glide_gridfile>  (158) 
pfpi4k_grid

>  <i_i_glide_lignum>  (158) 
61

>  <i_i_glide_rotatable_bonds>  (158) 
6

>  <r_i_docking_score>  (158) 
-1.63045

>  <r_i_glide_ligand_efficiency>  (158) 
-0.0370556

>  <r_i_glide_ligand_efficiency_sa>  (158) 
-0.130819

>  <r_i_glide_ligand_efficiency_ln>  (158) 
-0.340799

>  <r_i_glide_gscore>  (158) 
-1.63045

>  <r_i_glide_lipo>  (158) 
-0.334148

>  <r_i_glide_hbond>  (158) 
-0.0378452

>  <r_i_glide_metal>  (158) 
-0

>  <r_i_glide_rewards>  (158) 
0

>  <r_i_glide_evdw>  (158) 
-18.1108

>  <r_i_glide_ecoul>  (158) 
-3.05702

>  <r_i_glide_erotb>  (158) 
0.10564

>  <r_i_glide_esite>  (158) 
0

>  <r_i_glide_emodel>  (158) 
-23.1894

>  <r_i_glide_energy>  (158) 
-21.1678

>  <r_i_glide_einternal>  (158) 
1.42847

>  <r_i_glide_intrahb_reward>  (158) 
-0

>  <i_i_glide_confnum>  (158) 
5

>  <i_i_glide_posenum>  (158) 
2

>  <r_i_glide_eff_state_penalty>  (158) 
0

>  <ligand_id>  (158) 
103

>  <original_smiles>  (158) 
C=CC1(C)CC2C3C(C(O)C2(C)O1)C(C)(C)C1[S+]([O-])CC24COC15C(OC)CC1(C)C3CCC1C5C2C(C(C)(C)O)C(O)C4

>  <smiles>  (158) 
[H]OC1([H])C([H])([H])C23C([H])([H])OC45C([H])(OC([H])([H])[H])C([H])([H])C6(C([H])([H])[H])C([H])(C([H])([H])C([H])([H])C6([H])C4([H])C2([H])C1([H])C(O[H])(C([H])([H])[H])C([H])([H])[H])C1([H])C2([H])C([H])([H])C(C([H])=C([H])[H])(C([H])([H])[H])OC2(C([H])([H])[H])C([H])(O[H])C1([H])C(C([H])([H])[H])(C([H])([H])[H])C5([H])S(=O)C3([H])[H]

$$$$
103:0:2
     RDKit          3D

100107  0  0  1  0  0  0  0  0999 V2000
    2.8050    1.5827    3.2423 C   0  0  0  0  0  0  0  0  0  0  0  0
    1.5925    1.4825    3.7999 C   0  0  0  0  0  0  0  0  0  0  0  0
    0.7435    0.2282    4.0400 C   0  0  1  0  0  0  0  0  0  0  0  0
   -0.7519    0.5924    3.8844 C   0  0  0  0  0  0  0  0  0  0  0  0
    1.1345   -0.9951    3.1578 C   0  0  0  0  0  0  0  0  0  0  0  0
    1.0794   -2.0663    4.2130 C   0  0  1  0  0  0  0  0  0  0  0  0
    1.5266   -3.5269    4.1008 C   0  0  2  0  0  0  0  0  0  0  0  0
    1.7701   -3.9161    5.6501 C   0  0  1  0  0  0  0  0  0  0  0  0
    1.3238   -2.5956    6.4196 C   0  0  1  0  0  0  0  0  0  0  0  0
    1.9864   -2.4176    7.6539 O   0  0  0  0  0  0  0  0  0  0  0  0
    1.6428   -1.4397    5.4594 C   0  0  1  0  0  0  0  0  0  0  0  0
    3.1347   -1.0225    5.5388 C   0  0  0  0  0  0  0  0  0  0  0  0
    0.8652   -0.2423    5.4055 O   0  0  0  0  0  0  0  0  0  0  0  0
    1.1138   -5.2799    6.2300 C   0  0  0  0  0  0  0  0  0  0  0  0
    0.7131   -5.0908    7.7291 C   0  0  0  0  0  0  0  0  0  0  0  0
   -0.2882   -5.4923    5.6207 C   0  0  0  0  0  0  0  0  0  0  0  0
    1.9717   -6.6594    6.1927 C   0  0  2  0  0  0  0  0  0  0  0  0
    3.2523   -6.6712    7.5998 S   0  0  0  0  0  0  0  0  0  0  0  0
    2.5921   -7.3225    8.8136 O   0  0  0  0  0  0  0  0  0  0  0  0
    4.8239   -7.6647    7.2496 C   0  0  0  0  0  0  0  0  0  0  0  0
    4.8095   -8.5923    6.0033 C   0  0  1  0  0  0  0  0  0  0  0  0
    3.4736   -9.3552    5.9941 C   0  0  0  0  0  0  0  0  0  0  0  0
    2.5399   -8.7694    5.1172 O   0  0  0  0  0  0  0  0  0  0  0  0
    2.5207   -7.3586    4.8794 C   0  0  1  0  0  0  0  0  0  0  0  0
    1.5969   -7.4707    3.6267 C   0  0  1  0  0  0  0  0  0  0  0  0
    0.2947   -7.8990    4.0281 O   0  0  0  0  0  0  0  0  0  0  0  0
   -0.4889   -8.5386    3.0305 C   0  0  0  0  0  0  0  0  0  0  0  0
    1.5103   -6.2922    2.6220 C   0  0  0  0  0  0  0  0  0  0  0  0
    2.7398   -5.3481    2.5017 C   0  0  1  0  0  0  0  0  0  0  0  0
    3.2030   -5.4003    1.0189 C   0  0  0  0  0  0  0  0  0  0  0  0
    2.5118   -3.8287    2.8776 C   0  0  2  0  0  0  0  0  0  0  0  0
    3.9831   -3.3117    3.0285 C   0  0  0  0  0  0  0  0  0  0  0  0
    4.8842   -4.5116    3.4283 C   0  0  0  0  0  0  0  0  0  0  0  0
    3.8768   -5.6538    3.4982 C   0  0  2  0  0  0  0  0  0  0  0  0
    3.9363   -6.8517    4.4717 C   0  0  2  0  0  0  0  0  0  0  0  0
    5.0982   -7.8474    4.6680 C   0  0  2  0  0  0  0  0  0  0  0  0
    5.4184   -8.9768    3.6536 C   0  0  1  0  0  0  0  0  0  0  0  0
    6.1442   -8.5585    2.3306 C   0  0  0  0  0  0  0  0  0  0  0  0
    7.4156   -7.7022    2.5103 C   0  0  0  0  0  0  0  0  0  0  0  0
    6.3995   -9.7566    1.3968 C   0  0  0  0  0  0  0  0  0  0  0  0
    5.2383   -7.7629    1.6122 O   0  0  0  0  0  0  0  0  0  0  0  0
    6.1006  -10.0720    4.5395 C   0  0  1  0  0  0  0  0  0  0  0  0
    7.4687  -10.3193    4.2951 O   0  0  0  0  0  0  0  0  0  0  0  0
    5.9557   -9.6078    6.0043 C   0  0  0  0  0  0  0  0  0  0  0  0
    3.3735    0.7315    2.8950 H   0  0  0  0  0  0  0  0  0  0  0  0
    3.2666    2.5549    3.1204 H   0  0  0  0  0  0  0  0  0  0  0  0
    1.1250    2.4073    4.1023 H   0  0  0  0  0  0  0  0  0  0  0  0
   -0.9839    0.9327    2.8753 H   0  0  0  0  0  0  0  0  0  0  0  0
   -1.0354    1.3928    4.5677 H   0  0  0  0  0  0  0  0  0  0  0  0
   -1.4079   -0.2498    4.1041 H   0  0  0  0  0  0  0  0  0  0  0  0
    0.4251   -1.1585    2.3441 H   0  0  0  0  0  0  0  0  0  0  0  0
    2.1333   -0.9516    2.7263 H   0  0  0  0  0  0  0  0  0  0  0  0
    0.0040   -2.1689    4.3955 H   0  0  0  0  0  0  0  0  0  0  0  0
    0.6054   -3.9834    3.7751 H   0  0  0  0  0  0  0  0  0  0  0  0
    2.8416   -3.9608    5.8435 H   0  0  0  0  0  0  0  0  0  0  0  0
    0.2475   -2.5993    6.6035 H   0  0  0  0  0  0  0  0  0  0  0  0
    2.9253   -2.4123    7.4874 H   0  0  0  0  0  0  0  0  0  0  0  0
    3.7902   -1.8522    5.7959 H   0  0  0  0  0  0  0  0  0  0  0  0
    3.2740   -0.2845    6.3292 H   0  0  0  0  0  0  0  0  0  0  0  0
    3.5029   -0.5714    4.6181 H   0  0  0  0  0  0  0  0  0  0  0  0
    0.3232   -6.0138    8.1568 H   0  0  0  0  0  0  0  0  0  0  0  0
   -0.0818   -4.3593    7.8680 H   0  0  0  0  0  0  0  0  0  0  0  0
    1.5331   -4.7730    8.3679 H   0  0  0  0  0  0  0  0  0  0  0  0
   -0.7883   -6.3483    6.0700 H   0  0  0  0  0  0  0  0  0  0  0  0
   -0.2941   -5.6773    4.5614 H   0  0  0  0  0  0  0  0  0  0  0  0
   -0.9266   -4.6227    5.7759 H   0  0  0  0  0  0  0  0  0  0  0  0
    1.2472   -7.3978    6.5442 H   0  0  0  0  0  0  0  0  0  0  0  0
    5.6672   -6.9750    7.1938 H   0  0  0  0  0  0  0  0  0  0  0  0
    5.0220   -8.2638    8.1406 H   0  0  0  0  0  0  0  0  0  0  0  0
    3.5980  -10.3770    5.6403 H   0  0  0  0  0  0  0  0  0  0  0  0
    3.0559   -9.4497    6.9958 H   0  0  0  0  0  0  0  0  0  0  0  0
    2.0304   -8.2772    3.0295 H   0  0  0  0  0  0  0  0  0  0  0  0
   -1.4153   -8.9111    3.4727 H   0  0  0  0  0  0  0  0  0  0  0  0
    0.0450   -9.3902    2.6048 H   0  0  0  0  0  0  0  0  0  0  0  0
   -0.7573   -7.8473    2.2290 H   0  0  0  0  0  0  0  0  0  0  0  0
    1.3585   -6.7841    1.6569 H   0  0  0  0  0  0  0  0  0  0  0  0
    0.5867   -5.7331    2.7023 H   0  0  0  0  0  0  0  0  0  0  0  0
    4.1325   -4.8649    0.8352 H   0  0  0  0  0  0  0  0  0  0  0  0
    2.4470   -4.9506    0.3725 H   0  0  0  0  0  0  0  0  0  0  0  0
    3.3427   -6.4198    0.6626 H   0  0  0  0  0  0  0  0  0  0  0  0
    2.0661   -3.3307    2.0146 H   0  0  0  0  0  0  0  0  0  0  0  0
    4.3263   -2.9136    2.0727 H   0  0  0  0  0  0  0  0  0  0  0  0
    4.0797   -2.4997    3.7311 H   0  0  0  0  0  0  0  0  0  0  0  0
    5.6539   -4.7003    2.6769 H   0  0  0  0  0  0  0  0  0  0  0  0
    5.3827   -4.3398    4.3847 H   0  0  0  0  0  0  0  0  0  0  0  0
    3.3454   -5.1970    4.3054 H   0  0  0  0  0  0  0  0  0  0  0  0
    4.2966   -6.2927    5.3317 H   0  0  0  0  0  0  0  0  0  0  0  0
    6.0139   -7.2714    4.8178 H   0  0  0  0  0  0  0  0  0  0  0  0
    4.4634   -9.4078    3.3518 H   0  0  0  0  0  0  0  0  0  0  0  0
    8.1841   -8.2171    3.0841 H   0  0  0  0  0  0  0  0  0  0  0  0
    7.2102   -6.7570    3.0126 H   0  0  0  0  0  0  0  0  0  0  0  0
    7.8605   -7.4549    1.5465 H   0  0  0  0  0  0  0  0  0  0  0  0
    7.1480  -10.4381    1.7924 H   0  0  0  0  0  0  0  0  0  0  0  0
    6.7535   -9.4316    0.4204 H   0  0  0  0  0  0  0  0  0  0  0  0
    5.4868  -10.3308    1.2388 H   0  0  0  0  0  0  0  0  0  0  0  0
    4.8907   -7.1019    2.2005 H   0  0  0  0  0  0  0  0  0  0  0  0
    5.5645  -11.0163    4.3908 H   0  0  0  0  0  0  0  0  0  0  0  0
    7.7074  -11.1191    4.7459 H   0  0  0  0  0  0  0  0  0  0  0  0
    6.8752   -9.1075    6.3187 H   0  0  0  0  0  0  0  0  0  0  0  0
    5.7962  -10.4377    6.6941 H   0  0  0  0  0  0  0  0  0  0  0  0
  1  2  2  0
  1 45  1  0
  1 46  1  0
  2  3  1  0
  2 47  1  0
  3 13  1  0
  3  4  1  6
  3  5  1  0
  4 48  1  0
  4 49  1  0
  4 50  1  0
  5  6  1  0
  5 51  1  0
  5 52  1  0
  6 11  1  0
  6  7  1  0
  6 53  1  1
  7 31  1  0
  7  8  1  0
  7 54  1  6
  8  9  1  0
  8 14  1  0
  8 55  1  6
  9 10  1  0
  9 11  1  0
  9 56  1  1
 10 57  1  0
 11 12  1  6
 11 13  1  0
 12 58  1  0
 12 59  1  0
 12 60  1  0
 14 15  1  0
 14 16  1  0
 14 17  1  0
 15 61  1  0
 15 62  1  0
 15 63  1  0
 16 64  1  0
 16 65  1  0
 16 66  1  0
 17 24  1  0
 17 18  1  0
 17 67  1  1
 18 19  2  0
 18 20  1  6
 20 21  1  0
 20 68  1  0
 20 69  1  0
 21 36  1  0
 21 44  1  1
 21 22  1  0
 22 23  1  0
 22 70  1  0
 22 71  1  0
 24 23  1  1
 24 35  1  0
 24 25  1  0
 25 26  1  0
 25 28  1  0
 25 72  1  6
 26 27  1  0
 27 73  1  0
 27 74  1  0
 27 75  1  0
 28 29  1  0
 28 76  1  0
 28 77  1  0
 29 34  1  0
 29 30  1  6
 29 31  1  0
 30 78  1  0
 30 79  1  0
 30 80  1  0
 31 32  1  0
 31 81  1  6
 32 33  1  0
 32 82  1  0
 32 83  1  0
 33 34  1  0
 33 84  1  0
 33 85  1  0
 34 35  1  0
 34 86  1  6
 35 36  1  0
 35 87  1  1
 36 37  1  0
 36 88  1  1
 37 38  1  0
 37 42  1  0
 37 89  1  6
 38 39  1  0
 38 40  1  0
 38 41  1  0
 39 90  1  0
 39 91  1  0
 39 92  1  0
 40 93  1  0
 40 94  1  0
 40 95  1  0
 41 96  1  0
 42 43  1  0
 42 44  1  0
 42 97  1  1
 43 98  1  0
 44 99  1  0
 44100  1  0
M  END
>  <i_m_ct_stereo_status>  (159) 
1

>  <s_m_source_file>  (159) 
/var/tmp/pbs.5075288.sched01/tmpd529dnjr/198klec4xt1.sdf

>  <i_m_source_file_index>  (159) 
61

>  <i_lp_mmshare_version>  (159) 
48012

>  <i_f3d_flags>  (159) 
0

>  <s_epik_input>  (159) 
W0NIMl09W0NIXVtDQEBdKFtDSDNdKShbQ0gyXTEpT1tDQEBdKFtDSDNdKShbQ0BASF0yW09IXSlbQ0BASF0xW0NAQEhdKFtDQEBIXTNbQ0BAXShbQ0gzXSkoW0NAQEhdNFtDSDJdW0NIMl0zKVtDSDJdW0NAQEhdNU9bQ0gzXSlbQ0BASF0yQyhbQ0gzXSkoW0NIM10pW0NASF0oW1MrXShbTy1dKVtDSDJdNilbQ0BdNShPW0NIMl03KVtDQEhdNFtDQEBIXShbQ0BAXTY3OClbQ0BASF0oQyhbQ0gzXSkoW0NIM10pW09IXSlbQ0BASF0oW09IXSlbQ0gyXTg=

>  <s_epik_cmdline>  (159) 
J2VwaWtfcHl0aG9uJywgJy1waHQnLCAnMi4wJywgJy1waCcsICc3LjAnLCAnLXRuJywgJzgnLCAnLW1hJywgJzIwMCcsICctaW1hZScsICc8aW5maWxlLm1hZT4nLCAnLW9tYWUnLCAnPG91dGZpbGUubWFlPic=

>  <r_lp_tautomer_probability>  (159) 
1

>  <r_epik_Ionization_Penalty>  (159) 
1.87993e-06

>  <r_epik_Ionization_Penalty_Charging>  (159) 
0

>  <r_epik_Ionization_Penalty_Neutral>  (159) 
1.87993e-06

>  <r_epik_State_Penalty>  (159) 
-0

>  <r_epik_Charging_Adjusted_Penalty>  (159) 
0

>  <i_epik_Tot_Q>  (159) 
0

>  <i_epik_Tot_abs_Q>  (159) 
2

>  <s_lp_Force_Field>  (159) 
OPLS3e

>  <r_lp_Energy>  (159) 
211.566

>  <b_lp_Chiralities_Consistent>  (159) 
1

>  <s_lp_Variant>  (159) 
103:0-1

>  <s_i_glide_gridfile>  (159) 
pfpi4k_grid

>  <i_i_glide_lignum>  (159) 
61

>  <i_i_glide_rotatable_bonds>  (159) 
6

>  <r_i_docking_score>  (159) 
-1.4486

>  <r_i_glide_ligand_efficiency>  (159) 
-0.0329226

>  <r_i_glide_ligand_efficiency_sa>  (159) 
-0.116228

>  <r_i_glide_ligand_efficiency_ln>  (159) 
-0.302788

>  <r_i_glide_gscore>  (159) 
-1.4486

>  <r_i_glide_lipo>  (159) 
-0.0604974

>  <r_i_glide_hbond>  (159) 
0

>  <r_i_glide_metal>  (159) 
-0

>  <r_i_glide_rewards>  (159) 
0

>  <r_i_glide_evdw>  (159) 
-22.933

>  <r_i_glide_ecoul>  (159) 
-2.31391

>  <r_i_glide_erotb>  (159) 
0.10564

>  <r_i_glide_esite>  (159) 
0

>  <r_i_glide_emodel>  (159) 
-25.7587

>  <r_i_glide_energy>  (159) 
-25.2469

>  <r_i_glide_einternal>  (159) 
3.2806

>  <r_i_glide_intrahb_reward>  (159) 
-0

>  <i_i_glide_confnum>  (159) 
4

>  <i_i_glide_posenum>  (159) 
1

>  <r_i_glide_eff_state_penalty>  (159) 
0

>  <ligand_id>  (159) 
103

>  <original_smiles>  (159) 
C=CC1(C)CC2C3C(C(O)C2(C)O1)C(C)(C)C1[S+]([O-])CC24COC15C(OC)CC1(C)C3CCC1C5C2C(C(C)(C)O)C(O)C4

>  <smiles>  (159) 
[H]OC1([H])C([H])([H])C23C([H])([H])OC45C([H])(OC([H])([H])[H])C([H])([H])C6(C([H])([H])[H])C([H])(C([H])([H])C([H])([H])C6([H])C4([H])C2([H])C1([H])C(O[H])(C([H])([H])[H])C([H])([H])[H])C1([H])C2([H])C([H])([H])C(C([H])=C([H])[H])(C([H])([H])[H])OC2(C([H])([H])[H])C([H])(O[H])C1([H])C(C([H])([H])[H])(C([H])([H])[H])C5([H])S(=O)C3([H])[H]

$$$$
