6:0:0
     RDKit          3D

122129  0  0  1  0  0  0  0  0999 V2000
    3.0885   -6.8381    7.3769 C   0  0  0  0  0  0  0  0  0  0  0  0
    2.7376   -5.6297    6.8949 C   0  0  0  0  0  0  0  0  0  0  0  0
    2.4903   -4.3708    7.6530 C   0  0  0  0  0  0  0  0  0  0  0  0
    2.5505   -3.2391    6.5780 C   0  0  2  0  0  0  0  0  0  0  0  0
    2.3238   -4.0237    5.3955 O   0  0  0  0  0  0  0  0  0  0  0  0
    2.5463   -5.3402    5.4947 C   0  0  0  0  0  0  0  0  0  0  0  0
    2.5535   -6.1327    4.5567 O   0  0  0  0  0  0  0  0  0  0  0  0
    3.9208   -2.5524    6.4508 C   0  0  0  0  0  0  0  0  0  0  0  0
    5.0959   -3.1433    6.6309 C   0  0  0  0  0  0  0  0  0  0  0  0
    3.7270   -1.0707    6.0823 C   0  0  1  0  0  0  0  0  0  0  0  0
    4.6325   -0.6372    5.0655 O   0  0  0  0  0  0  0  0  0  0  0  0
    5.8138   -0.0809    5.3771 C   0  0  0  0  0  0  0  0  0  0  0  0
    6.5061    0.5107    4.1630 C   0  0  0  0  0  0  0  0  0  0  0  0
    6.3212   -0.0255    6.4940 O   0  0  0  0  0  0  0  0  0  0  0  0
    2.2613   -1.0369    5.6150 C   0  0  2  0  0  0  0  0  0  0  0  0
    2.2260   -1.5222    4.1259 C   0  0  0  0  0  0  0  0  0  0  0  0
    1.4834    0.1411    5.3343 O   0  0  0  0  0  0  0  0  0  0  0  0
    1.7745    1.5433    5.3413 C   0  0  1  0  0  0  0  0  0  0  0  0
    2.6716    1.8159    4.2861 O   0  0  0  0  0  0  0  0  0  0  0  0
    0.2592    2.2057    4.8433 C   0  0  1  0  0  0  0  0  0  0  0  0
   -0.3961    1.2652    3.9913 O   0  0  0  0  0  0  0  0  0  0  0  0
   -0.3627    1.2962    2.6371 C   0  0  0  0  0  0  0  0  0  0  0  0
    0.9085    1.7762    1.9548 C   0  0  0  0  0  0  0  0  0  0  0  0
   -1.2987    0.8838    1.9594 O   0  0  0  0  0  0  0  0  0  0  0  0
   -0.9461    2.8220    5.8650 C   0  0  1  0  0  0  0  0  0  0  0  0
   -1.5429    3.9902    5.2642 O   0  0  0  0  0  0  0  0  0  0  0  0
   -2.0805    3.9321    3.9219 C   0  0  0  0  0  0  0  0  0  0  0  0
   -3.1946    2.9231    3.5941 C   0  0  0  0  0  0  0  0  0  0  0  0
   -2.2912    2.2676    6.5626 C   0  0  0  0  0  0  0  0  0  0  0  0
   -2.1623    2.4634    8.1464 C   0  0  0  0  0  0  0  0  0  0  0  0
   -0.6913    2.9488    8.4838 C   0  0  1  0  0  0  0  0  0  0  0  0
    0.5565    2.2444    9.3385 C   0  0  2  0  0  0  0  0  0  0  0  0
    0.3708    2.7023   10.8092 C   0  0  0  0  0  0  0  0  0  0  0  0
    2.0684    2.6192    8.7311 C   0  0  1  0  0  0  0  0  0  0  0  0
    2.7236    2.1337    6.9396 S   0  0  0  0  0  0  0  0  0  0  0  0
    4.2171    1.8063    6.9599 O   0  0  0  0  0  0  0  0  0  0  0  0
    2.6552    4.0497    9.0431 C   0  0  2  0  0  0  0  0  0  0  0  0
    3.3700    3.9772   10.4257 C   0  0  0  0  0  0  0  0  0  0  0  0
    1.5792    4.9307    9.2738 O   0  0  0  0  0  0  0  0  0  0  0  0
    0.8622    5.3889    8.1573 C   0  0  0  0  0  0  0  0  0  0  0  0
    0.7350    4.4092    6.9465 C   0  0  1  0  0  0  0  0  0  0  0  0
    1.8735    4.8870    5.9024 C   0  0  1  0  0  0  0  0  0  0  0  0
    1.3820    6.0109    4.8631 C   0  0  0  0  0  0  0  0  0  0  0  0
    0.7829    7.3146    5.4436 C   0  0  0  0  0  0  0  0  0  0  0  0
    2.3623    6.3460    3.7171 C   0  0  0  0  0  0  0  0  0  0  0  0
    0.3248    5.5003    4.0862 O   0  0  0  0  0  0  0  0  0  0  0  0
    3.3137    5.2158    6.5590 C   0  0  1  0  0  0  0  0  0  0  0  0
    4.4738    4.8083    5.6051 C   0  0  0  0  0  0  0  0  0  0  0  0
    3.5029    6.6256    6.6366 O   0  0  0  0  0  0  0  0  0  0  0  0
    3.6959    4.6563    8.0086 C   0  0  1  0  0  0  0  0  0  0  0  0
    4.5832    5.5569    8.6696 O   0  0  0  0  0  0  0  0  0  0  0  0
   -0.1342    2.9285    7.1079 C   0  0  2  0  0  0  0  0  0  0  0  0
   -0.0657    1.1997    7.2085 C   0  0  0  0  0  0  0  0  0  0  0  0
   -0.4789    0.4215    8.3215 O   0  0  0  0  0  0  0  0  0  0  0  0
    0.4035    0.6292    9.3352 C   0  0  2  0  0  0  0  0  0  0  0  0
   -0.1819    0.1414   10.5233 O   0  0  0  0  0  0  0  0  0  0  0  0
    1.6858   -0.3059    9.0366 C   0  0  0  0  0  0  0  0  0  0  0  0
    1.4289   -1.6569    8.2775 C   0  0  0  0  0  0  0  0  0  0  0  0
    1.5615   -2.0182    6.6922 C   0  0  2  0  0  0  0  0  0  0  0  0
    0.1287   -2.4292    6.2618 C   0  0  0  0  0  0  0  0  0  0  0  0
    3.2528   -7.6708    6.7077 H   0  0  0  0  0  0  0  0  0  0  0  0
    3.2248   -7.0117    8.4350 H   0  0  0  0  0  0  0  0  0  0  0  0
    1.4877   -4.4519    8.0581 H   0  0  0  0  0  0  0  0  0  0  0  0
    3.1932   -4.2525    8.4788 H   0  0  0  0  0  0  0  0  0  0  0  0
    5.1460   -4.1910    6.8785 H   0  0  0  0  0  0  0  0  0  0  0  0
    6.0223   -2.6059    6.5216 H   0  0  0  0  0  0  0  0  0  0  0  0
    3.8608   -0.5077    7.0009 H   0  0  0  0  0  0  0  0  0  0  0  0
    6.6974   -0.2552    3.4122 H   0  0  0  0  0  0  0  0  0  0  0  0
    7.4544    0.9792    4.4378 H   0  0  0  0  0  0  0  0  0  0  0  0
    5.8362    1.2453    3.7216 H   0  0  0  0  0  0  0  0  0  0  0  0
    2.9039   -2.3451    3.9000 H   0  0  0  0  0  0  0  0  0  0  0  0
    2.5541   -0.7327    3.4450 H   0  0  0  0  0  0  0  0  0  0  0  0
    1.2276   -1.8058    3.7907 H   0  0  0  0  0  0  0  0  0  0  0  0
    2.1891    2.0333    3.5231 H   0  0  0  0  0  0  0  0  0  0  0  0
    0.5229    3.0774    4.2734 H   0  0  0  0  0  0  0  0  0  0  0  0
    1.7253    1.0807    2.1575 H   0  0  0  0  0  0  0  0  0  0  0  0
    1.1445    2.8089    2.2130 H   0  0  0  0  0  0  0  0  0  0  0  0
    0.7586    1.7492    0.8831 H   0  0  0  0  0  0  0  0  0  0  0  0
   -2.4694    4.9254    3.7149 H   0  0  0  0  0  0  0  0  0  0  0  0
   -1.2765    3.8052    3.2010 H   0  0  0  0  0  0  0  0  0  0  0  0
   -3.3821    2.9922    2.5191 H   0  0  0  0  0  0  0  0  0  0  0  0
   -4.1274    3.1058    4.1344 H   0  0  0  0  0  0  0  0  0  0  0  0
   -2.8922    1.8988    3.8162 H   0  0  0  0  0  0  0  0  0  0  0  0
   -3.1624    2.8302    6.2306 H   0  0  0  0  0  0  0  0  0  0  0  0
   -2.5382    1.2394    6.2876 H   0  0  0  0  0  0  0  0  0  0  0  0
   -2.8548    3.2399    8.4635 H   0  0  0  0  0  0  0  0  0  0  0  0
   -2.4648    1.5753    8.7048 H   0  0  0  0  0  0  0  0  0  0  0  0
   -0.8842    3.9206    8.9108 H   0  0  0  0  0  0  0  0  0  0  0  0
    1.0640    2.1766   11.4751 H   0  0  0  0  0  0  0  0  0  0  0  0
   -0.6548    2.5177   11.1554 H   0  0  0  0  0  0  0  0  0  0  0  0
    0.5139    3.7719   10.9355 H   0  0  0  0  0  0  0  0  0  0  0  0
    2.7371    2.0130    9.3270 H   0  0  0  0  0  0  0  0  0  0  0  0
    4.3381    3.4713   10.3494 H   0  0  0  0  0  0  0  0  0  0  0  0
    2.8028    3.4456   11.1801 H   0  0  0  0  0  0  0  0  0  0  0  0
    3.5488    4.9745   10.8340 H   0  0  0  0  0  0  0  0  0  0  0  0
   -0.1028    5.7293    8.5209 H   0  0  0  0  0  0  0  0  0  0  0  0
    1.3238    6.3287    7.8600 H   0  0  0  0  0  0  0  0  0  0  0  0
   -0.0585    5.0039    6.5321 H   0  0  0  0  0  0  0  0  0  0  0  0
    2.0607    4.0712    5.2275 H   0  0  0  0  0  0  0  0  0  0  0  0
    1.4847    7.9319    5.9994 H   0  0  0  0  0  0  0  0  0  0  0  0
   -0.0680    7.1092    6.0914 H   0  0  0  0  0  0  0  0  0  0  0  0
    0.4026    7.9373    4.6308 H   0  0  0  0  0  0  0  0  0  0  0  0
    3.2042    6.9625    4.0236 H   0  0  0  0  0  0  0  0  0  0  0  0
    1.8337    6.9246    2.9587 H   0  0  0  0  0  0  0  0  0  0  0  0
    2.7381    5.4465    3.2240 H   0  0  0  0  0  0  0  0  0  0  0  0
    0.6571    5.3647    3.2118 H   0  0  0  0  0  0  0  0  0  0  0  0
    4.4295    3.7589    5.3181 H   0  0  0  0  0  0  0  0  0  0  0  0
    5.4418    4.9740    6.0816 H   0  0  0  0  0  0  0  0  0  0  0  0
    4.5095    5.3816    4.6852 H   0  0  0  0  0  0  0  0  0  0  0  0
    3.3097    6.9978    5.7945 H   0  0  0  0  0  0  0  0  0  0  0  0
    4.4394    3.8830    7.8557 H   0  0  0  0  0  0  0  0  0  0  0  0
    5.2322    5.7904    8.0333 H   0  0  0  0  0  0  0  0  0  0  0  0
   -0.5830    0.6215    6.4510 H   0  0  0  0  0  0  0  0  0  0  0  0
    0.8393    0.7261    7.2102 H   0  0  0  0  0  0  0  0  0  0  0  0
   -0.8022    0.7707   10.8453 H   0  0  0  0  0  0  0  0  0  0  0  0
    2.5164    0.1503    8.5251 H   0  0  0  0  0  0  0  0  0  0  0  0
    2.1156   -0.5291   10.0091 H   0  0  0  0  0  0  0  0  0  0  0  0
    2.2256   -2.2146    8.7525 H   0  0  0  0  0  0  0  0  0  0  0  0
    0.5448   -2.1251    8.7127 H   0  0  0  0  0  0  0  0  0  0  0  0
   -0.5521   -1.5834    6.3147 H   0  0  0  0  0  0  0  0  0  0  0  0
   -0.2755   -3.2101    6.9137 H   0  0  0  0  0  0  0  0  0  0  0  0
    0.0696   -2.8321    5.2520 H   0  0  0  0  0  0  0  0  0  0  0  0
  1  2  2  0
  1 61  1  0
  1 62  1  0
  2  6  1  0
  2  3  1  0
  3  4  1  0
  3 63  1  0
  3 64  1  0
  4 59  1  0
  4  5  1  6
  4  8  1  0
  5  6  1  0
  6  7  2  0
  8  9  2  0
  8 10  1  0
  9 65  1  0
  9 66  1  0
 10 11  1  0
 10 15  1  0
 10 67  1  1
 11 12  1  0
 12 13  1  0
 12 14  2  0
 13 68  1  0
 13 69  1  0
 13 70  1  0
 15 59  1  0
 15 16  1  6
 15 17  1  0
 16 71  1  0
 16 72  1  0
 16 73  1  0
 17 18  1  0
 35 18  1  1
 18 19  1  6
 18 20  1  0
 19 74  1  0
 20 21  1  0
 20 25  1  0
 20 75  1  6
 21 22  1  0
 22 23  1  0
 22 24  2  0
 23 76  1  0
 23 77  1  0
 23 78  1  0
 25 52  1  0
 25 26  1  6
 25 29  1  0
 26 27  1  0
 27 28  1  0
 27 79  1  0
 27 80  1  0
 28 81  1  0
 28 82  1  0
 28 83  1  0
 29 30  1  0
 29 84  1  0
 29 85  1  0
 30 31  1  0
 30 86  1  0
 30 87  1  0
 31 52  1  0
 31 32  1  0
 31 88  1  1
 32 55  1  0
 32 33  1  1
 32 34  1  0
 33 89  1  0
 33 90  1  0
 33 91  1  0
 34 35  1  0
 34 37  1  0
 34 92  1  1
 35 36  2  0
 37 50  1  0
 37 38  1  1
 37 39  1  0
 38 93  1  0
 38 94  1  0
 38 95  1  0
 39 40  1  0
 40 41  1  0
 40 96  1  0
 40 97  1  0
 41 42  1  0
 41 52  1  0
 41 98  1  6
 42 43  1  0
 42 47  1  0
 42 99  1  6
 43 44  1  0
 43 45  1  0
 43 46  1  0
 44100  1  0
 44101  1  0
 44102  1  0
 45103  1  0
 45104  1  0
 45105  1  0
 46106  1  0
 47 48  1  0
 47 49  1  1
 47 50  1  0
 48107  1  0
 48108  1  0
 48109  1  0
 49110  1  0
 50 51  1  0
 50111  1  6
 51112  1  0
 52 53  1  1
 53 54  1  0
 53113  1  0
 53114  1  0
 54 55  1  0
 55 56  1  1
 55 57  1  0
 56115  1  0
 57 58  1  0
 57116  1  0
 57117  1  0
 58 59  1  0
 58118  1  0
 58119  1  0
 59 60  1  6
 60120  1  0
 60121  1  0
 60122  1  0
M  END
>  <i_m_ct_stereo_status>  (1) 
1

>  <s_m_source_file>  (1) 
/var/tmp/pbs.5075288.sched01/tmpzl_yb0kw/0ymjshsm9.sdf

>  <i_m_source_file_index>  (1) 
27

>  <i_lp_mmshare_version>  (1) 
48012

>  <i_f3d_flags>  (1) 
0

>  <s_epik_input>  (1) 
TzFDKD1PKUMoPVtDSDJdKVtDSDJdW0NAXTEyW0NAXTMoW0NIM10pW0NAXShbQ0gzXSkoW0NAQEhdKEMyPVtDSDJdKU9DKD1PKVtDSDNdKU9bQ0BAXTQoW09IXSlbQ0BASF0oT0MoPU8pW0NIM10pW0NAXTUoT1tDSDJdW0NIM10pW0NAXTY3W0NIXShbQ0gyXVtDSDJdNSlbQ0BAXShbQ0gzXSkoW0NAQF0oW09IXSkoT1tDSDJdNylbQ0gyXVtDSDJdMylbQ0BASF0oW1MrXTRbTy1dKVtDQF04KFtDSDNdKU9bQ0gyXVtDQEhdNltDQEBIXShDKFtDSDNdKShbQ0gzXSlbT0hdKVtDQEBdKFtDSDNdKShbT0hdKVtDQEhdOFtPSF0=

>  <s_epik_cmdline>  (1) 
J2VwaWtfcHl0aG9uJywgJy1waHQnLCAnMi4wJywgJy1waCcsICc3LjAnLCAnLXRuJywgJzgnLCAnLW1hJywgJzIwMCcsICctaW1hZScsICc8aW5maWxlLm1hZT4nLCAnLW9tYWUnLCAnPG91dGZpbGUubWFlPic=

>  <r_lp_tautomer_probability>  (1) 
1

>  <r_epik_Ionization_Penalty>  (1) 
2.10334e-06

>  <r_epik_Ionization_Penalty_Charging>  (1) 
0

>  <r_epik_Ionization_Penalty_Neutral>  (1) 
2.10334e-06

>  <r_epik_State_Penalty>  (1) 
0

>  <r_epik_Charging_Adjusted_Penalty>  (1) 
0

>  <i_epik_Tot_Q>  (1) 
0

>  <i_epik_Tot_abs_Q>  (1) 
2

>  <s_epik_Chemistry_Notes>  (1) 
This compound has an ester and may undergo hydrolysis at high or low pH.

>  <s_lp_Force_Field>  (1) 
OPLS3e

>  <r_lp_Energy>  (1) 
473.873

>  <b_lp_Chiralities_Consistent>  (1) 
1

>  <s_lp_Variant>  (1) 
6:0-1

>  <s_i_glide_gridfile>  (1) 
pfpi4k_grid

>  <i_i_glide_lignum>  (1) 
27

>  <i_i_glide_rotatable_bonds>  (1) 
12

>  <r_i_docking_score>  (1) 
-2.27549

>  <r_i_glide_ligand_efficiency>  (1) 
-0.0379248

>  <r_i_glide_ligand_efficiency_sa>  (1) 
-0.148471

>  <r_i_glide_ligand_efficiency_ln>  (1) 
-0.44667

>  <r_i_glide_gscore>  (1) 
-2.27549

>  <r_i_glide_lipo>  (1) 
-0.193358

>  <r_i_glide_hbond>  (1) 
-0.012024

>  <r_i_glide_metal>  (1) 
-0

>  <r_i_glide_rewards>  (1) 
-0.0827368

>  <r_i_glide_evdw>  (1) 
-29.7675

>  <r_i_glide_ecoul>  (1) 
-3.62744

>  <r_i_glide_erotb>  (1) 
0.116889

>  <r_i_glide_esite>  (1) 
-0.0717705

>  <r_i_glide_emodel>  (1) 
-32.2159

>  <r_i_glide_energy>  (1) 
-33.3949

>  <r_i_glide_einternal>  (1) 
10.2716

>  <r_i_glide_intrahb_reward>  (1) 
-0

>  <i_i_glide_confnum>  (1) 
6

>  <i_i_glide_posenum>  (1) 
9

>  <r_i_glide_eff_state_penalty>  (1) 
0

>  <ligand_id>  (1) 
6

>  <original_smiles>  (1) 
C=C1CC2(OC1=O)C(=C)C(OC(C)=O)C1(C)OC3(O)C(OC(C)=O)C4(OCC)CCC5C6(C)C([S+]3[O-])C3(C)OCC(C(C(C)(C)O)C(C)(O)C3O)C54COC6(O)CCC21C

>  <smiles>  (1) 
[H]OC12OC3(C([H])([H])[H])C([H])(OC(=O)C([H])([H])[H])C(=C([H])[H])C4(OC(=O)C(=C([H])[H])C4([H])[H])C3(C([H])([H])[H])C([H])([H])C([H])([H])C3(O[H])OC([H])([H])C45C6([H])C([H])([H])OC(C([H])([H])[H])(C([H])(O[H])C(O[H])(C([H])([H])[H])C6([H])C(O[H])(C([H])([H])[H])C([H])([H])[H])C([H])(S1=O)C3(C([H])([H])[H])C4([H])C([H])([H])C([H])([H])C5(OC([H])([H])C([H])([H])[H])C2([H])OC(=O)C([H])([H])[H]

$$$$
6:0:1
     RDKit          3D

122129  0  0  1  0  0  0  0  0999 V2000
    2.7878   -6.7742    7.9408 C   0  0  0  0  0  0  0  0  0  0  0  0
    2.4791   -5.5838    7.4060 C   0  0  0  0  0  0  0  0  0  0  0  0
    2.2533   -4.2894    8.1002 C   0  0  0  0  0  0  0  0  0  0  0  0
    2.3495   -3.2101    6.9804 C   0  0  2  0  0  0  0  0  0  0  0  0
    2.1160   -4.0366    5.8280 O   0  0  0  0  0  0  0  0  0  0  0  0
    2.3042   -5.3528    5.9859 C   0  0  0  0  0  0  0  0  0  0  0  0
    2.2971   -6.1864    5.0891 O   0  0  0  0  0  0  0  0  0  0  0  0
    3.7347   -2.5532    6.8386 C   0  0  0  0  0  0  0  0  0  0  0  0
    4.9017   -3.1631    7.0616 C   0  0  0  0  0  0  0  0  0  0  0  0
    3.5784   -1.0911    6.4094 C   0  0  1  0  0  0  0  0  0  0  0  0
    4.5020   -0.7140    5.3813 O   0  0  0  0  0  0  0  0  0  0  0  0
    5.6818   -0.1475    5.6701 C   0  0  0  0  0  0  0  0  0  0  0  0
    6.3258    0.4915    4.4517 C   0  0  0  0  0  0  0  0  0  0  0  0
    6.2128   -0.1072    6.7786 O   0  0  0  0  0  0  0  0  0  0  0  0
    2.1224   -1.0508    5.9268 C   0  0  2  0  0  0  0  0  0  0  0  0
    2.0957   -1.5857    4.4569 C   0  0  0  0  0  0  0  0  0  0  0  0
    1.3769    0.1351    5.6264 O   0  0  0  0  0  0  0  0  0  0  0  0
    1.7075    1.5226    5.5334 C   0  0  1  0  0  0  0  0  0  0  0  0
    2.6078    1.6911    4.4660 O   0  0  0  0  0  0  0  0  0  0  0  0
    0.2305    2.2341    4.9838 C   0  0  1  0  0  0  0  0  0  0  0  0
   -0.4185    1.2897    4.1415 O   0  0  0  0  0  0  0  0  0  0  0  0
   -0.4020    1.2496    2.7892 C   0  0  0  0  0  0  0  0  0  0  0  0
    0.7110    1.9795    2.0524 C   0  0  0  0  0  0  0  0  0  0  0  0
   -1.1949    0.5689    2.1341 O   0  0  0  0  0  0  0  0  0  0  0  0
   -0.9891    2.8940    5.9656 C   0  0  1  0  0  0  0  0  0  0  0  0
   -1.5596    4.0505    5.3089 O   0  0  0  0  0  0  0  0  0  0  0  0
   -2.1166    3.9375    3.9787 C   0  0  0  0  0  0  0  0  0  0  0  0
   -3.2396    2.9168    3.6932 C   0  0  0  0  0  0  0  0  0  0  0  0
   -2.3597    2.3953    6.6740 C   0  0  0  0  0  0  0  0  0  0  0  0
   -2.2518    2.6619    8.2468 C   0  0  0  0  0  0  0  0  0  0  0  0
   -0.7707    3.1318    8.5861 C   0  0  1  0  0  0  0  0  0  0  0  0
    0.4491    2.4404    9.4923 C   0  0  2  0  0  0  0  0  0  0  0  0
    0.2551    2.9602   10.9336 C   0  0  0  0  0  0  0  0  0  0  0  0
    1.9801    2.7517    8.8760 C   0  0  1  0  0  0  0  0  0  0  0  0
    2.6610    2.1664    7.1197 S   0  0  0  0  0  0  0  0  0  0  0  0
    4.1568    1.8138    7.1896 O   0  0  0  0  0  0  0  0  0  0  0  0
    2.5928    4.1835    9.1382 C   0  0  2  0  0  0  0  0  0  0  0  0
    3.2947    4.1492   10.5232 C   0  0  0  0  0  0  0  0  0  0  0  0
    1.5384    5.1037    9.3101 O   0  0  0  0  0  0  0  0  0  0  0  0
    0.8443    5.5265    8.1640 C   0  0  0  0  0  0  0  0  0  0  0  0
    0.7097    4.4945    6.9965 C   0  0  1  0  0  0  0  0  0  0  0  0
    1.8794    4.8976    5.9583 C   0  0  1  0  0  0  0  0  0  0  0  0
    1.4286    5.9799    4.8600 C   0  0  0  0  0  0  0  0  0  0  0  0
    0.8308    7.3214    5.3687 C   0  0  0  0  0  0  0  0  0  0  0  0
    2.4386    6.2600    3.7261 C   0  0  0  0  0  0  0  0  0  0  0  0
    0.3985    5.4282    4.0807 O   0  0  0  0  0  0  0  0  0  0  0  0
    3.3153    5.2239    6.6137 C   0  0  1  0  0  0  0  0  0  0  0  0
    4.4754    4.7414    5.6920 C   0  0  0  0  0  0  0  0  0  0  0  0
    3.5331    6.6321    6.6401 O   0  0  0  0  0  0  0  0  0  0  0  0
    3.6625    4.7167    8.0913 C   0  0  1  0  0  0  0  0  0  0  0  0
    4.5578    5.6226    8.7235 O   0  0  0  0  0  0  0  0  0  0  0  0
   -0.1945    3.0444    7.2187 C   0  0  2  0  0  0  0  0  0  0  0  0
   -0.1707    1.3194    7.3967 C   0  0  0  0  0  0  0  0  0  0  0  0
   -0.6141    0.5872    8.5310 O   0  0  0  0  0  0  0  0  0  0  0  0
    0.2541    0.8260    9.5513 C   0  0  2  0  0  0  0  0  0  0  0  0
   -0.3552    0.3900   10.7409 O   0  0  0  0  0  0  0  0  0  0  0  0
    1.5266   -0.1529    9.3011 C   0  0  0  0  0  0  0  0  0  0  0  0
    1.2393   -1.5257    8.5936 C   0  0  0  0  0  0  0  0  0  0  0  0
    1.3883   -1.9603    7.0309 C   0  0  2  0  0  0  0  0  0  0  0  0
   -0.0434   -2.3557    6.5960 C   0  0  0  0  0  0  0  0  0  0  0  0
    2.9338   -7.6416    7.3117 H   0  0  0  0  0  0  0  0  0  0  0  0
    2.9075   -6.9058    9.0087 H   0  0  0  0  0  0  0  0  0  0  0  0
    1.2470   -4.3272    8.4962 H   0  0  0  0  0  0  0  0  0  0  0  0
    2.9526   -4.1494    8.9262 H   0  0  0  0  0  0  0  0  0  0  0  0
    4.9125   -4.1873    7.3551 H   0  0  0  0  0  0  0  0  0  0  0  0
    5.8264   -2.6337    6.9427 H   0  0  0  0  0  0  0  0  0  0  0  0
    3.7306   -0.4848    7.3037 H   0  0  0  0  0  0  0  0  0  0  0  0
    6.5562   -0.2464    3.6788 H   0  0  0  0  0  0  0  0  0  0  0  0
    7.2411    1.0213    4.7266 H   0  0  0  0  0  0  0  0  0  0  0  0
    5.6050    1.2074    4.0514 H   0  0  0  0  0  0  0  0  0  0  0  0
    2.7598   -2.4298    4.2777 H   0  0  0  0  0  0  0  0  0  0  0  0
    2.4506   -0.8290    3.7487 H   0  0  0  0  0  0  0  0  0  0  0  0
    1.0954   -1.8610    4.1243 H   0  0  0  0  0  0  0  0  0  0  0  0
    2.1363    1.9686    3.7099 H   0  0  0  0  0  0  0  0  0  0  0  0
    0.5396    3.0833    4.4123 H   0  0  0  0  0  0  0  0  0  0  0  0
    1.7171    1.5310    2.1988 H   0  0  0  0  0  0  0  0  0  0  0  0
    0.7270    3.0385    2.3569 H   0  0  0  0  0  0  0  0  0  0  0  0
    0.5023    1.9202    0.9626 H   0  0  0  0  0  0  0  0  0  0  0  0
   -2.4839    4.9283    3.7338 H   0  0  0  0  0  0  0  0  0  0  0  0
   -1.3119    3.7791    3.2703 H   0  0  0  0  0  0  0  0  0  0  0  0
   -3.4464    2.9695    2.6200 H   0  0  0  0  0  0  0  0  0  0  0  0
   -4.1794    3.1367    4.2196 H   0  0  0  0  0  0  0  0  0  0  0  0
   -2.9174    1.8916    3.9212 H   0  0  0  0  0  0  0  0  0  0  0  0
   -3.2128    2.9534    6.2975 H   0  0  0  0  0  0  0  0  0  0  0  0
   -2.6065    1.3573    6.4495 H   0  0  0  0  0  0  0  0  0  0  0  0
   -2.9247    3.4738    8.5177 H   0  0  0  0  0  0  0  0  0  0  0  0
   -2.5747    1.8003    8.8374 H   0  0  0  0  0  0  0  0  0  0  0  0
   -0.9445    4.1296    8.9683 H   0  0  0  0  0  0  0  0  0  0  0  0
    0.9315    2.4393   11.6138 H   0  0  0  0  0  0  0  0  0  0  0  0
   -0.7799    2.8093   11.2592 H   0  0  0  0  0  0  0  0  0  0  0  0
    0.4269    4.0280   10.9981 H   0  0  0  0  0  0  0  0  0  0  0  0
    2.6158    2.1519    9.5183 H   0  0  0  0  0  0  0  0  0  0  0  0
    4.2499    3.6153   10.4751 H   0  0  0  0  0  0  0  0  0  0  0  0
    2.7042    3.6636   11.2944 H   0  0  0  0  0  0  0  0  0  0  0  0
    3.4960    5.1592   10.8867 H   0  0  0  0  0  0  0  0  0  0  0  0
   -0.1176    5.8936    8.5040 H   0  0  0  0  0  0  0  0  0  0  0  0
    1.3279    6.4425    7.8296 H   0  0  0  0  0  0  0  0  0  0  0  0
   -0.0588    5.0893    6.5365 H   0  0  0  0  0  0  0  0  0  0  0  0
    2.0664    4.0564    5.3160 H   0  0  0  0  0  0  0  0  0  0  0  0
    1.5274    7.9460    5.9207 H   0  0  0  0  0  0  0  0  0  0  0  0
   -0.0390    7.1600    6.0001 H   0  0  0  0  0  0  0  0  0  0  0  0
    0.4802    7.9202    4.5243 H   0  0  0  0  0  0  0  0  0  0  0  0
    3.2821    6.8780    4.0226 H   0  0  0  0  0  0  0  0  0  0  0  0
    1.9345    6.8071    2.9273 H   0  0  0  0  0  0  0  0  0  0  0  0
    2.8055    5.3329    3.2828 H   0  0  0  0  0  0  0  0  0  0  0  0
    0.3960    5.9284    3.2711 H   0  0  0  0  0  0  0  0  0  0  0  0
    4.4089    3.6823    5.4492 H   0  0  0  0  0  0  0  0  0  0  0  0
    5.4403    4.9063    6.1740 H   0  0  0  0  0  0  0  0  0  0  0  0
    4.5375    5.2747    4.7484 H   0  0  0  0  0  0  0  0  0  0  0  0
    3.3792    6.9706    5.7678 H   0  0  0  0  0  0  0  0  0  0  0  0
    4.3952    3.9303    7.9797 H   0  0  0  0  0  0  0  0  0  0  0  0
    5.2066    5.8246    8.0633 H   0  0  0  0  0  0  0  0  0  0  0  0
   -0.6888    0.7131    6.6581 H   0  0  0  0  0  0  0  0  0  0  0  0
    0.7312    0.8406    7.4433 H   0  0  0  0  0  0  0  0  0  0  0  0
   -1.0083    1.0249   11.0141 H   0  0  0  0  0  0  0  0  0  0  0  0
    2.3684    0.2623    8.7784 H   0  0  0  0  0  0  0  0  0  0  0  0
    1.9454   -0.3448   10.2827 H   0  0  0  0  0  0  0  0  0  0  0  0
    2.0144   -2.0818    9.1010 H   0  0  0  0  0  0  0  0  0  0  0  0
    0.3401   -1.9490    9.0365 H   0  0  0  0  0  0  0  0  0  0  0  0
   -0.7032   -1.4904    6.5962 H   0  0  0  0  0  0  0  0  0  0  0  0
   -0.4796   -3.0986    7.2745 H   0  0  0  0  0  0  0  0  0  0  0  0
   -0.1011   -2.8047    5.6019 H   0  0  0  0  0  0  0  0  0  0  0  0
  1  2  2  0
  1 61  1  0
  1 62  1  0
  2  6  1  0
  2  3  1  0
  3  4  1  0
  3 63  1  0
  3 64  1  0
  4 59  1  0
  4  5  1  6
  4  8  1  0
  5  6  1  0
  6  7  2  0
  8  9  2  0
  8 10  1  0
  9 65  1  0
  9 66  1  0
 10 11  1  0
 10 15  1  0
 10 67  1  1
 11 12  1  0
 12 13  1  0
 12 14  2  0
 13 68  1  0
 13 69  1  0
 13 70  1  0
 15 59  1  0
 15 16  1  6
 15 17  1  0
 16 71  1  0
 16 72  1  0
 16 73  1  0
 17 18  1  0
 35 18  1  1
 18 19  1  6
 18 20  1  0
 19 74  1  0
 20 21  1  0
 20 25  1  0
 20 75  1  6
 21 22  1  0
 22 23  1  0
 22 24  2  0
 23 76  1  0
 23 77  1  0
 23 78  1  0
 25 52  1  0
 25 26  1  6
 25 29  1  0
 26 27  1  0
 27 28  1  0
 27 79  1  0
 27 80  1  0
 28 81  1  0
 28 82  1  0
 28 83  1  0
 29 30  1  0
 29 84  1  0
 29 85  1  0
 30 31  1  0
 30 86  1  0
 30 87  1  0
 31 52  1  0
 31 32  1  0
 31 88  1  1
 32 55  1  0
 32 33  1  1
 32 34  1  0
 33 89  1  0
 33 90  1  0
 33 91  1  0
 34 35  1  0
 34 37  1  0
 34 92  1  1
 35 36  2  0
 37 50  1  0
 37 38  1  1
 37 39  1  0
 38 93  1  0
 38 94  1  0
 38 95  1  0
 39 40  1  0
 40 41  1  0
 40 96  1  0
 40 97  1  0
 41 42  1  0
 41 52  1  0
 41 98  1  6
 42 43  1  0
 42 47  1  0
 42 99  1  6
 43 44  1  0
 43 45  1  0
 43 46  1  0
 44100  1  0
 44101  1  0
 44102  1  0
 45103  1  0
 45104  1  0
 45105  1  0
 46106  1  0
 47 48  1  0
 47 49  1  1
 47 50  1  0
 48107  1  0
 48108  1  0
 48109  1  0
 49110  1  0
 50 51  1  0
 50111  1  6
 51112  1  0
 52 53  1  1
 53 54  1  0
 53113  1  0
 53114  1  0
 54 55  1  0
 55 56  1  1
 55 57  1  0
 56115  1  0
 57 58  1  0
 57116  1  0
 57117  1  0
 58 59  1  0
 58118  1  0
 58119  1  0
 59 60  1  6
 60120  1  0
 60121  1  0
 60122  1  0
M  END
>  <i_m_ct_stereo_status>  (2) 
1

>  <s_m_source_file>  (2) 
/var/tmp/pbs.5075288.sched01/tmpzl_yb0kw/0ymjshsm9.sdf

>  <i_m_source_file_index>  (2) 
27

>  <i_lp_mmshare_version>  (2) 
48012

>  <i_f3d_flags>  (2) 
0

>  <s_epik_input>  (2) 
TzFDKD1PKUMoPVtDSDJdKVtDSDJdW0NAXTEyW0NAXTMoW0NIM10pW0NAXShbQ0gzXSkoW0NAQEhdKEMyPVtDSDJdKU9DKD1PKVtDSDNdKU9bQ0BAXTQoW09IXSlbQ0BASF0oT0MoPU8pW0NIM10pW0NAXTUoT1tDSDJdW0NIM10pW0NAXTY3W0NIXShbQ0gyXVtDSDJdNSlbQ0BAXShbQ0gzXSkoW0NAQF0oW09IXSkoT1tDSDJdNylbQ0gyXVtDSDJdMylbQ0BASF0oW1MrXTRbTy1dKVtDQF04KFtDSDNdKU9bQ0gyXVtDQEhdNltDQEBIXShDKFtDSDNdKShbQ0gzXSlbT0hdKVtDQEBdKFtDSDNdKShbT0hdKVtDQEhdOFtPSF0=

>  <s_epik_cmdline>  (2) 
J2VwaWtfcHl0aG9uJywgJy1waHQnLCAnMi4wJywgJy1waCcsICc3LjAnLCAnLXRuJywgJzgnLCAnLW1hJywgJzIwMCcsICctaW1hZScsICc8aW5maWxlLm1hZT4nLCAnLW9tYWUnLCAnPG91dGZpbGUubWFlPic=

>  <r_lp_tautomer_probability>  (2) 
1

>  <r_epik_Ionization_Penalty>  (2) 
2.10334e-06

>  <r_epik_Ionization_Penalty_Charging>  (2) 
0

>  <r_epik_Ionization_Penalty_Neutral>  (2) 
2.10334e-06

>  <r_epik_State_Penalty>  (2) 
0

>  <r_epik_Charging_Adjusted_Penalty>  (2) 
0

>  <i_epik_Tot_Q>  (2) 
0

>  <i_epik_Tot_abs_Q>  (2) 
2

>  <s_epik_Chemistry_Notes>  (2) 
This compound has an ester and may undergo hydrolysis at high or low pH.

>  <s_lp_Force_Field>  (2) 
OPLS3e

>  <r_lp_Energy>  (2) 
473.873

>  <b_lp_Chiralities_Consistent>  (2) 
1

>  <s_lp_Variant>  (2) 
6:0-1

>  <s_i_glide_gridfile>  (2) 
pfpi4k_grid

>  <i_i_glide_lignum>  (2) 
27

>  <i_i_glide_rotatable_bonds>  (2) 
12

>  <r_i_docking_score>  (2) 
-2.16828

>  <r_i_glide_ligand_efficiency>  (2) 
-0.0361379

>  <r_i_glide_ligand_efficiency_sa>  (2) 
-0.141475

>  <r_i_glide_ligand_efficiency_ln>  (2) 
-0.425624

>  <r_i_glide_gscore>  (2) 
-2.16828

>  <r_i_glide_lipo>  (2) 
-0.27012

>  <r_i_glide_hbond>  (2) 
-0.0134689

>  <r_i_glide_metal>  (2) 
-0

>  <r_i_glide_rewards>  (2) 
-0.0632701

>  <r_i_glide_evdw>  (2) 
-27.9841

>  <r_i_glide_ecoul>  (2) 
-3.13798

>  <r_i_glide_erotb>  (2) 
0.116889

>  <r_i_glide_esite>  (2) 
-0.0684002

>  <r_i_glide_emodel>  (2) 
-31.1427

>  <r_i_glide_energy>  (2) 
-31.1221

>  <r_i_glide_einternal>  (2) 
8.17758

>  <r_i_glide_intrahb_reward>  (2) 
-0

>  <i_i_glide_confnum>  (2) 
6

>  <i_i_glide_posenum>  (2) 
1

>  <r_i_glide_eff_state_penalty>  (2) 
0

>  <ligand_id>  (2) 
6

>  <original_smiles>  (2) 
C=C1CC2(OC1=O)C(=C)C(OC(C)=O)C1(C)OC3(O)C(OC(C)=O)C4(OCC)CCC5C6(C)C([S+]3[O-])C3(C)OCC(C(C(C)(C)O)C(C)(O)C3O)C54COC6(O)CCC21C

>  <smiles>  (2) 
[H]OC12OC3(C([H])([H])[H])C([H])(OC(=O)C([H])([H])[H])C(=C([H])[H])C4(OC(=O)C(=C([H])[H])C4([H])[H])C3(C([H])([H])[H])C([H])([H])C([H])([H])C3(O[H])OC([H])([H])C45C6([H])C([H])([H])OC(C([H])([H])[H])(C([H])(O[H])C(O[H])(C([H])([H])[H])C6([H])C(O[H])(C([H])([H])[H])C([H])([H])[H])C([H])(S1=O)C3(C([H])([H])[H])C4([H])C([H])([H])C([H])([H])C5(OC([H])([H])C([H])([H])[H])C2([H])OC(=O)C([H])([H])[H]

$$$$
6:0:2
     RDKit          3D

122129  0  0  1  0  0  0  0  0999 V2000
    2.4709   -7.2929    5.4851 C   0  0  0  0  0  0  0  0  0  0  0  0
    2.1689   -6.0062    5.2473 C   0  0  0  0  0  0  0  0  0  0  0  0
    2.0785   -4.8634    6.2202 C   0  0  0  0  0  0  0  0  0  0  0  0
    2.1757   -3.5809    5.3314 C   0  0  2  0  0  0  0  0  0  0  0  0
    1.7600   -4.1401    4.0751 O   0  0  0  0  0  0  0  0  0  0  0  0
    1.8975   -5.4602    3.9305 C   0  0  0  0  0  0  0  0  0  0  0  0
    1.7882   -6.0752    2.8723 O   0  0  0  0  0  0  0  0  0  0  0  0
    3.5840   -2.9808    5.1712 C   0  0  0  0  0  0  0  0  0  0  0  0
    4.7297   -3.7026    5.1274 C   0  0  0  0  0  0  0  0  0  0  0  0
    3.4793   -1.4418    5.0605 C   0  0  1  0  0  0  0  0  0  0  0  0
    4.3340   -0.9109    4.0490 O   0  0  0  0  0  0  0  0  0  0  0  0
    5.5825   -0.4717    4.3099 C   0  0  0  0  0  0  0  0  0  0  0  0
    6.4248   -0.4278    3.0522 C   0  0  0  0  0  0  0  0  0  0  0  0
    6.1037   -0.2594    5.4042 O   0  0  0  0  0  0  0  0  0  0  0  0
    1.9806   -1.2364    4.7259 C   0  0  2  0  0  0  0  0  0  0  0  0
    1.7660   -1.4703    3.1825 C   0  0  0  0  0  0  0  0  0  0  0  0
    1.2752    0.0133    4.6954 O   0  0  0  0  0  0  0  0  0  0  0  0
    1.6689    1.3678    4.8778 C   0  0  1  0  0  0  0  0  0  0  0  0
    2.4700    1.7649    3.7815 O   0  0  0  0  0  0  0  0  0  0  0  0
    0.1657    2.1458    4.6612 C   0  0  1  0  0  0  0  0  0  0  0  0
   -0.6562    1.3065    3.7903 O   0  0  0  0  0  0  0  0  0  0  0  0
   -0.4862    1.2328    2.4128 C   0  0  0  0  0  0  0  0  0  0  0  0
   -1.8382    1.1484    1.7389 C   0  0  0  0  0  0  0  0  0  0  0  0
    0.4713    1.6671    1.7769 O   0  0  0  0  0  0  0  0  0  0  0  0
   -0.8524    2.7435    5.8819 C   0  0  1  0  0  0  0  0  0  0  0  0
   -1.3248    4.0638    5.5307 O   0  0  0  0  0  0  0  0  0  0  0  0
   -2.0641    4.2422    4.3072 C   0  0  0  0  0  0  0  0  0  0  0  0
   -1.3295    4.2726    2.9650 C   0  0  0  0  0  0  0  0  0  0  0  0
   -2.1701    2.2029    6.6516 C   0  0  0  0  0  0  0  0  0  0  0  0
   -1.8759    2.1161    8.2219 C   0  0  0  0  0  0  0  0  0  0  0  0
   -0.3490    2.4318    8.4663 C   0  0  1  0  0  0  0  0  0  0  0  0
    0.9063    1.5231    9.0771 C   0  0  2  0  0  0  0  0  0  0  0  0
    0.8998    1.7648   10.6271 C   0  0  0  0  0  0  0  0  0  0  0  0
    2.3833    1.8873    8.3605 C   0  0  1  0  0  0  0  0  0  0  0  0
    2.7966    1.6574    6.4507 S   0  0  0  0  0  0  0  0  0  0  0  0
    4.2354    1.2276    6.2388 O   0  0  0  0  0  0  0  0  0  0  0  0
    3.1311    3.1993    8.8610 C   0  0  2  0  0  0  0  0  0  0  0  0
    3.9362    2.8476   10.1565 C   0  0  0  0  0  0  0  0  0  0  0  0
    2.1540    4.0936    9.3416 O   0  0  0  0  0  0  0  0  0  0  0  0
    1.3722    4.7680    8.3946 C   0  0  0  0  0  0  0  0  0  0  0  0
    1.0550    4.0045    7.0635 C   0  0  1  0  0  0  0  0  0  0  0  0
    2.1410    4.5697    5.9923 C   0  0  1  0  0  0  0  0  0  0  0  0
    1.6838    5.8954    5.1991 C   0  0  0  0  0  0  0  0  0  0  0  0
    1.2070    7.1158    6.0159 C   0  0  0  0  0  0  0  0  0  0  0  0
    2.5454    6.3464    3.9959 C   0  0  0  0  0  0  0  0  0  0  0  0
    0.5412    5.6328    4.5389 O   0  0  0  0  0  0  0  0  0  0  0  0
    3.6531    4.7056    6.5393 C   0  0  1  0  0  0  0  0  0  0  0  0
    4.6910    4.3927    5.4229 C   0  0  0  0  0  0  0  0  0  0  0  0
    3.9091    6.0804    6.8024 O   0  0  0  0  0  0  0  0  0  0  0  0
    4.1293    3.9033    7.8387 C   0  0  1  0  0  0  0  0  0  0  0  0
    5.1435    4.6486    8.5229 O   0  0  0  0  0  0  0  0  0  0  0  0
    0.0769    2.5836    7.0476 C   0  0  2  0  0  0  0  0  0  0  0  0
    0.0138    0.8573    6.8756 C   0  0  0  0  0  0  0  0  0  0  0  0
   -0.3626   -0.0398    7.8917 O   0  0  0  0  0  0  0  0  0  0  0  0
    0.6055   -0.0593    8.8443 C   0  0  2  0  0  0  0  0  0  0  0  0
    0.0542   -0.6681    9.9909 O   0  0  0  0  0  0  0  0  0  0  0  0
    1.7769   -1.0314    8.3136 C   0  0  0  0  0  0  0  0  0  0  0  0
    1.3682   -2.2248    7.3667 C   0  0  0  0  0  0  0  0  0  0  0  0
    1.3061   -2.3244    5.7268 C   0  0  2  0  0  0  0  0  0  0  0  0
   -0.1935   -2.5470    5.3874 C   0  0  0  0  0  0  0  0  0  0  0  0
    2.5243   -8.0225    4.6856 H   0  0  0  0  0  0  0  0  0  0  0  0
    2.6753   -7.6420    6.4866 H   0  0  0  0  0  0  0  0  0  0  0  0
    1.1065   -4.9279    6.7138 H   0  0  0  0  0  0  0  0  0  0  0  0
    2.8458   -4.9239    6.9917 H   0  0  0  0  0  0  0  0  0  0  0  0
    4.7252   -4.7833    5.1998 H   0  0  0  0  0  0  0  0  0  0  0  0
    5.6976   -3.2446    5.0006 H   0  0  0  0  0  0  0  0  0  0  0  0
    3.6980   -1.0312    6.0419 H   0  0  0  0  0  0  0  0  0  0  0  0
    6.4559   -1.4100    2.5801 H   0  0  0  0  0  0  0  0  0  0  0  0
    7.4543   -0.1554    3.2868 H   0  0  0  0  0  0  0  0  0  0  0  0
    6.0224    0.2868    2.3498 H   0  0  0  0  0  0  0  0  0  0  0  0
    2.3511   -2.2798    2.7505 H   0  0  0  0  0  0  0  0  0  0  0  0
    2.0780   -0.6003    2.6011 H   0  0  0  0  0  0  0  0  0  0  0  0
    0.7239   -1.6280    2.9043 H   0  0  0  0  0  0  0  0  0  0  0  0
    1.9217    2.1662    3.1307 H   0  0  0  0  0  0  0  0  0  0  0  0
    0.4954    3.0631    4.1841 H   0  0  0  0  0  0  0  0  0  0  0  0
   -2.6026    1.8543    2.0879 H   0  0  0  0  0  0  0  0  0  0  0  0
   -2.1419    0.1546    1.8987 H   0  0  0  0  0  0  0  0  0  0  0  0
   -1.8021    1.3153    0.6740 H   0  0  0  0  0  0  0  0  0  0  0  0
   -2.9117    3.5785    4.2400 H   0  0  0  0  0  0  0  0  0  0  0  0
   -2.4301    5.2347    4.2394 H   0  0  0  0  0  0  0  0  0  0  0  0
   -1.8857    4.2797    2.0627 H   0  0  0  0  0  0  0  0  0  0  0  0
   -0.9440    3.3784    2.9174 H   0  0  0  0  0  0  0  0  0  0  0  0
   -0.3876    4.7244    2.8015 H   0  0  0  0  0  0  0  0  0  0  0  0
   -3.0219    2.8806    6.5753 H   0  0  0  0  0  0  0  0  0  0  0  0
   -2.5550    1.2603    6.2572 H   0  0  0  0  0  0  0  0  0  0  0  0
   -2.4803    2.8629    8.7394 H   0  0  0  0  0  0  0  0  0  0  0  0
   -2.1991    1.1775    8.6614 H   0  0  0  0  0  0  0  0  0  0  0  0
   -0.4239    3.3429    9.0394 H   0  0  0  0  0  0  0  0  0  0  0  0
    1.5874    1.1069   11.1586 H   0  0  0  0  0  0  0  0  0  0  0  0
   -0.0859    1.5958   11.0603 H   0  0  0  0  0  0  0  0  0  0  0  0
    1.1334    2.7802   10.9396 H   0  0  0  0  0  0  0  0  0  0  0  0
    3.0625    1.1463    8.7658 H   0  0  0  0  0  0  0  0  0  0  0  0
    4.8480    2.2968    9.9251 H   0  0  0  0  0  0  0  0  0  0  0  0
    3.3973    2.2360   10.8718 H   0  0  0  0  0  0  0  0  0  0  0  0
    4.2279    3.7392   10.7134 H   0  0  0  0  0  0  0  0  0  0  0  0
    0.4845    5.1717    8.8845 H   0  0  0  0  0  0  0  0  0  0  0  0
    1.9201    5.6845    8.2085 H   0  0  0  0  0  0  0  0  0  0  0  0
    0.2476    4.6903    6.8782 H   0  0  0  0  0  0  0  0  0  0  0  0
    2.1930    3.8573    5.1848 H   0  0  0  0  0  0  0  0  0  0  0  0
    2.0196    7.5526    6.5750 H   0  0  0  0  0  0  0  0  0  0  0  0
    0.4039    6.8842    6.7153 H   0  0  0  0  0  0  0  0  0  0  0  0
    0.8251    7.9096    5.3682 H   0  0  0  0  0  0  0  0  0  0  0  0
    3.4537    6.8250    4.3370 H   0  0  0  0  0  0  0  0  0  0  0  0
    2.0407    7.0957    3.3764 H   0  0  0  0  0  0  0  0  0  0  0  0
    2.8003    5.5196    3.3307 H   0  0  0  0  0  0  0  0  0  0  0  0
    0.7399    5.1423    3.7202 H   0  0  0  0  0  0  0  0  0  0  0  0
    4.5278    3.4153    4.9741 H   0  0  0  0  0  0  0  0  0  0  0  0
    5.7115    4.3894    5.8080 H   0  0  0  0  0  0  0  0  0  0  0  0
    4.7027    5.1047    4.6040 H   0  0  0  0  0  0  0  0  0  0  0  0
    4.8206    6.1978    6.9991 H   0  0  0  0  0  0  0  0  0  0  0  0
    4.7683    3.0901    7.5081 H   0  0  0  0  0  0  0  0  0  0  0  0
    5.8827    4.7691    7.9505 H   0  0  0  0  0  0  0  0  0  0  0  0
   -0.6288    0.4433    6.0988 H   0  0  0  0  0  0  0  0  0  0  0  0
    0.8742    0.3064    6.7107 H   0  0  0  0  0  0  0  0  0  0  0  0
   -0.3468    0.0101   10.5089 H   0  0  0  0  0  0  0  0  0  0  0  0
    2.5832   -0.5442    7.8011 H   0  0  0  0  0  0  0  0  0  0  0  0
    2.2538   -1.4258    9.2152 H   0  0  0  0  0  0  0  0  0  0  0  0
    2.1620   -2.9005    7.6778 H   0  0  0  0  0  0  0  0  0  0  0  0
    0.4856   -2.6927    7.8008 H   0  0  0  0  0  0  0  0  0  0  0  0
   -0.7965   -1.6774    5.6353 H   0  0  0  0  0  0  0  0  0  0  0  0
   -0.6081   -3.3874    5.9439 H   0  0  0  0  0  0  0  0  0  0  0  0
   -0.3773   -2.7675    4.3392 H   0  0  0  0  0  0  0  0  0  0  0  0
  1  2  2  0
  1 61  1  0
  1 62  1  0
  2  6  1  0
  2  3  1  0
  3  4  1  0
  3 63  1  0
  3 64  1  0
  4 59  1  0
  4  5  1  6
  4  8  1  0
  5  6  1  0
  6  7  2  0
  8  9  2  0
  8 10  1  0
  9 65  1  0
  9 66  1  0
 10 11  1  0
 10 15  1  0
 10 67  1  1
 11 12  1  0
 12 13  1  0
 12 14  2  0
 13 68  1  0
 13 69  1  0
 13 70  1  0
 15 59  1  0
 15 16  1  6
 15 17  1  0
 16 71  1  0
 16 72  1  0
 16 73  1  0
 17 18  1  0
 35 18  1  1
 18 19  1  6
 18 20  1  0
 19 74  1  0
 20 21  1  0
 20 25  1  0
 20 75  1  6
 21 22  1  0
 22 23  1  0
 22 24  2  0
 23 76  1  0
 23 77  1  0
 23 78  1  0
 25 52  1  0
 25 26  1  6
 25 29  1  0
 26 27  1  0
 27 28  1  0
 27 79  1  0
 27 80  1  0
 28 81  1  0
 28 82  1  0
 28 83  1  0
 29 30  1  0
 29 84  1  0
 29 85  1  0
 30 31  1  0
 30 86  1  0
 30 87  1  0
 31 52  1  0
 31 32  1  0
 31 88  1  1
 32 55  1  0
 32 33  1  1
 32 34  1  0
 33 89  1  0
 33 90  1  0
 33 91  1  0
 34 35  1  0
 34 37  1  0
 34 92  1  1
 35 36  2  0
 37 50  1  0
 37 38  1  1
 37 39  1  0
 38 93  1  0
 38 94  1  0
 38 95  1  0
 39 40  1  0
 40 41  1  0
 40 96  1  0
 40 97  1  0
 41 42  1  0
 41 52  1  0
 41 98  1  6
 42 43  1  0
 42 47  1  0
 42 99  1  6
 43 44  1  0
 43 45  1  0
 43 46  1  0
 44100  1  0
 44101  1  0
 44102  1  0
 45103  1  0
 45104  1  0
 45105  1  0
 46106  1  0
 47 48  1  0
 47 49  1  1
 47 50  1  0
 48107  1  0
 48108  1  0
 48109  1  0
 49110  1  0
 50 51  1  0
 50111  1  6
 51112  1  0
 52 53  1  6
 53 54  1  0
 53113  1  0
 53114  1  0
 54 55  1  0
 55 56  1  1
 55 57  1  0
 56115  1  0
 57 58  1  0
 57116  1  0
 57117  1  0
 58 59  1  0
 58118  1  0
 58119  1  0
 59 60  1  1
 60120  1  0
 60121  1  0
 60122  1  0
M  END
>  <i_m_ct_stereo_status>  (3) 
1

>  <s_m_source_file>  (3) 
/var/tmp/pbs.5075288.sched01/tmpzl_yb0kw/0ymjshsm9.sdf

>  <i_m_source_file_index>  (3) 
27

>  <i_lp_mmshare_version>  (3) 
48012

>  <i_f3d_flags>  (3) 
0

>  <s_epik_input>  (3) 
TzFDKD1PKUMoPVtDSDJdKVtDSDJdW0NAXTEyW0NAXTMoW0NIM10pW0NAXShbQ0gzXSkoW0NAQEhdKEMyPVtDSDJdKU9DKD1PKVtDSDNdKU9bQ0BAXTQoW09IXSlbQ0BASF0oT0MoPU8pW0NIM10pW0NAXTUoT1tDSDJdW0NIM10pW0NAXTY3W0NIXShbQ0gyXVtDSDJdNSlbQ0BAXShbQ0gzXSkoW0NAQF0oW09IXSkoT1tDSDJdNylbQ0gyXVtDSDJdMylbQ0BASF0oW1MrXTRbTy1dKVtDQF04KFtDSDNdKU9bQ0gyXVtDQEhdNltDQEBIXShDKFtDSDNdKShbQ0gzXSlbT0hdKVtDQEBdKFtDSDNdKShbT0hdKVtDQEhdOFtPSF0=

>  <s_epik_cmdline>  (3) 
J2VwaWtfcHl0aG9uJywgJy1waHQnLCAnMi4wJywgJy1waCcsICc3LjAnLCAnLXRuJywgJzgnLCAnLW1hJywgJzIwMCcsICctaW1hZScsICc8aW5maWxlLm1hZT4nLCAnLW9tYWUnLCAnPG91dGZpbGUubWFlPic=

>  <r_lp_tautomer_probability>  (3) 
1

>  <r_epik_Ionization_Penalty>  (3) 
2.10334e-06

>  <r_epik_Ionization_Penalty_Charging>  (3) 
0

>  <r_epik_Ionization_Penalty_Neutral>  (3) 
2.10334e-06

>  <r_epik_State_Penalty>  (3) 
0

>  <r_epik_Charging_Adjusted_Penalty>  (3) 
0

>  <i_epik_Tot_Q>  (3) 
0

>  <i_epik_Tot_abs_Q>  (3) 
2

>  <s_epik_Chemistry_Notes>  (3) 
This compound has an ester and may undergo hydrolysis at high or low pH.

>  <s_lp_Force_Field>  (3) 
OPLS3e

>  <r_lp_Energy>  (3) 
473.873

>  <b_lp_Chiralities_Consistent>  (3) 
1

>  <s_lp_Variant>  (3) 
6:0-1

>  <s_i_glide_gridfile>  (3) 
pfpi4k_grid

>  <i_i_glide_lignum>  (3) 
27

>  <i_i_glide_rotatable_bonds>  (3) 
12

>  <r_i_docking_score>  (3) 
0.973651

>  <r_i_glide_ligand_efficiency>  (3) 
0.0162275

>  <r_i_glide_ligand_efficiency_sa>  (3) 
0.0635285

>  <r_i_glide_ligand_efficiency_ln>  (3) 
0.191124

>  <r_i_glide_gscore>  (3) 
0.973651

>  <r_i_glide_lipo>  (3) 
-0.0945807

>  <r_i_glide_hbond>  (3) 
-0.0154325

>  <r_i_glide_metal>  (3) 
-0

>  <r_i_glide_rewards>  (3) 
-0.570516

>  <r_i_glide_evdw>  (3) 
-11.2166

>  <r_i_glide_ecoul>  (3) 
-3.73103

>  <r_i_glide_erotb>  (3) 
0.116889

>  <r_i_glide_esite>  (3) 
-0.0890192

>  <r_i_glide_emodel>  (3) 
-6.21059

>  <r_i_glide_energy>  (3) 
-14.9476

>  <r_i_glide_einternal>  (3) 
6.56491

>  <r_i_glide_intrahb_reward>  (3) 
-0.5

>  <i_i_glide_confnum>  (3) 
3

>  <i_i_glide_posenum>  (3) 
17

>  <r_i_glide_eff_state_penalty>  (3) 
0

>  <ligand_id>  (3) 
6

>  <original_smiles>  (3) 
C=C1CC2(OC1=O)C(=C)C(OC(C)=O)C1(C)OC3(O)C(OC(C)=O)C4(OCC)CCC5C6(C)C([S+]3[O-])C3(C)OCC(C(C(C)(C)O)C(C)(O)C3O)C54COC6(O)CCC21C

>  <smiles>  (3) 
[H]OC12OC3(C([H])([H])[H])C([H])(OC(=O)C([H])([H])[H])C(=C([H])[H])C4(OC(=O)C(=C([H])[H])C4([H])[H])C3(C([H])([H])[H])C([H])([H])C([H])([H])C3(O[H])OC([H])([H])C45C6([H])C([H])([H])OC(C([H])([H])[H])(C([H])(O[H])C(O[H])(C([H])([H])[H])C6([H])C(O[H])(C([H])([H])[H])C([H])([H])[H])C([H])(S1=O)C3(C([H])([H])[H])C4([H])C([H])([H])C([H])([H])C5(OC([H])([H])C([H])([H])[H])C2([H])OC(=O)C([H])([H])[H]

$$$$
6:1:0
     RDKit          3D

122129  0  0  1  0  0  0  0  0999 V2000
    1.5605   -8.0181    4.3494 C   0  0  0  0  0  0  0  0  0  0  0  0
    1.4274   -6.6828    4.3839 C   0  0  0  0  0  0  0  0  0  0  0  0
    1.6833   -5.7388    5.5257 C   0  0  0  0  0  0  0  0  0  0  0  0
    1.8354   -4.3475    4.8448 C   0  0  2  0  0  0  0  0  0  0  0  0
    1.1242   -4.5962    3.6221 O   0  0  0  0  0  0  0  0  0  0  0  0
    1.0175   -5.8759    3.2515 C   0  0  0  0  0  0  0  0  0  0  0  0
    0.6210   -6.2613    2.1527 O   0  0  0  0  0  0  0  0  0  0  0  0
    3.2829   -3.9447    4.5137 C   0  0  0  0  0  0  0  0  0  0  0  0
    4.2545   -4.7794    4.0681 C   0  0  0  0  0  0  0  0  0  0  0  0
    3.4238   -2.4205    4.7123 C   0  0  1  0  0  0  0  0  0  0  0  0
    4.2614   -1.7571    3.7556 O   0  0  0  0  0  0  0  0  0  0  0  0
    4.3178   -2.0840    2.4353 C   0  0  0  0  0  0  0  0  0  0  0  0
    5.2147   -1.1719    1.6438 C   0  0  0  0  0  0  0  0  0  0  0  0
    3.7403   -3.0090    1.8661 O   0  0  0  0  0  0  0  0  0  0  0  0
    1.9608   -1.9158    4.7065 C   0  0  2  0  0  0  0  0  0  0  0  0
    1.4388   -1.7825    3.2312 C   0  0  0  0  0  0  0  0  0  0  0  0
    1.5266   -0.5875    5.0613 O   0  0  0  0  0  0  0  0  0  0  0  0
    2.2107    0.6376    5.2769 C   0  0  1  0  0  0  0  0  0  0  0  0
    3.0656    0.9134    4.1964 O   0  0  0  0  0  0  0  0  0  0  0  0
    1.0214    1.8378    5.1610 C   0  0  1  0  0  0  0  0  0  0  0  0
    0.0649    1.3262    4.2002 O   0  0  0  0  0  0  0  0  0  0  0  0
    0.2649    1.3705    2.8051 C   0  0  0  0  0  0  0  0  0  0  0  0
   -1.0433    1.3800    2.0706 C   0  0  0  0  0  0  0  0  0  0  0  0
    1.3058    1.7674    2.2789 O   0  0  0  0  0  0  0  0  0  0  0  0
    0.2109    2.5690    6.4632 C   0  0  1  0  0  0  0  0  0  0  0  0
    0.2141    3.9803    6.2503 O   0  0  0  0  0  0  0  0  0  0  0  0
   -0.3941    4.5968    5.0821 C   0  0  0  0  0  0  0  0  0  0  0  0
    0.1535    4.2302    3.7141 C   0  0  0  0  0  0  0  0  0  0  0  0
   -1.1927    2.4969    7.2264 C   0  0  0  0  0  0  0  0  0  0  0  0
   -0.8963    2.2061    8.7806 C   0  0  0  0  0  0  0  0  0  0  0  0
    0.5917    1.6220    9.0322 C   0  0  1  0  0  0  0  0  0  0  0  0
    1.6334    0.2900    9.2976 C   0  0  2  0  0  0  0  0  0  0  0  0
    1.6879    0.0011   10.8355 C   0  0  0  0  0  0  0  0  0  0  0  0
    3.1291    0.4882    8.6707 C   0  0  1  0  0  0  0  0  0  0  0  0
    3.4253    0.4847    6.7500 S   0  0  0  0  0  0  0  0  0  0  0  0
    4.6880   -0.2938    6.3707 O   0  0  0  0  0  0  0  0  0  0  0  0
    4.1451    1.4587    9.4027 C   0  0  2  0  0  0  0  0  0  0  0  0
    4.8680    0.6994   10.5688 C   0  0  0  0  0  0  0  0  0  0  0  0
    3.4028    2.4132   10.1325 O   0  0  0  0  0  0  0  0  0  0  0  0
    2.6410    3.3632    9.4251 C   0  0  0  0  0  0  0  0  0  0  0  0
    2.2312    3.0384    7.9438 C   0  0  1  0  0  0  0  0  0  0  0  0
    3.4108    3.6174    6.9896 C   0  0  1  0  0  0  0  0  0  0  0  0
    3.2597    5.1405    6.3827 C   0  0  0  0  0  0  0  0  0  0  0  0
    3.2574    6.3917    7.2996 C   0  0  0  0  0  0  0  0  0  0  0  0
    4.2319    5.4597    5.2293 C   0  0  0  0  0  0  0  0  0  0  0  0
    2.0662    5.4261    5.7551 O   0  0  0  0  0  0  0  0  0  0  0  0
    4.9134    3.3395    7.5353 C   0  0  1  0  0  0  0  0  0  0  0  0
    5.9130    3.2239    6.3379 C   0  0  0  0  0  0  0  0  0  0  0  0
    5.3698    4.4492    8.2977 O   0  0  0  0  0  0  0  0  0  0  0  0
    5.2465    2.0930    8.4608 C   0  0  1  0  0  0  0  0  0  0  0  0
    6.5106    2.2835    9.1151 O   0  0  0  0  0  0  0  0  0  0  0  0
    0.9624    1.9265    7.6085 C   0  0  2  0  0  0  0  0  0  0  0  0
    0.2868    0.4035    7.1793 C   0  0  0  0  0  0  0  0  0  0  0  0
    0.8823   -0.7976    7.3632 O   0  0  0  0  0  0  0  0  0  0  0  0
    1.1608   -1.1009    8.6061 C   0  0  2  0  0  0  0  0  0  0  0  0
    0.0556   -1.6509    9.2790 O   0  0  0  0  0  0  0  0  0  0  0  0
    2.1441   -2.2827    8.2692 C   0  0  0  0  0  0  0  0  0  0  0  0
    1.6795   -3.3146    7.1652 C   0  0  0  0  0  0  0  0  0  0  0  0
    1.2800   -3.0748    5.5996 C   0  0  2  0  0  0  0  0  0  0  0  0
   -0.2703   -3.0068    5.5314 C   0  0  0  0  0  0  0  0  0  0  0  0
    1.3567   -8.5886    3.4516 H   0  0  0  0  0  0  0  0  0  0  0  0
    1.8818   -8.5682    5.2219 H   0  0  0  0  0  0  0  0  0  0  0  0
    0.8124   -5.7616    6.1799 H   0  0  0  0  0  0  0  0  0  0  0  0
    2.5519   -6.0268    6.1171 H   0  0  0  0  0  0  0  0  0  0  0  0
    4.0635   -5.8265    3.8916 H   0  0  0  0  0  0  0  0  0  0  0  0
    5.2377   -4.4196    3.8060 H   0  0  0  0  0  0  0  0  0  0  0  0
    3.8373   -2.2783    5.7104 H   0  0  0  0  0  0  0  0  0  0  0  0
    4.9192   -0.1344    1.7813 H   0  0  0  0  0  0  0  0  0  0  0  0
    5.1435   -1.4288    0.5881 H   0  0  0  0  0  0  0  0  0  0  0  0
    6.2367   -1.3152    1.9813 H   0  0  0  0  0  0  0  0  0  0  0  0
    1.7129   -2.5879    2.5746 H   0  0  0  0  0  0  0  0  0  0  0  0
    1.8451   -0.8940    2.7409 H   0  0  0  0  0  0  0  0  0  0  0  0
    0.3603   -1.7145    3.1399 H   0  0  0  0  0  0  0  0  0  0  0  0
    2.5919    1.4164    3.5518 H   0  0  0  0  0  0  0  0  0  0  0  0
    1.5820    2.6734    4.7570 H   0  0  0  0  0  0  0  0  0  0  0  0
   -1.5969    0.4966    2.3821 H   0  0  0  0  0  0  0  0  0  0  0  0
   -0.8514    1.3395    0.9972 H   0  0  0  0  0  0  0  0  0  0  0  0
   -1.6872    2.2507    2.2403 H   0  0  0  0  0  0  0  0  0  0  0  0
   -1.4586    4.4072    5.1032 H   0  0  0  0  0  0  0  0  0  0  0  0
   -0.2602    5.6774    5.0861 H   0  0  0  0  0  0  0  0  0  0  0  0
   -0.3772    4.6408    2.8722 H   0  0  0  0  0  0  0  0  0  0  0  0
   -0.2246    3.3574    3.6489 H   0  0  0  0  0  0  0  0  0  0  0  0
    1.2399    4.2311    3.5473 H   0  0  0  0  0  0  0  0  0  0  0  0
   -1.7432    3.4411    7.2302 H   0  0  0  0  0  0  0  0  0  0  0  0
   -1.8792    1.7830    6.7758 H   0  0  0  0  0  0  0  0  0  0  0  0
   -0.9146    3.1667    9.2997 H   0  0  0  0  0  0  0  0  0  0  0  0
   -1.7555    1.6811    9.2159 H   0  0  0  0  0  0  0  0  0  0  0  0
   -0.0715    0.8689    9.4412 H   0  0  0  0  0  0  0  0  0  0  0  0
    2.2921   -0.8758   11.0689 H   0  0  0  0  0  0  0  0  0  0  0  0
    0.7036   -0.1907   11.2621 H   0  0  0  0  0  0  0  0  0  0  0  0
    2.0734    0.8377   11.4154 H   0  0  0  0  0  0  0  0  0  0  0  0
    3.6532   -0.4196    8.9176 H   0  0  0  0  0  0  0  0  0  0  0  0
    5.5801   -0.0358   10.1928 H   0  0  0  0  0  0  0  0  0  0  0  0
    4.2049    0.1639   11.2393 H   0  0  0  0  0  0  0  0  0  0  0  0
    5.4192    1.3823   11.2169 H   0  0  0  0  0  0  0  0  0  0  0  0
    1.7914    3.6449   10.0508 H   0  0  0  0  0  0  0  0  0  0  0  0
    3.2342    4.2732    9.4572 H   0  0  0  0  0  0  0  0  0  0  0  0
    1.5772    3.8982    7.9918 H   0  0  0  0  0  0  0  0  0  0  0  0
    3.3276    3.0141    6.0960 H   0  0  0  0  0  0  0  0  0  0  0  0
    4.2000    6.5362    7.8105 H   0  0  0  0  0  0  0  0  0  0  0  0
    2.4461    6.3943    8.0260 H   0  0  0  0  0  0  0  0  0  0  0  0
    3.1205    7.3104    6.7137 H   0  0  0  0  0  0  0  0  0  0  0  0
    5.2002    5.6242    5.6177 H   0  0  0  0  0  0  0  0  0  0  0  0
    4.0775    6.4355    4.7758 H   0  0  0  0  0  0  0  0  0  0  0  0
    4.2067    4.7175    4.4259 H   0  0  0  0  0  0  0  0  0  0  0  0
    1.8484    4.7676    5.0963 H   0  0  0  0  0  0  0  0  0  0  0  0
    5.6656    2.3808    5.6887 H   0  0  0  0  0  0  0  0  0  0  0  0
    6.9560    3.1555    6.6548 H   0  0  0  0  0  0  0  0  0  0  0  0
    5.9798    3.9877    5.6660 H   0  0  0  0  0  0  0  0  0  0  0  0
    6.2620    4.2743    8.5649 H   0  0  0  0  0  0  0  0  0  0  0  0
    5.5968    1.2871    7.8245 H   0  0  0  0  0  0  0  0  0  0  0  0
    7.1774    2.4528    8.4640 H   0  0  0  0  0  0  0  0  0  0  0  0
   -0.6799    0.1557    7.6296 H   0  0  0  0  0  0  0  0  0  0  0  0
   -0.2176    0.2652    6.2290 H   0  0  0  0  0  0  0  0  0  0  0  0
    0.3533   -1.8734   10.1493 H   0  0  0  0  0  0  0  0  0  0  0  0
    3.0952   -1.9600    7.8678 H   0  0  0  0  0  0  0  0  0  0  0  0
    2.3739   -2.8025    9.2025 H   0  0  0  0  0  0  0  0  0  0  0  0
    2.5428   -3.9821    7.1762 H   0  0  0  0  0  0  0  0  0  0  0  0
    0.9010   -3.9204    7.6277 H   0  0  0  0  0  0  0  0  0  0  0  0
   -0.6633   -2.0978    5.9794 H   0  0  0  0  0  0  0  0  0  0  0  0
   -0.7303   -3.8438    6.0563 H   0  0  0  0  0  0  0  0  0  0  0  0
   -0.6546   -3.0405    4.5150 H   0  0  0  0  0  0  0  0  0  0  0  0
  1  2  2  0
  1 61  1  0
  1 62  1  0
  2  6  1  0
  2  3  1  0
  3  4  1  0
  3 63  1  0
  3 64  1  0
  4 59  1  0
  4  5  1  6
  4  8  1  0
  5  6  1  0
  6  7  2  0
  8  9  2  0
  8 10  1  0
  9 65  1  0
  9 66  1  0
 10 11  1  0
 10 15  1  0
 10 67  1  1
 11 12  1  0
 12 13  1  0
 12 14  2  0
 13 68  1  0
 13 69  1  0
 13 70  1  0
 15 59  1  0
 15 16  1  6
 15 17  1  0
 16 71  1  0
 16 72  1  0
 16 73  1  0
 17 18  1  0
 35 18  1  6
 18 19  1  6
 18 20  1  0
 19 74  1  0
 20 21  1  0
 20 25  1  0
 20 75  1  6
 21 22  1  0
 22 23  1  0
 22 24  2  0
 23 76  1  0
 23 77  1  0
 23 78  1  0
 25 52  1  0
 25 26  1  6
 25 29  1  0
 26 27  1  0
 27 28  1  0
 27 79  1  0
 27 80  1  0
 28 81  1  0
 28 82  1  0
 28 83  1  0
 29 30  1  0
 29 84  1  0
 29 85  1  0
 30 31  1  0
 30 86  1  0
 30 87  1  0
 31 52  1  0
 31 32  1  0
 31 88  1  1
 32 55  1  0
 32 33  1  1
 32 34  1  0
 33 89  1  0
 33 90  1  0
 33 91  1  0
 34 35  1  0
 34 37  1  0
 34 92  1  1
 35 36  2  0
 37 50  1  0
 37 38  1  1
 37 39  1  0
 38 93  1  0
 38 94  1  0
 38 95  1  0
 39 40  1  0
 40 41  1  0
 40 96  1  0
 40 97  1  0
 41 42  1  0
 41 52  1  0
 41 98  1  6
 42 43  1  0
 42 47  1  0
 42 99  1  6
 43 44  1  0
 43 45  1  0
 43 46  1  0
 44100  1  0
 44101  1  0
 44102  1  0
 45103  1  0
 45104  1  0
 45105  1  0
 46106  1  0
 47 48  1  0
 47 49  1  1
 47 50  1  0
 48107  1  0
 48108  1  0
 48109  1  0
 49110  1  0
 50 51  1  0
 50111  1  6
 51112  1  0
 52 53  1  6
 53 54  1  0
 53113  1  0
 53114  1  0
 54 55  1  0
 55 56  1  1
 55 57  1  0
 56115  1  0
 57 58  1  0
 57116  1  0
 57117  1  0
 58 59  1  0
 58118  1  0
 58119  1  0
 59 60  1  1
 60120  1  0
 60121  1  0
 60122  1  0
M  END
>  <i_m_ct_stereo_status>  (4) 
1

>  <s_m_source_file>  (4) 
/var/tmp/pbs.5075288.sched01/tmpzl_yb0kw/0ymjshsm9.sdf

>  <i_m_source_file_index>  (4) 
28

>  <i_lp_mmshare_version>  (4) 
48012

>  <i_f3d_flags>  (4) 
0

>  <s_epik_input>  (4) 
TzFDKD1PKUMoPVtDSDJdKVtDSDJdW0NAXTEyW0NAXTMoW0NIM10pW0NAXShbQ0gzXSkoW0NAQEhdKEMyPVtDSDJdKU9DKD1PKVtDSDNdKU9bQ0BAXTQoW09IXSlbQ0BASF0oT0MoPU8pW0NIM10pW0NAXTUoT1tDSDJdW0NIM10pW0NAXTY3W0NIXShbQ0gyXVtDSDJdNSlbQ0BAXShbQ0gzXSkoW0NAQF0oW09IXSkoT1tDSDJdNylbQ0gyXVtDSDJdMylbQ0BASF0oW1MrXTRbTy1dKVtDQF04KFtDSDNdKU9bQ0gyXVtDQEhdNltDQEBIXShDKFtDSDNdKShbQ0gzXSlbT0hdKVtDQEBdKFtDSDNdKShbT0hdKVtDQEhdOFtPSF0=

>  <s_epik_cmdline>  (4) 
J2VwaWtfcHl0aG9uJywgJy1waHQnLCAnMi4wJywgJy1waCcsICc3LjAnLCAnLXRuJywgJzgnLCAnLW1hJywgJzIwMCcsICctaW1hZScsICc8aW5maWxlLm1hZT4nLCAnLW9tYWUnLCAnPG91dGZpbGUubWFlPic=

>  <r_lp_tautomer_probability>  (4) 
1

>  <r_epik_Ionization_Penalty>  (4) 
2.10334e-06

>  <r_epik_Ionization_Penalty_Charging>  (4) 
0

>  <r_epik_Ionization_Penalty_Neutral>  (4) 
2.10334e-06

>  <r_epik_State_Penalty>  (4) 
0

>  <r_epik_Charging_Adjusted_Penalty>  (4) 
0

>  <i_epik_Tot_Q>  (4) 
0

>  <i_epik_Tot_abs_Q>  (4) 
2

>  <s_epik_Chemistry_Notes>  (4) 
This compound has an ester and may undergo hydrolysis at high or low pH.

>  <s_lp_Force_Field>  (4) 
OPLS3e

>  <r_lp_Energy>  (4) 
527.183

>  <b_lp_Chiralities_Consistent>  (4) 
1

>  <s_lp_Variant>  (4) 
6:0-2

>  <s_i_glide_gridfile>  (4) 
pfpi4k_grid

>  <i_i_glide_lignum>  (4) 
28

>  <i_i_glide_rotatable_bonds>  (4) 
12

>  <r_i_docking_score>  (4) 
0.406467

>  <r_i_glide_ligand_efficiency>  (4) 
0.00677445

>  <r_i_glide_ligand_efficiency_sa>  (4) 
0.0265211

>  <r_i_glide_ligand_efficiency_ln>  (4) 
0.0797879

>  <r_i_glide_gscore>  (4) 
0.406467

>  <r_i_glide_lipo>  (4) 
-0.145454

>  <r_i_glide_hbond>  (4) 
-0.0826642

>  <r_i_glide_metal>  (4) 
-0

>  <r_i_glide_rewards>  (4) 
-0.521523

>  <r_i_glide_evdw>  (4) 
-29.0047

>  <r_i_glide_ecoul>  (4) 
-4.18718

>  <r_i_glide_erotb>  (4) 
0.116889

>  <r_i_glide_esite>  (4) 
-0.0887212

>  <r_i_glide_emodel>  (4) 
-22.8087

>  <r_i_glide_energy>  (4) 
-33.1919

>  <r_i_glide_einternal>  (4) 
10.1953

>  <r_i_glide_intrahb_reward>  (4) 
-0.5

>  <i_i_glide_confnum>  (4) 
4

>  <i_i_glide_posenum>  (4) 
35

>  <r_i_glide_eff_state_penalty>  (4) 
0

>  <ligand_id>  (4) 
6

>  <original_smiles>  (4) 
C=C1CC2(OC1=O)C(=C)C(OC(C)=O)C1(C)OC3(O)C(OC(C)=O)C4(OCC)CCC5C6(C)C([S+]3[O-])C3(C)OCC(C(C(C)(C)O)C(C)(O)C3O)C54COC6(O)CCC21C

>  <smiles>  (4) 
[H]OC12OC3(C([H])([H])[H])C([H])(OC(=O)C([H])([H])[H])C(=C([H])[H])C4(OC(=O)C(=C([H])[H])C4([H])[H])C3(C([H])([H])[H])C([H])([H])C([H])([H])C3(O[H])OC([H])([H])C45C6([H])C([H])([H])OC(C([H])([H])[H])(C([H])(O[H])C(O[H])(C([H])([H])[H])C6([H])C(O[H])(C([H])([H])[H])C([H])([H])[H])C([H])(S1=O)C3(C([H])([H])[H])C4([H])C([H])([H])C([H])([H])C5(OC([H])([H])C([H])([H])[H])C2([H])OC(=O)C([H])([H])[H]

$$$$
6:2:0
     RDKit          3D

122129  0  0  1  0  0  0  0  0999 V2000
    4.0451   -1.7630   -3.8886 C   0  0  0  0  0  0  0  0  0  0  0  0
    4.1368   -2.4850   -2.7587 C   0  0  0  0  0  0  0  0  0  0  0  0
    3.1073   -2.7649   -1.7250 C   0  0  0  0  0  0  0  0  0  0  0  0
    3.9553   -2.9771   -0.4285 C   0  0  2  0  0  0  0  0  0  0  0  0
    5.1328   -3.4806   -1.0205 O   0  0  0  0  0  0  0  0  0  0  0  0
    5.3442   -3.0973   -2.2694 C   0  0  0  0  0  0  0  0  0  0  0  0
    6.4015   -3.2558   -2.8512 O   0  0  0  0  0  0  0  0  0  0  0  0
    3.4516   -4.0415    0.5404 C   0  0  0  0  0  0  0  0  0  0  0  0
    2.2927   -4.7076    0.4828 C   0  0  0  0  0  0  0  0  0  0  0  0
    4.3934   -4.0945    1.7111 C   0  0  1  0  0  0  0  0  0  0  0  0
    5.2819   -5.1987    1.4759 O   0  0  0  0  0  0  0  0  0  0  0  0
    5.8517   -5.8075    2.5120 C   0  0  0  0  0  0  0  0  0  0  0  0
    6.8126   -6.9286    2.1273 C   0  0  0  0  0  0  0  0  0  0  0  0
    5.6707   -5.5081    3.6844 O   0  0  0  0  0  0  0  0  0  0  0  0
    5.0830   -2.6913    1.7316 C   0  0  2  0  0  0  0  0  0  0  0  0
    6.6036   -2.7792    1.3882 C   0  0  0  0  0  0  0  0  0  0  0  0
    5.4285   -2.2921    3.1563 O   0  0  0  0  0  0  0  0  0  0  0  0
    4.7339   -1.3362    3.8984 C   0  0  1  0  0  0  0  0  0  0  0  0
    4.4845   -0.5124    2.8718 O   0  0  0  0  0  0  0  0  0  0  0  0
    3.5707   -2.2473    4.7785 C   0  0  1  0  0  0  0  0  0  0  0  0
    4.3075   -3.3804    5.3661 O   0  0  0  0  0  0  0  0  0  0  0  0
    5.3923   -3.3128    6.1466 C   0  0  0  0  0  0  0  0  0  0  0  0
    5.8358   -4.6892    6.6977 C   0  0  0  0  0  0  0  0  0  0  0  0
    6.0486   -2.3097    6.4454 O   0  0  0  0  0  0  0  0  0  0  0  0
    2.1674   -1.7499    5.7895 C   0  0  1  0  0  0  0  0  0  0  0  0
    1.0955   -2.7177    5.6444 O   0  0  0  0  0  0  0  0  0  0  0  0
    1.3594   -4.0965    5.8973 C   0  0  0  0  0  0  0  0  0  0  0  0
    0.1132   -4.9180    5.6191 C   0  0  0  0  0  0  0  0  0  0  0  0
    2.6626   -1.8358    7.1712 C   0  0  0  0  0  0  0  0  0  0  0  0
    3.5276   -0.6788    6.7878 C   0  0  0  0  0  0  0  0  0  0  0  0
    2.5921    0.3645    5.7440 C   0  0  1  0  0  0  0  0  0  0  0  0
    2.9679    0.9242    4.3857 C   0  0  1  0  0  0  0  0  0  0  0  0
    2.7915    2.3514    3.7387 C   0  0  0  0  0  0  0  0  0  0  0  0
    4.3869    1.4095    4.9738 C   0  0  1  0  0  0  0  0  0  0  0  0
    5.6934    0.0399    4.7737 S   0  0  0  0  0  0  0  0  0  0  0  0
    6.7765    0.5254    3.8481 O   0  0  0  0  0  0  0  0  0  0  0  0
    4.1869    2.4003    6.3927 C   0  0  2  0  0  0  0  0  0  0  0  0
    5.6167    2.9761    6.6377 C   0  0  0  0  0  0  0  0  0  0  0  0
    3.8621    1.7339    7.6771 O   0  0  0  0  0  0  0  0  0  0  0  0
    2.5135    1.3556    8.2637 C   0  0  0  0  0  0  0  0  0  0  0  0
    1.2238    0.7366    7.4188 C   0  0  1  0  0  0  0  0  0  0  0  0
    0.5155    2.1559    7.3004 C   0  0  1  0  0  0  0  0  0  0  0  0
   -0.4426    2.5001    8.5347 C   0  0  0  0  0  0  0  0  0  0  0  0
   -1.6978    3.3094    8.1040 C   0  0  0  0  0  0  0  0  0  0  0  0
   -0.9856    1.2788    9.2959 C   0  0  0  0  0  0  0  0  0  0  0  0
    0.2046    3.2421    9.5513 O   0  0  0  0  0  0  0  0  0  0  0  0
    1.3813    3.3996    6.6374 C   0  0  1  0  0  0  0  0  0  0  0  0
    0.6996    3.7384    5.2958 C   0  0  0  0  0  0  0  0  0  0  0  0
    0.9876    4.6037    7.2617 O   0  0  0  0  0  0  0  0  0  0  0  0
    3.0347    3.5524    6.5985 C   0  0  1  0  0  0  0  0  0  0  0  0
    3.4242    4.2901    7.7558 O   0  0  0  0  0  0  0  0  0  0  0  0
    1.4023   -0.2371    5.9546 C   0  0  2  0  0  0  0  0  0  0  0  0
    0.3330    0.0580    4.7945 C   0  0  0  0  0  0  0  0  0  0  0  0
    0.8012    0.6173    3.5068 O   0  0  0  0  0  0  0  0  0  0  0  0
    2.0683    0.1403    3.1599 C   0  0  2  0  0  0  0  0  0  0  0  0
    1.8397   -1.2175    3.1374 O   0  0  0  0  0  0  0  0  0  0  0  0
    2.4263    0.3352    1.5828 C   0  0  0  0  0  0  0  0  0  0  0  0
    2.8453   -1.0467    0.8043 C   0  0  0  0  0  0  0  0  0  0  0  0
    4.2866   -1.7965    0.5798 C   0  0  2  0  0  0  0  0  0  0  0  0
    5.2067   -0.7081   -0.0817 C   0  0  0  0  0  0  0  0  0  0  0  0
    4.9074   -1.5784   -4.5080 H   0  0  0  0  0  0  0  0  0  0  0  0
    3.1188   -1.2885   -4.1894 H   0  0  0  0  0  0  0  0  0  0  0  0
    2.3421   -1.9924   -1.7401 H   0  0  0  0  0  0  0  0  0  0  0  0
    2.6428   -3.6864   -2.0542 H   0  0  0  0  0  0  0  0  0  0  0  0
    1.6138   -4.5482   -0.3326 H   0  0  0  0  0  0  0  0  0  0  0  0
    1.9726   -5.3379    1.2904 H   0  0  0  0  0  0  0  0  0  0  0  0
    3.7884   -4.2426    2.6155 H   0  0  0  0  0  0  0  0  0  0  0  0
    7.5348   -6.5692    1.3977 H   0  0  0  0  0  0  0  0  0  0  0  0
    6.2378   -7.7559    1.7201 H   0  0  0  0  0  0  0  0  0  0  0  0
    7.3579   -7.2806    3.0085 H   0  0  0  0  0  0  0  0  0  0  0  0
    6.8793   -3.1258    0.3921 H   0  0  0  0  0  0  0  0  0  0  0  0
    7.1081   -3.4602    2.0565 H   0  0  0  0  0  0  0  0  0  0  0  0
    7.0707   -1.8079    1.5262 H   0  0  0  0  0  0  0  0  0  0  0  0
    3.6551   -0.7903    2.4883 H   0  0  0  0  0  0  0  0  0  0  0  0
    3.1235   -2.8176    4.0197 H   0  0  0  0  0  0  0  0  0  0  0  0
    6.2236   -5.3398    5.8835 H   0  0  0  0  0  0  0  0  0  0  0  0
    4.9855   -5.1714    7.2354 H   0  0  0  0  0  0  0  0  0  0  0  0
    6.6634   -4.4853    7.3717 H   0  0  0  0  0  0  0  0  0  0  0  0
    2.1345   -4.5294    5.2648 H   0  0  0  0  0  0  0  0  0  0  0  0
    1.6610   -4.2548    6.9290 H   0  0  0  0  0  0  0  0  0  0  0  0
    0.2879   -5.9704    5.8549 H   0  0  0  0  0  0  0  0  0  0  0  0
   -0.1563   -4.8477    4.5651 H   0  0  0  0  0  0  0  0  0  0  0  0
   -0.7134   -4.5569    6.2273 H   0  0  0  0  0  0  0  0  0  0  0  0
    1.9127   -1.6986    7.9435 H   0  0  0  0  0  0  0  0  0  0  0  0
    3.2511   -2.7144    7.4552 H   0  0  0  0  0  0  0  0  0  0  0  0
    3.9484   -0.3912    7.7052 H   0  0  0  0  0  0  0  0  0  0  0  0
    4.4263   -1.0550    6.4971 H   0  0  0  0  0  0  0  0  0  0  0  0
    2.3196    1.3869    5.8414 H   0  0  0  0  0  0  0  0  0  0  0  0
    3.0938    3.2475    4.2434 H   0  0  0  0  0  0  0  0  0  0  0  0
    1.9042    2.5768    3.1684 H   0  0  0  0  0  0  0  0  0  0  0  0
    3.5091    2.4031    2.9427 H   0  0  0  0  0  0  0  0  0  0  0  0
    4.7937    0.8839    5.7999 H   0  0  0  0  0  0  0  0  0  0  0  0
    5.8738    3.6989    5.8661 H   0  0  0  0  0  0  0  0  0  0  0  0
    6.3847    2.2073    6.6246 H   0  0  0  0  0  0  0  0  0  0  0  0
    5.7317    3.4574    7.6080 H   0  0  0  0  0  0  0  0  0  0  0  0
    2.7359    0.6236    9.0209 H   0  0  0  0  0  0  0  0  0  0  0  0
    2.2394    2.1823    8.9117 H   0  0  0  0  0  0  0  0  0  0  0  0
    0.6832    0.0748    8.0669 H   0  0  0  0  0  0  0  0  0  0  0  0
   -0.2650    1.9819    6.5874 H   0  0  0  0  0  0  0  0  0  0  0  0
   -2.3236    2.7435    7.4110 H   0  0  0  0  0  0  0  0  0  0  0  0
   -1.4582    4.2533    7.6224 H   0  0  0  0  0  0  0  0  0  0  0  0
   -2.3367    3.5480    8.9535 H   0  0  0  0  0  0  0  0  0  0  0  0
   -1.4221    0.5404    8.6063 H   0  0  0  0  0  0  0  0  0  0  0  0
   -1.7465    1.5808   10.0089 H   0  0  0  0  0  0  0  0  0  0  0  0
   -0.2200    0.7621    9.8705 H   0  0  0  0  0  0  0  0  0  0  0  0
   -0.4037    3.3381   10.2836 H   0  0  0  0  0  0  0  0  0  0  0  0
    0.5533    2.8552    4.6881 H   0  0  0  0  0  0  0  0  0  0  0  0
    1.2439    4.4878    4.7263 H   0  0  0  0  0  0  0  0  0  0  0  0
   -0.3085    4.1268    5.4288 H   0  0  0  0  0  0  0  0  0  0  0  0
    1.3102    4.5538    8.1599 H   0  0  0  0  0  0  0  0  0  0  0  0
    3.2535    4.3251    5.8744 H   0  0  0  0  0  0  0  0  0  0  0  0
    4.3222    4.5699    7.6122 H   0  0  0  0  0  0  0  0  0  0  0  0
   -0.2035   -0.8688    4.5749 H   0  0  0  0  0  0  0  0  0  0  0  0
   -0.4836    0.6805    5.1171 H   0  0  0  0  0  0  0  0  0  0  0  0
    1.2993   -1.3871    2.3660 H   0  0  0  0  0  0  0  0  0  0  0  0
    1.5238    0.7288    1.1096 H   0  0  0  0  0  0  0  0  0  0  0  0
    3.1862    1.1114    1.3948 H   0  0  0  0  0  0  0  0  0  0  0  0
    2.0606   -1.8129    0.9044 H   0  0  0  0  0  0  0  0  0  0  0  0
    2.6505   -0.6719   -0.1748 H   0  0  0  0  0  0  0  0  0  0  0  0
    5.4862    0.0657    0.6287 H   0  0  0  0  0  0  0  0  0  0  0  0
    4.7041   -0.2176   -0.9149 H   0  0  0  0  0  0  0  0  0  0  0  0
    6.1402   -1.0987   -0.4801 H   0  0  0  0  0  0  0  0  0  0  0  0
  1  2  2  0
  1 61  1  0
  1 62  1  0
  2  6  1  0
  2  3  1  0
  3  4  1  0
  3 63  1  0
  3 64  1  0
  4 59  1  0
  4  5  1  6
  4  8  1  0
  5  6  1  0
  6  7  2  0
  8  9  2  0
  8 10  1  0
  9 65  1  0
  9 66  1  0
 10 11  1  0
 10 15  1  0
 10 67  1  1
 11 12  1  0
 12 13  1  0
 12 14  2  0
 13 68  1  0
 13 69  1  0
 13 70  1  0
 15 59  1  0
 15 16  1  6
 15 17  1  0
 16 71  1  0
 16 72  1  0
 16 73  1  0
 17 18  1  0
 35 18  1  6
 18 19  1  6
 18 20  1  0
 19 74  1  0
 20 21  1  0
 20 25  1  0
 20 75  1  6
 21 22  1  0
 22 23  1  0
 22 24  2  0
 23 76  1  0
 23 77  1  0
 23 78  1  0
 25 52  1  0
 25 26  1  1
 25 29  1  0
 26 27  1  0
 27 28  1  0
 27 79  1  0
 27 80  1  0
 28 81  1  0
 28 82  1  0
 28 83  1  0
 29 30  1  0
 29 84  1  0
 29 85  1  0
 30 31  1  0
 30 86  1  0
 30 87  1  0
 31 52  1  0
 31 32  1  0
 31 88  1  1
 32 55  1  0
 32 33  1  1
 32 34  1  0
 33 89  1  0
 33 90  1  0
 33 91  1  0
 34 35  1  0
 34 37  1  0
 34 92  1  6
 35 36  2  0
 37 50  1  0
 37 38  1  1
 37 39  1  0
 38 93  1  0
 38 94  1  0
 38 95  1  0
 39 40  1  0
 40 41  1  0
 40 96  1  0
 40 97  1  0
 41 42  1  0
 41 52  1  0
 41 98  1  1
 42 43  1  0
 42 47  1  0
 42 99  1  6
 43 44  1  0
 43 45  1  0
 43 46  1  0
 44100  1  0
 44101  1  0
 44102  1  0
 45103  1  0
 45104  1  0
 45105  1  0
 46106  1  0
 47 48  1  0
 47 49  1  1
 47 50  1  0
 48107  1  0
 48108  1  0
 48109  1  0
 49110  1  0
 50 51  1  0
 50111  1  6
 51112  1  0
 52 53  1  6
 53 54  1  0
 53113  1  0
 53114  1  0
 54 55  1  0
 55 56  1  1
 55 57  1  0
 56115  1  0
 57 58  1  0
 57116  1  0
 57117  1  0
 58 59  1  0
 58118  1  0
 58119  1  0
 59 60  1  6
 60120  1  0
 60121  1  0
 60122  1  0
M  END
>  <i_m_ct_stereo_status>  (5) 
1

>  <s_m_source_file>  (5) 
/var/tmp/pbs.5075288.sched01/tmpzl_yb0kw/0ymjshsm9.sdf

>  <i_m_source_file_index>  (5) 
29

>  <i_lp_mmshare_version>  (5) 
48012

>  <i_f3d_flags>  (5) 
0

>  <s_epik_input>  (5) 
TzFDKD1PKUMoPVtDSDJdKVtDSDJdW0NAXTEyW0NAXTMoW0NIM10pW0NAXShbQ0gzXSkoW0NAQEhdKEMyPVtDSDJdKU9DKD1PKVtDSDNdKU9bQ0BAXTQoW09IXSlbQ0BASF0oT0MoPU8pW0NIM10pW0NAXTUoT1tDSDJdW0NIM10pW0NAXTY3W0NIXShbQ0gyXVtDSDJdNSlbQ0BAXShbQ0gzXSkoW0NAQF0oW09IXSkoT1tDSDJdNylbQ0gyXVtDSDJdMylbQ0BASF0oW1MrXTRbTy1dKVtDQF04KFtDSDNdKU9bQ0gyXVtDQEhdNltDQEBIXShDKFtDSDNdKShbQ0gzXSlbT0hdKVtDQEBdKFtDSDNdKShbT0hdKVtDQEhdOFtPSF0=

>  <s_epik_cmdline>  (5) 
J2VwaWtfcHl0aG9uJywgJy1waHQnLCAnMi4wJywgJy1waCcsICc3LjAnLCAnLXRuJywgJzgnLCAnLW1hJywgJzIwMCcsICctaW1hZScsICc8aW5maWxlLm1hZT4nLCAnLW9tYWUnLCAnPG91dGZpbGUubWFlPic=

>  <r_lp_tautomer_probability>  (5) 
1

>  <r_epik_Ionization_Penalty>  (5) 
2.10334e-06

>  <r_epik_Ionization_Penalty_Charging>  (5) 
0

>  <r_epik_Ionization_Penalty_Neutral>  (5) 
2.10334e-06

>  <r_epik_State_Penalty>  (5) 
0

>  <r_epik_Charging_Adjusted_Penalty>  (5) 
0

>  <i_epik_Tot_Q>  (5) 
0

>  <i_epik_Tot_abs_Q>  (5) 
2

>  <s_epik_Chemistry_Notes>  (5) 
This compound has an ester and may undergo hydrolysis at high or low pH.

>  <s_lp_Force_Field>  (5) 
OPLS3e

>  <r_lp_Energy>  (5) 
710.304

>  <b_lp_Chiralities_Consistent>  (5) 
1

>  <s_lp_Variant>  (5) 
6:0-3

>  <s_i_glide_gridfile>  (5) 
pfpi4k_grid

>  <i_i_glide_lignum>  (5) 
29

>  <i_i_glide_rotatable_bonds>  (5) 
12

>  <r_i_docking_score>  (5) 
-2.55182

>  <r_i_glide_ligand_efficiency>  (5) 
-0.0425303

>  <r_i_glide_ligand_efficiency_sa>  (5) 
-0.1665

>  <r_i_glide_ligand_efficiency_ln>  (5) 
-0.500911

>  <r_i_glide_gscore>  (5) 
-2.55182

>  <r_i_glide_lipo>  (5) 
-0.373008

>  <r_i_glide_hbond>  (5) 
0

>  <r_i_glide_metal>  (5) 
-0

>  <r_i_glide_rewards>  (5) 
-0.42359

>  <r_i_glide_evdw>  (5) 
-30.836

>  <r_i_glide_ecoul>  (5) 
-2.15366

>  <r_i_glide_erotb>  (5) 
0.116889

>  <r_i_glide_esite>  (5) 
-0.00725644

>  <r_i_glide_emodel>  (5) 
-28.7993

>  <r_i_glide_energy>  (5) 
-32.9897

>  <r_i_glide_einternal>  (5) 
9.33698

>  <r_i_glide_intrahb_reward>  (5) 
-0

>  <i_i_glide_confnum>  (5) 
1

>  <i_i_glide_posenum>  (5) 
40

>  <r_i_glide_eff_state_penalty>  (5) 
0

>  <ligand_id>  (5) 
6

>  <original_smiles>  (5) 
C=C1CC2(OC1=O)C(=C)C(OC(C)=O)C1(C)OC3(O)C(OC(C)=O)C4(OCC)CCC5C6(C)C([S+]3[O-])C3(C)OCC(C(C(C)(C)O)C(C)(O)C3O)C54COC6(O)CCC21C

>  <smiles>  (5) 
[H]OC12OC3(C([H])([H])[H])C([H])(OC(=O)C([H])([H])[H])C(=C([H])[H])C4(OC(=O)C(=C([H])[H])C4([H])[H])C3(C([H])([H])[H])C([H])([H])C([H])([H])C3(O[H])OC([H])([H])C45C6([H])C([H])([H])OC(C([H])([H])[H])(C([H])(O[H])C(O[H])(C([H])([H])[H])C6([H])C(O[H])(C([H])([H])[H])C([H])([H])[H])C([H])(S1=O)C3(C([H])([H])[H])C4([H])C([H])([H])C([H])([H])C5(OC([H])([H])C([H])([H])[H])C2([H])OC(=O)C([H])([H])[H]

$$$$
12:0:0
     RDKit          3D

 98105  0  0  1  0  0  0  0  0999 V2000
    0.0554   -5.9384    8.0225 C   0  0  0  0  0  0  0  0  0  0  0  0
    0.8572   -6.3993    6.7989 C   0  0  0  0  0  0  0  0  0  0  0  0
    0.7871   -7.9208    6.6341 C   0  0  0  0  0  0  0  0  0  0  0  0
    2.3282   -5.9353    6.8311 C   0  0  0  0  0  0  0  0  0  0  0  0
    2.5583   -4.3999    6.8617 C   0  0  0  0  0  0  0  0  0  0  0  0
    1.9431   -3.5975    5.6586 C   0  0  2  0  0  0  0  0  0  0  0  0
    2.6621   -3.9674    4.3065 C   0  0  0  0  0  0  0  0  0  0  0  0
    4.1268   -4.4975    4.3891 C   0  0  0  0  0  0  0  0  0  0  0  0
    1.8089   -4.9451    3.4676 C   0  0  0  0  0  0  0  0  0  0  0  0
    2.7191   -2.6231    3.5822 C   0  0  0  0  0  0  0  0  0  0  0  0
    3.4207   -2.4353    2.5833 O   0  0  0  0  0  0  0  0  0  0  0  0
    1.8005   -1.5758    4.2507 C   0  0  2  0  0  0  0  0  0  0  0  0
    0.4981   -1.8958    3.7643 O   0  0  0  0  0  0  0  0  0  0  0  0
    2.0917   -0.0389    3.9358 C   0  0  1  0  0  0  0  0  0  0  0  0
    2.0921   -0.0440    2.5029 O   0  0  0  0  0  0  0  0  0  0  0  0
    0.9870    0.5672    4.4220 O   0  0  0  0  0  0  0  0  0  0  0  0
    0.7630    1.9645    4.4259 C   0  0  2  0  0  0  0  0  0  0  0  0
    1.4588    2.5458    3.1966 C   0  0  0  0  0  0  0  0  0  0  0  0
    2.9916    2.1607    3.4805 C   0  0  0  0  0  0  0  0  0  0  0  0
    3.2399    0.9055    4.5100 C   0  0  2  0  0  0  0  0  0  0  0  0
    4.5644    0.2691    3.9716 C   0  0  0  0  0  0  0  0  0  0  0  0
    3.3021    1.2320    6.2287 C   0  0  1  0  0  0  0  0  0  0  0  0
    4.7938    0.7995    6.6753 C   0  0  0  0  0  0  0  0  0  0  0  0
    6.0049    1.5564    6.3852 C   0  0  0  0  0  0  0  0  0  0  0  0
    7.1884    1.0118    6.8012 C   0  0  0  0  0  0  0  0  0  0  0  0
    6.9411   -0.5045    7.5617 S   0  0  0  0  0  0  0  0  0  0  0  0
    5.2329   -0.3559    7.3136 C   0  0  0  0  0  0  0  0  0  0  0  0
    3.6321    3.0944    6.2833 S   0  0  0  0  0  0  0  0  0  0  0  0
    3.8711    3.6040    7.7068 O   0  0  0  0  0  0  0  0  0  0  0  0
    2.1008    3.8020    5.5807 C   0  0  0  0  0  0  0  0  0  0  0  0
    1.1313    2.7726    5.4960 O   0  0  0  0  0  0  0  0  0  0  0  0
    1.9731    0.9682    7.4107 C   0  0  1  0  0  0  0  0  0  0  0  0
    1.4210    2.2797    8.1505 C   0  0  0  0  0  0  0  0  0  0  0  0
    0.5986    0.2522    6.8903 C   0  0  1  0  0  0  0  0  0  0  0  0
   -0.6970    1.0223    6.2570 C   0  0  0  0  0  0  0  0  0  0  0  0
   -1.7665    0.9459    6.8764 O   0  0  0  0  0  0  0  0  0  0  0  0
   -0.7012    1.8180    4.8576 C   0  0  1  0  0  0  0  0  0  0  0  0
   -1.4061    3.1944    4.9980 C   0  0  0  0  0  0  0  0  0  0  0  0
   -1.4683    1.1239    3.8963 O   0  0  0  0  0  0  0  0  0  0  0  0
    0.7145   -1.3353    6.6940 C   0  0  2  0  0  0  0  0  0  0  0  0
   -0.5517   -1.8248    6.2894 O   0  0  0  0  0  0  0  0  0  0  0  0
    0.8325   -1.8542    8.1352 C   0  0  0  0  0  0  0  0  0  0  0  0
    2.1287   -1.4030    8.8562 C   0  0  2  0  0  0  0  0  0  0  0  0
    1.8362   -1.7982   10.1958 O   0  0  0  0  0  0  0  0  0  0  0  0
    1.3501   -0.7045   10.8202 C   0  0  0  0  0  0  0  0  0  0  0  0
    1.5023    0.4019   10.1109 C   0  0  0  0  0  0  0  0  0  0  0  0
    2.3171    0.1632    8.8295 C   0  0  2  0  0  0  0  0  0  0  0  0
    3.5847    0.5657    9.2794 O   0  0  0  0  0  0  0  0  0  0  0  0
    1.8289   -2.0036    5.7383 C   0  0  1  0  0  0  0  0  0  0  0  0
    3.0819   -1.6525    6.1796 O   0  0  0  0  0  0  0  0  0  0  0  0
    0.5124   -6.2886    8.9491 H   0  0  0  0  0  0  0  0  0  0  0  0
   -0.9747   -6.2895    7.9821 H   0  0  0  0  0  0  0  0  0  0  0  0
   -0.0042   -4.8568    8.0590 H   0  0  0  0  0  0  0  0  0  0  0  0
    0.3751   -5.9847    5.9153 H   0  0  0  0  0  0  0  0  0  0  0  0
    1.2362   -8.4350    7.4848 H   0  0  0  0  0  0  0  0  0  0  0  0
    1.3100   -8.2416    5.7309 H   0  0  0  0  0  0  0  0  0  0  0  0
   -0.2434   -8.2578    6.5392 H   0  0  0  0  0  0  0  0  0  0  0  0
    2.8283   -6.3705    7.6993 H   0  0  0  0  0  0  0  0  0  0  0  0
    2.8108   -6.3885    5.9679 H   0  0  0  0  0  0  0  0  0  0  0  0
    2.2103   -4.0672    7.8275 H   0  0  0  0  0  0  0  0  0  0  0  0
    3.6286   -4.2013    6.9342 H   0  0  0  0  0  0  0  0  0  0  0  0
    0.9060   -3.9129    5.5782 H   0  0  0  0  0  0  0  0  0  0  0  0
    4.2325   -5.4719    4.8594 H   0  0  0  0  0  0  0  0  0  0  0  0
    4.7815   -3.8040    4.9174 H   0  0  0  0  0  0  0  0  0  0  0  0
    4.5496   -4.6178    3.3888 H   0  0  0  0  0  0  0  0  0  0  0  0
    1.7420   -5.9289    3.9277 H   0  0  0  0  0  0  0  0  0  0  0  0
    2.2288   -5.0930    2.4712 H   0  0  0  0  0  0  0  0  0  0  0  0
    0.7875   -4.5862    3.3299 H   0  0  0  0  0  0  0  0  0  0  0  0
    0.4857   -1.7985    2.8201 H   0  0  0  0  0  0  0  0  0  0  0  0
    1.3085   -0.4523    2.1776 H   0  0  0  0  0  0  0  0  0  0  0  0
    1.0401    2.0941    2.2980 H   0  0  0  0  0  0  0  0  0  0  0  0
    1.2643    3.6125    3.0694 H   0  0  0  0  0  0  0  0  0  0  0  0
    3.4043    1.9249    2.4990 H   0  0  0  0  0  0  0  0  0  0  0  0
    3.6173    3.0243    3.6837 H   0  0  0  0  0  0  0  0  0  0  0  0
    5.4039    0.9606    3.9972 H   0  0  0  0  0  0  0  0  0  0  0  0
    4.4974   -0.0154    2.9217 H   0  0  0  0  0  0  0  0  0  0  0  0
    4.8546   -0.6399    4.4993 H   0  0  0  0  0  0  0  0  0  0  0  0
    6.0339    2.4926    5.8502 H   0  0  0  0  0  0  0  0  0  0  0  0
    8.1838    1.4120    6.6951 H   0  0  0  0  0  0  0  0  0  0  0  0
    4.6673   -1.1534    7.7378 H   0  0  0  0  0  0  0  0  0  0  0  0
    1.7442    4.5566    6.2785 H   0  0  0  0  0  0  0  0  0  0  0  0
    2.2911    4.3903    4.6842 H   0  0  0  0  0  0  0  0  0  0  0  0
    0.4871    2.0873    8.6769 H   0  0  0  0  0  0  0  0  0  0  0  0
    1.0604    3.1400    7.6291 H   0  0  0  0  0  0  0  0  0  0  0  0
    2.1110    2.6794    8.8897 H   0  0  0  0  0  0  0  0  0  0  0  0
    0.0893    0.2662    7.8470 H   0  0  0  0  0  0  0  0  0  0  0  0
   -0.9929    3.8058    5.8032 H   0  0  0  0  0  0  0  0  0  0  0  0
   -2.4669    3.0739    5.2264 H   0  0  0  0  0  0  0  0  0  0  0  0
   -1.3271    3.7757    4.0774 H   0  0  0  0  0  0  0  0  0  0  0  0
   -1.4714    1.6294    3.0928 H   0  0  0  0  0  0  0  0  0  0  0  0
   -0.5970   -1.7203    5.3404 H   0  0  0  0  0  0  0  0  0  0  0  0
   -0.0264   -1.4977    8.7045 H   0  0  0  0  0  0  0  0  0  0  0  0
    0.6775   -2.9163    8.1983 H   0  0  0  0  0  0  0  0  0  0  0  0
    2.9972   -1.9667    8.5489 H   0  0  0  0  0  0  0  0  0  0  0  0
    0.9119   -0.8609   11.7975 H   0  0  0  0  0  0  0  0  0  0  0  0
    1.1906    1.3631   10.4972 H   0  0  0  0  0  0  0  0  0  0  0  0
    3.6069    1.5147    9.2958 H   0  0  0  0  0  0  0  0  0  0  0  0
    3.7313   -2.0525    5.6122 H   0  0  0  0  0  0  0  0  0  0  0  0
  1  2  1  0
  1 51  1  0
  1 52  1  0
  1 53  1  0
  2  3  1  0
  2  4  1  0
  2 54  1  0
  3 55  1  0
  3 56  1  0
  3 57  1  0
  4  5  1  0
  4 58  1  0
  4 59  1  0
  5  6  1  0
  5 60  1  0
  5 61  1  0
  6 49  1  0
  6  7  1  0
  6 62  1  6
  7  8  1  0
  7  9  1  0
  7 10  1  0
  8 63  1  0
  8 64  1  0
  8 65  1  0
  9 66  1  0
  9 67  1  0
  9 68  1  0
 10 11  2  0
 10 12  1  0
 12 49  1  0
 12 13  1  6
 12 14  1  0
 13 69  1  0
 14 20  1  0
 14 15  1  6
 14 16  1  0
 15 70  1  0
 16 17  1  0
 17 31  1  1
 17 37  1  0
 17 18  1  0
 18 19  1  0
 18 71  1  0
 18 72  1  0
 19 20  1  0
 19 73  1  0
 19 74  1  0
 20 21  1  6
 20 22  1  0
 21 75  1  0
 21 76  1  0
 21 77  1  0
 22 23  1  1
 22 28  1  0
 22 32  1  0
 23 27  2  0
 23 24  1  0
 24 25  2  0
 24 78  1  0
 25 26  1  0
 25 79  1  0
 26 27  1  0
 27 80  1  0
 28 29  2  0
 28 30  1  1
 30 31  1  0
 30 81  1  0
 30 82  1  0
 32 47  1  0
 32 33  1  1
 32 34  1  0
 33 83  1  0
 33 84  1  0
 33 85  1  0
 34 35  1  0
 34 40  1  0
 34 86  1  1
 35 36  2  0
 35 37  1  0
 37 38  1  0
 37 39  1  6
 38 87  1  0
 38 88  1  0
 38 89  1  0
 39 90  1  0
 40 41  1  6
 40 42  1  0
 40 49  1  0
 41 91  1  0
 42 43  1  0
 42 92  1  0
 42 93  1  0
 43 47  1  0
 43 44  1  0
 43 94  1  6
 44 45  1  0
 45 46  2  0
 45 95  1  0
 46 47  1  0
 46 96  1  0
 47 48  1  1
 48 97  1  0
 49 50  1  1
 50 98  1  0
M  END
>  <i_m_ct_stereo_status>  (6) 
1

>  <s_m_source_file>  (6) 
/var/tmp/pbs.5075288.sched01/tmpzl_yb0kw/0ymjshsm9.sdf

>  <i_m_source_file_index>  (6) 
45

>  <i_lp_mmshare_version>  (6) 
48012

>  <i_f3d_flags>  (6) 
0

>  <s_epik_input>  (6) 
W0NIM11bQ0hdKFtDSDNdKVtDSDJdW0NIMl1bQ0BIXShDKFtDSDNdKShbQ0gzXSlDMT1PKVtDQEBdKFtPSF0pKFtDQEBdMShbT0hdKVtDQEBdMihbT0hdKU9bQ0BdMzQ1KVtDQF02KFtPSF0pW0NIXShDKD1PKVtDQF01KFtDSDNdKVtPSF0pW0NAQF0oW0NIM10pKFtDQF03KFtPSF0pW0NASF0oW0NIMl02KU9bQ0hdPVtDSF03KVtDQF0oW1MrXShbTy1dKVtDSDJdTzQpKFtDQF0yKFtDSDNdKVtDSDJdW0NIMl0zKWM4W2NIXVtjSF1zW2NIXTg=

>  <s_epik_cmdline>  (6) 
J2VwaWtfcHl0aG9uJywgJy1waHQnLCAnMi4wJywgJy1waCcsICc3LjAnLCAnLXRuJywgJzgnLCAnLW1hJywgJzIwMCcsICctaW1hZScsICc8aW5maWxlLm1hZT4nLCAnLW9tYWUnLCAnPG91dGZpbGUubWFlPic=

>  <r_lp_tautomer_probability>  (6) 
1

>  <r_epik_Ionization_Penalty>  (6) 
1.34519e-05

>  <r_epik_Ionization_Penalty_Charging>  (6) 
0

>  <r_epik_Ionization_Penalty_Neutral>  (6) 
1.34519e-05

>  <r_epik_State_Penalty>  (6) 
0

>  <r_epik_Charging_Adjusted_Penalty>  (6) 
0

>  <i_epik_Tot_Q>  (6) 
0

>  <i_epik_Tot_abs_Q>  (6) 
2

>  <s_epik_Chemistry_Notes>  (6) 
This compound contains an acetal/aminal-like group ( X-CH(R)-Y where X, Y are N, S, or O) that may be acid/base labile, releasing an aldehyde.

>  <s_lp_Force_Field>  (6) 
OPLS3e

>  <r_lp_Energy>  (6) 
318.279

>  <b_lp_Chiralities_Consistent>  (6) 
1

>  <s_lp_Variant>  (6) 
12:0-1

>  <s_i_glide_gridfile>  (6) 
pfpi4k_grid

>  <i_i_glide_lignum>  (6) 
45

>  <i_i_glide_rotatable_bonds>  (6) 
10

>  <r_i_docking_score>  (6) 
-3.15368

>  <r_i_glide_ligand_efficiency>  (6) 
-0.0630737

>  <r_i_glide_ligand_efficiency_sa>  (6) 
-0.232365

>  <r_i_glide_ligand_efficiency_ln>  (6) 
-0.642033

>  <r_i_glide_gscore>  (6) 
-3.15368

>  <r_i_glide_lipo>  (6) 
-0.244699

>  <r_i_glide_hbond>  (6) 
-0.16

>  <r_i_glide_metal>  (6) 
-0

>  <r_i_glide_rewards>  (6) 
-0.500482

>  <r_i_glide_evdw>  (6) 
-25.6504

>  <r_i_glide_ecoul>  (6) 
-6.98119

>  <r_i_glide_erotb>  (6) 
0.119183

>  <r_i_glide_esite>  (6) 
-0.0379845

>  <r_i_glide_emodel>  (6) 
-42.3958

>  <r_i_glide_energy>  (6) 
-32.6316

>  <r_i_glide_einternal>  (6) 
4.30782

>  <r_i_glide_intrahb_reward>  (6) 
-0.5

>  <i_i_glide_confnum>  (6) 
3

>  <i_i_glide_posenum>  (6) 
1

>  <r_i_glide_eff_state_penalty>  (6) 
0

>  <ligand_id>  (6) 
12

>  <original_smiles>  (6) 
CC(C)CCC1C(C)(C)C(=O)C2(O)C3(O)OC45CCC3(C)C(c3ccsc3)([S+]([O-])CO4)C3(C)C(C(=O)C5(C)O)C(O)(CC4OC=CC43O)C12O

>  <smiles>  (6) 
[H]OC12OC34OC([H])([H])S(=O)C(c5c([H])sc([H])c5[H])(C1(C([H])([H])[H])C([H])([H])C3([H])[H])C1(C([H])([H])[H])C([H])(C(=O)C4(O[H])C([H])([H])[H])C(O[H])(C([H])([H])C3([H])OC([H])=C([H])C31O[H])C1(O[H])C2(O[H])C(=O)C(C([H])([H])[H])(C([H])([H])[H])C1([H])C([H])([H])C([H])([H])C([H])(C([H])([H])[H])C([H])([H])[H]

$$$$
12:0:1
     RDKit          3D

 98105  0  0  1  0  0  0  0  0999 V2000
   -1.5333   -4.1103    7.0899 C   0  0  0  0  0  0  0  0  0  0  0  0
   -0.6752   -4.6578    8.2674 C   0  0  0  0  0  0  0  0  0  0  0  0
   -1.2715   -4.1384    9.5779 C   0  0  0  0  0  0  0  0  0  0  0  0
    0.8516   -4.3625    8.1932 C   0  0  0  0  0  0  0  0  0  0  0  0
    1.2980   -2.8833    7.9725 C   0  0  0  0  0  0  0  0  0  0  0  0
    0.9151   -2.3014    6.5290 C   0  0  2  0  0  0  0  0  0  0  0  0
    1.7432   -3.0477    5.4046 C   0  0  0  0  0  0  0  0  0  0  0  0
    3.0864   -3.7356    5.7873 C   0  0  0  0  0  0  0  0  0  0  0  0
    0.8541   -4.0959    4.6612 C   0  0  0  0  0  0  0  0  0  0  0  0
    2.0627   -1.9110    4.4380 C   0  0  0  0  0  0  0  0  0  0  0  0
    2.8552   -2.0393    3.5064 O   0  0  0  0  0  0  0  0  0  0  0  0
    1.2011   -0.6586    4.7537 C   0  0  2  0  0  0  0  0  0  0  0  0
   -0.0567   -0.9543    4.1447 O   0  0  0  0  0  0  0  0  0  0  0  0
    1.6935    0.7252    4.1610 C   0  0  1  0  0  0  0  0  0  0  0  0
    1.7818    0.3969    2.7963 O   0  0  0  0  0  0  0  0  0  0  0  0
    0.6433    1.5400    4.3882 O   0  0  0  0  0  0  0  0  0  0  0  0
    0.6046    2.9203    4.0723 C   0  0  2  0  0  0  0  0  0  0  0  0
    1.4966    3.1292    2.8525 C   0  0  0  0  0  0  0  0  0  0  0  0
    2.9307    2.6484    3.3883 C   0  0  0  0  0  0  0  0  0  0  0  0
    2.9037    1.6325    4.6795 C   0  0  2  0  0  0  0  0  0  0  0  0
    4.1768    0.7572    4.4455 C   0  0  0  0  0  0  0  0  0  0  0  0
    2.8309    2.3431    6.2825 C   0  0  1  0  0  0  0  0  0  0  0  0
    4.1867    1.8483    7.0143 C   0  0  0  0  0  0  0  0  0  0  0  0
    5.5172    2.3750    6.7267 C   0  0  0  0  0  0  0  0  0  0  0  0
    6.5732    1.8115    7.3987 C   0  0  0  0  0  0  0  0  0  0  0  0
    6.0407    0.5443    8.4209 S   0  0  0  0  0  0  0  0  0  0  0  0
    4.4020    0.8125    7.9330 C   0  0  0  0  0  0  0  0  0  0  0  0
    3.4095    4.1243    5.9956 S   0  0  0  0  0  0  0  0  0  0  0  0
    3.5715    4.9200    7.2940 O   0  0  0  0  0  0  0  0  0  0  0  0
    2.0577    4.8143    4.9722 C   0  0  0  0  0  0  0  0  0  0  0  0
    0.9809    3.8983    4.9879 O   0  0  0  0  0  0  0  0  0  0  0  0
    1.3704    2.4855    7.3262 C   0  0  1  0  0  0  0  0  0  0  0  0
    0.9160    3.9786    7.6972 C   0  0  0  0  0  0  0  0  0  0  0  0
   -0.0317    1.8240    6.7943 C   0  0  1  0  0  0  0  0  0  0  0  0
   -1.1390    2.5664    5.8466 C   0  0  0  0  0  0  0  0  0  0  0  0
   -2.2576    2.7653    6.3223 O   0  0  0  0  0  0  0  0  0  0  0  0
   -0.8938    3.0417    4.3269 C   0  0  1  0  0  0  0  0  0  0  0  0
   -1.4134    4.4836    4.0934 C   0  0  0  0  0  0  0  0  0  0  0  0
   -1.6753    2.2537    3.4456 O   0  0  0  0  0  0  0  0  0  0  0  0
   -0.1031    0.2272    6.9290 C   0  0  2  0  0  0  0  0  0  0  0  0
   -1.3761   -0.2119    6.4793 O   0  0  0  0  0  0  0  0  0  0  0  0
   -0.2092    0.0226    8.4515 C   0  0  0  0  0  0  0  0  0  0  0  0
    1.0525    0.4774    9.2296 C   0  0  2  0  0  0  0  0  0  0  0  0
    0.5905    0.4210   10.5847 O   0  0  0  0  0  0  0  0  0  0  0  0
    0.2012    1.6603   10.9162 C   0  0  0  0  0  0  0  0  0  0  0  0
    0.5432    2.5678   10.0109 C   0  0  0  0  0  0  0  0  0  0  0  0
    1.4475    1.9644    8.9135 C   0  0  2  0  0  0  0  0  0  0  0  0
    2.7041    2.3202    9.4267 O   0  0  0  0  0  0  0  0  0  0  0  0
    1.0302   -0.7367    6.2761 C   0  0  1  0  0  0  0  0  0  0  0  0
    2.2629   -0.4537    6.7987 O   0  0  0  0  0  0  0  0  0  0  0  0
   -1.5157   -3.0404    7.0858 H   0  0  0  0  0  0  0  0  0  0  0  0
   -2.5809   -4.4566    7.1434 H   0  0  0  0  0  0  0  0  0  0  0  0
   -1.1507   -4.5201    6.1397 H   0  0  0  0  0  0  0  0  0  0  0  0
   -0.7577   -5.7470    8.2607 H   0  0  0  0  0  0  0  0  0  0  0  0
   -1.1618   -3.0605    9.6528 H   0  0  0  0  0  0  0  0  0  0  0  0
   -0.7774   -4.5917   10.4372 H   0  0  0  0  0  0  0  0  0  0  0  0
   -2.3330   -4.3811    9.6054 H   0  0  0  0  0  0  0  0  0  0  0  0
    1.3325   -4.7321    9.1111 H   0  0  0  0  0  0  0  0  0  0  0  0
    1.2546   -5.0298    7.4315 H   0  0  0  0  0  0  0  0  0  0  0  0
    0.8605   -2.3450    8.8040 H   0  0  0  0  0  0  0  0  0  0  0  0
    2.3648   -2.7912    8.2018 H   0  0  0  0  0  0  0  0  0  0  0  0
   -0.0580   -2.4546    6.2913 H   0  0  0  0  0  0  0  0  0  0  0  0
    2.9750   -4.5826    6.4752 H   0  0  0  0  0  0  0  0  0  0  0  0
    3.7571   -3.0129    6.2697 H   0  0  0  0  0  0  0  0  0  0  0  0
    3.5742   -4.1618    4.8996 H   0  0  0  0  0  0  0  0  0  0  0  0
    0.6604   -4.9717    5.2777 H   0  0  0  0  0  0  0  0  0  0  0  0
    1.3276   -4.4968    3.7619 H   0  0  0  0  0  0  0  0  0  0  0  0
   -0.0998   -3.6827    4.3463 H   0  0  0  0  0  0  0  0  0  0  0  0
    0.0783   -0.8909    3.1999 H   0  0  0  0  0  0  0  0  0  0  0  0
    1.9635    1.1993    2.3060 H   0  0  0  0  0  0  0  0  0  0  0  0
    1.1128    2.5471    2.0186 H   0  0  0  0  0  0  0  0  0  0  0  0
    1.4734    4.1538    2.4895 H   0  0  0  0  0  0  0  0  0  0  0  0
    3.4104    2.1626    2.5396 H   0  0  0  0  0  0  0  0  0  0  0  0
    3.6343    3.4624    3.5066 H   0  0  0  0  0  0  0  0  0  0  0  0
    5.0896    1.3464    4.4232 H   0  0  0  0  0  0  0  0  0  0  0  0
    4.1764    0.2510    3.4854 H   0  0  0  0  0  0  0  0  0  0  0  0
    4.3017   -0.0404    5.1791 H   0  0  0  0  0  0  0  0  0  0  0  0
    5.7381    3.1576    6.0135 H   0  0  0  0  0  0  0  0  0  0  0  0
    7.6281    2.0500    7.3430 H   0  0  0  0  0  0  0  0  0  0  0  0
    3.7216    0.1227    8.4149 H   0  0  0  0  0  0  0  0  0  0  0  0
    1.7324    5.7366    5.4298 H   0  0  0  0  0  0  0  0  0  0  0  0
    2.4081    5.1773    4.0181 H   0  0  0  0  0  0  0  0  0  0  0  0
   -0.0819    4.0146    8.1297 H   0  0  0  0  0  0  0  0  0  0  0  0
    0.7333    4.7369    6.9688 H   0  0  0  0  0  0  0  0  0  0  0  0
    1.5751    4.4568    8.4215 H   0  0  0  0  0  0  0  0  0  0  0  0
   -0.6362    2.0983    7.6551 H   0  0  0  0  0  0  0  0  0  0  0  0
   -0.9976    5.2067    4.7999 H   0  0  0  0  0  0  0  0  0  0  0  0
   -2.4947    4.5190    4.2038 H   0  0  0  0  0  0  0  0  0  0  0  0
   -1.1758    4.8352    3.0881 H   0  0  0  0  0  0  0  0  0  0  0  0
   -1.4611    2.5183    2.5495 H   0  0  0  0  0  0  0  0  0  0  0  0
   -1.4019   -0.1070    5.5308 H   0  0  0  0  0  0  0  0  0  0  0  0
   -1.0686    0.5743    8.8339 H   0  0  0  0  0  0  0  0  0  0  0  0
   -0.5327   -0.9661    8.7261 H   0  0  0  0  0  0  0  0  0  0  0  0
    1.8647   -0.2384    9.1573 H   0  0  0  0  0  0  0  0  0  0  0  0
   -0.3564    1.7562   11.8493 H   0  0  0  0  0  0  0  0  0  0  0  0
    0.3147    3.6069   10.1403 H   0  0  0  0  0  0  0  0  0  0  0  0
    3.3824    1.8055    8.9807 H   0  0  0  0  0  0  0  0  0  0  0  0
    2.4779    0.4516    6.5739 H   0  0  0  0  0  0  0  0  0  0  0  0
  1  2  1  0
  1 51  1  0
  1 52  1  0
  1 53  1  0
  2  3  1  0
  2  4  1  0
  2 54  1  0
  3 55  1  0
  3 56  1  0
  3 57  1  0
  4  5  1  0
  4 58  1  0
  4 59  1  0
  5  6  1  0
  5 60  1  0
  5 61  1  0
  6 49  1  0
  6  7  1  0
  6 62  1  6
  7  8  1  0
  7  9  1  0
  7 10  1  0
  8 63  1  0
  8 64  1  0
  8 65  1  0
  9 66  1  0
  9 67  1  0
  9 68  1  0
 10 11  2  0
 10 12  1  0
 12 49  1  0
 12 13  1  6
 12 14  1  0
 13 69  1  0
 14 20  1  0
 14 15  1  6
 14 16  1  0
 15 70  1  0
 16 17  1  0
 17 31  1  1
 17 37  1  0
 17 18  1  0
 18 19  1  0
 18 71  1  0
 18 72  1  0
 19 20  1  0
 19 73  1  0
 19 74  1  0
 20 21  1  1
 20 22  1  0
 21 75  1  0
 21 76  1  0
 21 77  1  0
 22 23  1  1
 22 28  1  0
 22 32  1  0
 23 27  2  0
 23 24  1  0
 24 25  2  0
 24 78  1  0
 25 26  1  0
 25 79  1  0
 26 27  1  0
 27 80  1  0
 28 29  2  0
 28 30  1  6
 30 31  1  0
 30 81  1  0
 30 82  1  0
 32 47  1  0
 32 33  1  1
 32 34  1  0
 33 83  1  0
 33 84  1  0
 33 85  1  0
 34 35  1  0
 34 40  1  0
 34 86  1  1
 35 36  2  0
 35 37  1  0
 37 38  1  0
 37 39  1  6
 38 87  1  0
 38 88  1  0
 38 89  1  0
 39 90  1  0
 40 41  1  6
 40 42  1  0
 40 49  1  0
 41 91  1  0
 42 43  1  0
 42 92  1  0
 42 93  1  0
 43 47  1  0
 43 44  1  0
 43 94  1  1
 44 45  1  0
 45 46  2  0
 45 95  1  0
 46 47  1  0
 46 96  1  0
 47 48  1  1
 48 97  1  0
 49 50  1  1
 50 98  1  0
M  END
>  <i_m_ct_stereo_status>  (7) 
1

>  <s_m_source_file>  (7) 
/var/tmp/pbs.5075288.sched01/tmpzl_yb0kw/0ymjshsm9.sdf

>  <i_m_source_file_index>  (7) 
45

>  <i_lp_mmshare_version>  (7) 
48012

>  <i_f3d_flags>  (7) 
0

>  <s_epik_input>  (7) 
W0NIM11bQ0hdKFtDSDNdKVtDSDJdW0NIMl1bQ0BIXShDKFtDSDNdKShbQ0gzXSlDMT1PKVtDQEBdKFtPSF0pKFtDQEBdMShbT0hdKVtDQEBdMihbT0hdKU9bQ0BdMzQ1KVtDQF02KFtPSF0pW0NIXShDKD1PKVtDQF01KFtDSDNdKVtPSF0pW0NAQF0oW0NIM10pKFtDQF03KFtPSF0pW0NASF0oW0NIMl02KU9bQ0hdPVtDSF03KVtDQF0oW1MrXShbTy1dKVtDSDJdTzQpKFtDQF0yKFtDSDNdKVtDSDJdW0NIMl0zKWM4W2NIXVtjSF1zW2NIXTg=

>  <s_epik_cmdline>  (7) 
J2VwaWtfcHl0aG9uJywgJy1waHQnLCAnMi4wJywgJy1waCcsICc3LjAnLCAnLXRuJywgJzgnLCAnLW1hJywgJzIwMCcsICctaW1hZScsICc8aW5maWxlLm1hZT4nLCAnLW9tYWUnLCAnPG91dGZpbGUubWFlPic=

>  <r_lp_tautomer_probability>  (7) 
1

>  <r_epik_Ionization_Penalty>  (7) 
1.34519e-05

>  <r_epik_Ionization_Penalty_Charging>  (7) 
0

>  <r_epik_Ionization_Penalty_Neutral>  (7) 
1.34519e-05

>  <r_epik_State_Penalty>  (7) 
0

>  <r_epik_Charging_Adjusted_Penalty>  (7) 
0

>  <i_epik_Tot_Q>  (7) 
0

>  <i_epik_Tot_abs_Q>  (7) 
2

>  <s_epik_Chemistry_Notes>  (7) 
This compound contains an acetal/aminal-like group ( X-CH(R)-Y where X, Y are N, S, or O) that may be acid/base labile, releasing an aldehyde.

>  <s_lp_Force_Field>  (7) 
OPLS3e

>  <r_lp_Energy>  (7) 
318.279

>  <b_lp_Chiralities_Consistent>  (7) 
1

>  <s_lp_Variant>  (7) 
12:0-1

>  <s_i_glide_gridfile>  (7) 
pfpi4k_grid

>  <i_i_glide_lignum>  (7) 
45

>  <i_i_glide_rotatable_bonds>  (7) 
10

>  <r_i_docking_score>  (7) 
-2.71637

>  <r_i_glide_ligand_efficiency>  (7) 
-0.0543275

>  <r_i_glide_ligand_efficiency_sa>  (7) 
-0.200144

>  <r_i_glide_ligand_efficiency_ln>  (7) 
-0.553005

>  <r_i_glide_gscore>  (7) 
-2.71637

>  <r_i_glide_lipo>  (7) 
-0.0352762

>  <r_i_glide_hbond>  (7) 
0

>  <r_i_glide_metal>  (7) 
-0

>  <r_i_glide_rewards>  (7) 
-0.507727

>  <r_i_glide_evdw>  (7) 
-27.5557

>  <r_i_glide_ecoul>  (7) 
-5.82614

>  <r_i_glide_erotb>  (7) 
0.119183

>  <r_i_glide_esite>  (7) 
-0.0408487

>  <r_i_glide_emodel>  (7) 
-39.0139

>  <r_i_glide_energy>  (7) 
-33.3818

>  <r_i_glide_einternal>  (7) 
5.35397

>  <r_i_glide_intrahb_reward>  (7) 
-0.5

>  <i_i_glide_confnum>  (7) 
3

>  <i_i_glide_posenum>  (7) 
31

>  <r_i_glide_eff_state_penalty>  (7) 
0

>  <ligand_id>  (7) 
12

>  <original_smiles>  (7) 
CC(C)CCC1C(C)(C)C(=O)C2(O)C3(O)OC45CCC3(C)C(c3ccsc3)([S+]([O-])CO4)C3(C)C(C(=O)C5(C)O)C(O)(CC4OC=CC43O)C12O

>  <smiles>  (7) 
[H]OC12OC34OC([H])([H])S(=O)C(c5c([H])sc([H])c5[H])(C1(C([H])([H])[H])C([H])([H])C3([H])[H])C1(C([H])([H])[H])C([H])(C(=O)C4(O[H])C([H])([H])[H])C(O[H])(C([H])([H])C3([H])OC([H])=C([H])C31O[H])C1(O[H])C2(O[H])C(=O)C(C([H])([H])[H])(C([H])([H])[H])C1([H])C([H])([H])C([H])([H])C([H])(C([H])([H])[H])C([H])([H])[H]

$$$$
12:0:2
     RDKit          3D

 98105  0  0  1  0  0  0  0  0999 V2000
    0.2065   -6.6165    4.1271 C   0  0  0  0  0  0  0  0  0  0  0  0
    1.1345   -6.2873    2.9639 C   0  0  0  0  0  0  0  0  0  0  0  0
    1.1132   -7.3964    1.9040 C   0  0  0  0  0  0  0  0  0  0  0  0
    2.5869   -5.9943    3.4218 C   0  0  0  0  0  0  0  0  0  0  0  0
    2.7804   -4.7017    4.2614 C   0  0  0  0  0  0  0  0  0  0  0  0
    2.3722   -3.3603    3.5375 C   0  0  2  0  0  0  0  0  0  0  0  0
    3.3929   -3.0359    2.3838 C   0  0  0  0  0  0  0  0  0  0  0  0
    4.8422   -3.6378    2.4758 C   0  0  0  0  0  0  0  0  0  0  0  0
    2.8146   -3.3883    0.9811 C   0  0  0  0  0  0  0  0  0  0  0  0
    3.5398   -1.5115    2.4660 C   0  0  0  0  0  0  0  0  0  0  0  0
    4.4484   -0.8989    1.9164 O   0  0  0  0  0  0  0  0  0  0  0  0
    2.4208   -0.9051    3.3570 C   0  0  2  0  0  0  0  0  0  0  0  0
    1.3117   -0.7847    2.4839 O   0  0  0  0  0  0  0  0  0  0  0  0
    2.7013    0.5461    3.9633 C   0  0  1  0  0  0  0  0  0  0  0  0
    2.9771    1.2686    2.7674 O   0  0  0  0  0  0  0  0  0  0  0  0
    1.4929    0.8949    4.4527 O   0  0  0  0  0  0  0  0  0  0  0  0
    1.2037    2.0992    5.1355 C   0  0  2  0  0  0  0  0  0  0  0  0
    2.1168    3.1756    4.5565 C   0  0  0  0  0  0  0  0  0  0  0  0
    3.5805    2.6037    4.9199 C   0  0  0  0  0  0  0  0  0  0  0  0
    3.6711    0.9765    5.1899 C   0  0  2  0  0  0  0  0  0  0  0  0
    5.1144    0.6396    4.7234 C   0  0  0  0  0  0  0  0  0  0  0  0
    3.3606    0.3591    6.8033 C   0  0  1  0  0  0  0  0  0  0  0  0
    4.7268   -0.3985    7.2981 C   0  0  0  0  0  0  0  0  0  0  0  0
    5.1470   -1.7813    7.0690 C   0  0  0  0  0  0  0  0  0  0  0  0
    6.4122   -2.1044    7.5422 C   0  0  0  0  0  0  0  0  0  0  0  0
    7.1193   -0.8061    8.4047 S   0  0  0  0  0  0  0  0  0  0  0  0
    5.7426    0.1928    8.0712 C   0  0  0  0  0  0  0  0  0  0  0  0
    3.5572    1.9287    7.8506 S   0  0  0  0  0  0  0  0  0  0  0  0
    3.4512    1.6584    9.3543 O   0  0  0  0  0  0  0  0  0  0  0  0
    2.1633    2.9908    7.3110 C   0  0  0  0  0  0  0  0  0  0  0  0
    1.2977    2.2071    6.5177 O   0  0  0  0  0  0  0  0  0  0  0  0
    1.8208   -0.3663    7.3589 C   0  0  1  0  0  0  0  0  0  0  0  0
    1.0425    0.4121    8.5323 C   0  0  0  0  0  0  0  0  0  0  0  0
    0.6220   -0.6190    6.2624 C   0  0  1  0  0  0  0  0  0  0  0  0
   -0.5600    0.4459    5.8673 C   0  0  0  0  0  0  0  0  0  0  0  0
   -1.7158    0.1559    6.1615 O   0  0  0  0  0  0  0  0  0  0  0  0
   -0.3040    1.8549    5.1196 C   0  0  1  0  0  0  0  0  0  0  0  0
   -1.0903    2.9935    5.8037 C   0  0  0  0  0  0  0  0  0  0  0  0
   -0.8184    1.8260    3.7943 O   0  0  0  0  0  0  0  0  0  0  0  0
    0.8232   -1.8722    5.3111 C   0  0  2  0  0  0  0  0  0  0  0  0
   -0.2976   -2.0023    4.4828 O   0  0  0  0  0  0  0  0  0  0  0  0
    0.7009   -3.0708    6.2597 C   0  0  0  0  0  0  0  0  0  0  0  0
    1.8031   -3.1348    7.3498 C   0  0  2  0  0  0  0  0  0  0  0  0
    1.2576   -4.1512    8.2029 O   0  0  0  0  0  0  0  0  0  0  0  0
    0.5960   -3.5154    9.1967 C   0  0  0  0  0  0  0  0  0  0  0  0
    0.8324   -2.2119    9.2122 C   0  0  0  0  0  0  0  0  0  0  0  0
    1.9007   -1.8090    8.1845 C   0  0  2  0  0  0  0  0  0  0  0  0
    3.0482   -1.7806    8.9863 O   0  0  0  0  0  0  0  0  0  0  0  0
    2.1110   -2.0263    4.3821 C   0  0  1  0  0  0  0  0  0  0  0  0
    3.1688   -1.9696    5.1873 O   0  0  0  0  0  0  0  0  0  0  0  0
    0.5629   -7.4858    4.6921 H   0  0  0  0  0  0  0  0  0  0  0  0
   -0.8080   -6.8271    3.7692 H   0  0  0  0  0  0  0  0  0  0  0  0
    0.1215   -5.7880    4.8221 H   0  0  0  0  0  0  0  0  0  0  0  0
    0.7383   -5.4155    2.4476 H   0  0  0  0  0  0  0  0  0  0  0  0
    1.4791   -8.3384    2.3185 H   0  0  0  0  0  0  0  0  0  0  0  0
    1.7346   -7.1371    1.0461 H   0  0  0  0  0  0  0  0  0  0  0  0
    0.1003   -7.5539    1.5418 H   0  0  0  0  0  0  0  0  0  0  0  0
    2.9795   -6.8417    3.9781 H   0  0  0  0  0  0  0  0  0  0  0  0
    3.1942   -5.9638    2.5135 H   0  0  0  0  0  0  0  0  0  0  0  0
    2.2553   -4.8763    5.1837 H   0  0  0  0  0  0  0  0  0  0  0  0
    3.8130   -4.6549    4.6086 H   0  0  0  0  0  0  0  0  0  0  0  0
    1.4227   -3.5317    3.0567 H   0  0  0  0  0  0  0  0  0  0  0  0
    4.8875   -4.7245    2.3959 H   0  0  0  0  0  0  0  0  0  0  0  0
    5.3272   -3.3651    3.4184 H   0  0  0  0  0  0  0  0  0  0  0  0
    5.4825   -3.2828    1.6679 H   0  0  0  0  0  0  0  0  0  0  0  0
    2.6895   -4.4698    0.8538 H   0  0  0  0  0  0  0  0  0  0  0  0
    3.4476   -3.0341    0.1673 H   0  0  0  0  0  0  0  0  0  0  0  0
    1.8374   -2.9260    0.8409 H   0  0  0  0  0  0  0  0  0  0  0  0
    1.5642   -0.2244    1.7575 H   0  0  0  0  0  0  0  0  0  0  0  0
    3.2441    2.1536    2.9987 H   0  0  0  0  0  0  0  0  0  0  0  0
    1.9186    3.2831    3.4952 H   0  0  0  0  0  0  0  0  0  0  0  0
    1.9019    4.1626    4.9694 H   0  0  0  0  0  0  0  0  0  0  0  0
    4.2039    2.8858    4.0822 H   0  0  0  0  0  0  0  0  0  0  0  0
    4.0879    3.1934    5.6617 H   0  0  0  0  0  0  0  0  0  0  0  0
    5.8828    1.1490    5.3115 H   0  0  0  0  0  0  0  0  0  0  0  0
    5.2843    0.9460    3.6975 H   0  0  0  0  0  0  0  0  0  0  0  0
    5.3332   -0.4277    4.7179 H   0  0  0  0  0  0  0  0  0  0  0  0
    4.6397   -2.6052    6.6191 H   0  0  0  0  0  0  0  0  0  0  0  0
    6.8821   -3.0562    7.4067 H   0  0  0  0  0  0  0  0  0  0  0  0
    5.8269    1.1972    8.5043 H   0  0  0  0  0  0  0  0  0  0  0  0
    1.6376    3.2933    8.2053 H   0  0  0  0  0  0  0  0  0  0  0  0
    2.4991    3.9410    6.9272 H   0  0  0  0  0  0  0  0  0  0  0  0
    0.0327    0.0290    8.6772 H   0  0  0  0  0  0  0  0  0  0  0  0
    0.7581    1.4341    8.4714 H   0  0  0  0  0  0  0  0  0  0  0  0
    1.5443    0.3234    9.5017 H   0  0  0  0  0  0  0  0  0  0  0  0
   -0.0795   -1.0764    6.9544 H   0  0  0  0  0  0  0  0  0  0  0  0
   -0.8917    3.0721    6.8716 H   0  0  0  0  0  0  0  0  0  0  0  0
   -2.1701    2.8398    5.7007 H   0  0  0  0  0  0  0  0  0  0  0  0
   -0.8519    3.9576    5.3471 H   0  0  0  0  0  0  0  0  0  0  0  0
   -0.2203    1.2908    3.2808 H   0  0  0  0  0  0  0  0  0  0  0  0
   -0.1549   -1.4511    3.7163 H   0  0  0  0  0  0  0  0  0  0  0  0
   -0.2655   -3.0323    6.7341 H   0  0  0  0  0  0  0  0  0  0  0  0
    0.5917   -3.9961    5.7304 H   0  0  0  0  0  0  0  0  0  0  0  0
    2.7757   -3.4787    6.9986 H   0  0  0  0  0  0  0  0  0  0  0  0
   -0.0319   -4.1185    9.8402 H   0  0  0  0  0  0  0  0  0  0  0  0
    0.3936   -1.5770    9.9620 H   0  0  0  0  0  0  0  0  0  0  0  0
    3.0001   -1.0144    9.5444 H   0  0  0  0  0  0  0  0  0  0  0  0
    3.9653   -2.1363    4.6540 H   0  0  0  0  0  0  0  0  0  0  0  0
  1  2  1  0
  1 51  1  0
  1 52  1  0
  1 53  1  0
  2  3  1  0
  2  4  1  0
  2 54  1  0
  3 55  1  0
  3 56  1  0
  3 57  1  0
  4  5  1  0
  4 58  1  0
  4 59  1  0
  5  6  1  0
  5 60  1  0
  5 61  1  0
  6 49  1  0
  6  7  1  0
  6 62  1  6
  7  8  1  0
  7  9  1  0
  7 10  1  0
  8 63  1  0
  8 64  1  0
  8 65  1  0
  9 66  1  0
  9 67  1  0
  9 68  1  0
 10 11  2  0
 10 12  1  0
 12 49  1  0
 12 13  1  6
 12 14  1  0
 13 69  1  0
 14 20  1  0
 14 15  1  6
 14 16  1  0
 15 70  1  0
 16 17  1  0
 17 31  1  1
 17 37  1  0
 17 18  1  0
 18 19  1  0
 18 71  1  0
 18 72  1  0
 19 20  1  0
 19 73  1  0
 19 74  1  0
 20 21  1  6
 20 22  1  0
 21 75  1  0
 21 76  1  0
 21 77  1  0
 22 23  1  1
 22 28  1  0
 22 32  1  0
 23 27  2  0
 23 24  1  0
 24 25  2  0
 24 78  1  0
 25 26  1  0
 25 79  1  0
 26 27  1  0
 27 80  1  0
 28 29  2  0
 28 30  1  6
 30 31  1  0
 30 81  1  0
 30 82  1  0
 32 47  1  0
 32 33  1  1
 32 34  1  0
 33 83  1  0
 33 84  1  0
 33 85  1  0
 34 35  1  0
 34 40  1  0
 34 86  1  1
 35 36  2  0
 35 37  1  0
 37 38  1  0
 37 39  1  6
 38 87  1  0
 38 88  1  0
 38 89  1  0
 39 90  1  0
 40 41  1  6
 40 42  1  0
 40 49  1  0
 41 91  1  0
 42 43  1  0
 42 92  1  0
 42 93  1  0
 43 47  1  0
 43 44  1  0
 43 94  1  6
 44 45  1  0
 45 46  2  0
 45 95  1  0
 46 47  1  0
 46 96  1  0
 47 48  1  1
 48 97  1  0
 49 50  1  1
 50 98  1  0
M  END
>  <i_m_ct_stereo_status>  (8) 
1

>  <s_m_source_file>  (8) 
/var/tmp/pbs.5075288.sched01/tmpzl_yb0kw/0ymjshsm9.sdf

>  <i_m_source_file_index>  (8) 
45

>  <i_lp_mmshare_version>  (8) 
48012

>  <i_f3d_flags>  (8) 
0

>  <s_epik_input>  (8) 
W0NIM11bQ0hdKFtDSDNdKVtDSDJdW0NIMl1bQ0BIXShDKFtDSDNdKShbQ0gzXSlDMT1PKVtDQEBdKFtPSF0pKFtDQEBdMShbT0hdKVtDQEBdMihbT0hdKU9bQ0BdMzQ1KVtDQF02KFtPSF0pW0NIXShDKD1PKVtDQF01KFtDSDNdKVtPSF0pW0NAQF0oW0NIM10pKFtDQF03KFtPSF0pW0NASF0oW0NIMl02KU9bQ0hdPVtDSF03KVtDQF0oW1MrXShbTy1dKVtDSDJdTzQpKFtDQF0yKFtDSDNdKVtDSDJdW0NIMl0zKWM4W2NIXVtjSF1zW2NIXTg=

>  <s_epik_cmdline>  (8) 
J2VwaWtfcHl0aG9uJywgJy1waHQnLCAnMi4wJywgJy1waCcsICc3LjAnLCAnLXRuJywgJzgnLCAnLW1hJywgJzIwMCcsICctaW1hZScsICc8aW5maWxlLm1hZT4nLCAnLW9tYWUnLCAnPG91dGZpbGUubWFlPic=

>  <r_lp_tautomer_probability>  (8) 
1

>  <r_epik_Ionization_Penalty>  (8) 
1.34519e-05

>  <r_epik_Ionization_Penalty_Charging>  (8) 
0

>  <r_epik_Ionization_Penalty_Neutral>  (8) 
1.34519e-05

>  <r_epik_State_Penalty>  (8) 
0

>  <r_epik_Charging_Adjusted_Penalty>  (8) 
0

>  <i_epik_Tot_Q>  (8) 
0

>  <i_epik_Tot_abs_Q>  (8) 
2

>  <s_epik_Chemistry_Notes>  (8) 
This compound contains an acetal/aminal-like group ( X-CH(R)-Y where X, Y are N, S, or O) that may be acid/base labile, releasing an aldehyde.

>  <s_lp_Force_Field>  (8) 
OPLS3e

>  <r_lp_Energy>  (8) 
318.279

>  <b_lp_Chiralities_Consistent>  (8) 
1

>  <s_lp_Variant>  (8) 
12:0-1

>  <s_i_glide_gridfile>  (8) 
pfpi4k_grid

>  <i_i_glide_lignum>  (8) 
45

>  <i_i_glide_rotatable_bonds>  (8) 
10

>  <r_i_docking_score>  (8) 
-2.6356

>  <r_i_glide_ligand_efficiency>  (8) 
-0.052712

>  <r_i_glide_ligand_efficiency_sa>  (8) 
-0.194193

>  <r_i_glide_ligand_efficiency_ln>  (8) 
-0.536561

>  <r_i_glide_gscore>  (8) 
-2.6356

>  <r_i_glide_lipo>  (8) 
-0.15261

>  <r_i_glide_hbond>  (8) 
-0.16

>  <r_i_glide_metal>  (8) 
-0

>  <r_i_glide_rewards>  (8) 
-0.5

>  <r_i_glide_evdw>  (8) 
-27.3673

>  <r_i_glide_ecoul>  (8) 
-3.60415

>  <r_i_glide_erotb>  (8) 
0.119183

>  <r_i_glide_esite>  (8) 
-0.0331833

>  <r_i_glide_emodel>  (8) 
-37.852

>  <r_i_glide_energy>  (8) 
-30.9715

>  <r_i_glide_einternal>  (8) 
4.49266

>  <r_i_glide_intrahb_reward>  (8) 
-0.5

>  <i_i_glide_confnum>  (8) 
4

>  <i_i_glide_posenum>  (8) 
14

>  <r_i_glide_eff_state_penalty>  (8) 
0

>  <ligand_id>  (8) 
12

>  <original_smiles>  (8) 
CC(C)CCC1C(C)(C)C(=O)C2(O)C3(O)OC45CCC3(C)C(c3ccsc3)([S+]([O-])CO4)C3(C)C(C(=O)C5(C)O)C(O)(CC4OC=CC43O)C12O

>  <smiles>  (8) 
[H]OC12OC34OC([H])([H])S(=O)C(c5c([H])sc([H])c5[H])(C1(C([H])([H])[H])C([H])([H])C3([H])[H])C1(C([H])([H])[H])C([H])(C(=O)C4(O[H])C([H])([H])[H])C(O[H])(C([H])([H])C3([H])OC([H])=C([H])C31O[H])C1(O[H])C2(O[H])C(=O)C(C([H])([H])[H])(C([H])([H])[H])C1([H])C([H])([H])C([H])([H])C([H])(C([H])([H])[H])C([H])([H])[H]

$$$$
12:1:0
     RDKit          3D

 98105  0  0  1  0  0  0  0  0999 V2000
    6.6257   -6.5104    2.7932 C   0  0  0  0  0  0  0  0  0  0  0  0
    5.1409   -6.8133    2.5395 C   0  0  0  0  0  0  0  0  0  0  0  0
    4.9983   -7.9826    1.5492 C   0  0  0  0  0  0  0  0  0  0  0  0
    4.3699   -5.5694    2.0420 C   0  0  0  0  0  0  0  0  0  0  0  0
    4.1943   -4.4571    3.1074 C   0  0  0  0  0  0  0  0  0  0  0  0
    3.3896   -3.2044    2.6363 C   0  0  2  0  0  0  0  0  0  0  0  0
    4.1491   -2.3326    1.5774 C   0  0  0  0  0  0  0  0  0  0  0  0
    5.6959   -2.3359    1.6958 C   0  0  0  0  0  0  0  0  0  0  0  0
    3.7547   -2.6699    0.1187 C   0  0  0  0  0  0  0  0  0  0  0  0
    3.6572   -0.9038    1.8842 C   0  0  0  0  0  0  0  0  0  0  0  0
    4.1602    0.0944    1.3709 O   0  0  0  0  0  0  0  0  0  0  0  0
    2.4666   -0.9222    2.8655 C   0  0  2  0  0  0  0  0  0  0  0  0
    1.3787   -1.3394    2.0409 O   0  0  0  0  0  0  0  0  0  0  0  0
    1.9839    0.4902    3.5294 C   0  0  1  0  0  0  0  0  0  0  0  0
    1.8680    1.3528    2.4033 O   0  0  0  0  0  0  0  0  0  0  0  0
    0.6752    0.2194    3.9408 O   0  0  0  0  0  0  0  0  0  0  0  0
    0.0482    0.9028    5.0272 C   0  0  2  0  0  0  0  0  0  0  0  0
    0.1036    2.3445    4.5900 C   0  0  0  0  0  0  0  0  0  0  0  0
    1.6667    2.6287    4.7116 C   0  0  0  0  0  0  0  0  0  0  0  0
    2.6832    1.3146    4.7423 C   0  0  2  0  0  0  0  0  0  0  0  0
    3.9186    2.0049    4.1178 C   0  0  0  0  0  0  0  0  0  0  0  0
    3.0924    0.4977    6.2639 C   0  0  1  0  0  0  0  0  0  0  0  0
    4.6648    0.5111    6.4617 C   0  0  0  0  0  0  0  0  0  0  0  0
    5.6834    0.1686    5.4916 C   0  0  0  0  0  0  0  0  0  0  0  0
    6.9834    0.3218    5.9104 C   0  0  0  0  0  0  0  0  0  0  0  0
    7.0560    0.7418    7.5785 S   0  0  0  0  0  0  0  0  0  0  0  0
    5.3249    0.8075    7.6550 C   0  0  0  0  0  0  0  0  0  0  0  0
    2.6371    1.8770    7.5078 S   0  0  0  0  0  0  0  0  0  0  0  0
    2.8329    1.5127    8.9788 O   0  0  0  0  0  0  0  0  0  0  0  0
    0.8287    1.9261    7.2420 C   0  0  0  0  0  0  0  0  0  0  0  0
    0.5588    0.8897    6.3253 O   0  0  0  0  0  0  0  0  0  0  0  0
    2.3940   -1.0530    6.8437 C   0  0  1  0  0  0  0  0  0  0  0  0
    1.5444   -0.9530    8.1759 C   0  0  0  0  0  0  0  0  0  0  0  0
    1.3072   -1.6337    5.7929 C   0  0  2  0  0  0  0  0  0  0  0  0
   -0.3022   -1.4332    5.9122 C   0  0  0  0  0  0  0  0  0  0  0  0
   -0.9790   -2.2890    6.4798 O   0  0  0  0  0  0  0  0  0  0  0  0
   -1.0442   -0.1380    5.3187 C   0  0  1  0  0  0  0  0  0  0  0  0
   -2.1052    0.4272    6.2914 C   0  0  0  0  0  0  0  0  0  0  0  0
   -1.7816   -0.5123    4.1686 O   0  0  0  0  0  0  0  0  0  0  0  0
    1.7280   -2.7234    4.7656 C   0  0  2  0  0  0  0  0  0  0  0  0
    0.6318   -3.1450    3.9713 O   0  0  0  0  0  0  0  0  0  0  0  0
    1.9844   -3.9337    5.6694 C   0  0  0  0  0  0  0  0  0  0  0  0
    3.1910   -3.7458    6.5826 C   0  0  2  0  0  0  0  0  0  0  0  0
    3.0369   -4.7300    7.6104 O   0  0  0  0  0  0  0  0  0  0  0  0
    3.1643   -4.1142    8.8070 C   0  0  0  0  0  0  0  0  0  0  0  0
    3.3798   -2.8134    8.7086 C   0  0  0  0  0  0  0  0  0  0  0  0
    3.3997   -2.3324    7.2674 C   0  0  2  0  0  0  0  0  0  0  0  0
    4.7617   -2.1143    7.0588 O   0  0  0  0  0  0  0  0  0  0  0  0
    2.8448   -2.2007    3.7372 C   0  0  1  0  0  0  0  0  0  0  0  0
    3.9939   -1.9173    4.4620 O   0  0  0  0  0  0  0  0  0  0  0  0
    7.1202   -6.1374    1.8929 H   0  0  0  0  0  0  0  0  0  0  0  0
    7.1594   -7.4099    3.1049 H   0  0  0  0  0  0  0  0  0  0  0  0
    6.7591   -5.7711    3.5804 H   0  0  0  0  0  0  0  0  0  0  0  0
    4.6986   -7.1404    3.4808 H   0  0  0  0  0  0  0  0  0  0  0  0
    5.4135   -7.7322    0.5728 H   0  0  0  0  0  0  0  0  0  0  0  0
    3.9529   -8.2572    1.4043 H   0  0  0  0  0  0  0  0  0  0  0  0
    5.5134   -8.8718    1.9099 H   0  0  0  0  0  0  0  0  0  0  0  0
    4.8729   -5.1918    1.1577 H   0  0  0  0  0  0  0  0  0  0  0  0
    3.3797   -5.8832    1.7150 H   0  0  0  0  0  0  0  0  0  0  0  0
    3.6857   -4.9378    3.9349 H   0  0  0  0  0  0  0  0  0  0  0  0
    5.1647   -4.1589    3.5137 H   0  0  0  0  0  0  0  0  0  0  0  0
    2.5158   -3.6141    2.1381 H   0  0  0  0  0  0  0  0  0  0  0  0
    6.1229   -3.3082    1.4610 H   0  0  0  0  0  0  0  0  0  0  0  0
    6.0282   -2.0544    2.6941 H   0  0  0  0  0  0  0  0  0  0  0  0
    6.1505   -1.6248    1.0023 H   0  0  0  0  0  0  0  0  0  0  0  0
    4.0758   -3.6641   -0.1817 H   0  0  0  0  0  0  0  0  0  0  0  0
    4.1998   -1.9700   -0.5921 H   0  0  0  0  0  0  0  0  0  0  0  0
    2.6778   -2.6197   -0.0354 H   0  0  0  0  0  0  0  0  0  0  0  0
    1.4122   -0.9021    1.1937 H   0  0  0  0  0  0  0  0  0  0  0  0
    1.3590    0.9132    1.7381 H   0  0  0  0  0  0  0  0  0  0  0  0
   -0.2421    2.4149    3.5594 H   0  0  0  0  0  0  0  0  0  0  0  0
   -0.5277    3.0020    5.1861 H   0  0  0  0  0  0  0  0  0  0  0  0
    1.8163    3.2681    3.8417 H   0  0  0  0  0  0  0  0  0  0  0  0
    1.9167    3.3633    5.4717 H   0  0  0  0  0  0  0  0  0  0  0  0
    4.5301    2.5391    4.8427 H   0  0  0  0  0  0  0  0  0  0  0  0
    3.6839    2.7711    3.3759 H   0  0  0  0  0  0  0  0  0  0  0  0
    4.5007    1.2749    3.5740 H   0  0  0  0  0  0  0  0  0  0  0  0
    5.4939   -0.1788    4.4855 H   0  0  0  0  0  0  0  0  0  0  0  0
    7.8861    0.1606    5.3424 H   0  0  0  0  0  0  0  0  0  0  0  0
    4.9264    1.0259    8.6337 H   0  0  0  0  0  0  0  0  0  0  0  0
    0.3361    1.7126    8.1812 H   0  0  0  0  0  0  0  0  0  0  0  0
    0.4736    2.9209    7.0089 H   0  0  0  0  0  0  0  0  0  0  0  0
    1.1114   -1.9227    8.4236 H   0  0  0  0  0  0  0  0  0  0  0  0
    0.6546   -0.3540    8.1909 H   0  0  0  0  0  0  0  0  0  0  0  0
    2.1262   -0.6410    9.0349 H   0  0  0  0  0  0  0  0  0  0  0  0
    1.6841   -0.8794    5.2296 H   0  0  0  0  0  0  0  0  0  0  0  0
   -1.7074    0.6142    7.2905 H   0  0  0  0  0  0  0  0  0  0  0  0
   -2.9415   -0.2612    6.3917 H   0  0  0  0  0  0  0  0  0  0  0  0
   -2.5449    1.3601    5.9311 H   0  0  0  0  0  0  0  0  0  0  0  0
   -2.2606    0.2311    3.8486 H   0  0  0  0  0  0  0  0  0  0  0  0
    0.4692   -2.4646    3.3212 H   0  0  0  0  0  0  0  0  0  0  0  0
    1.1149   -4.0703    6.3034 H   0  0  0  0  0  0  0  0  0  0  0  0
    2.0190   -4.8806    5.1313 H   0  0  0  0  0  0  0  0  0  0  0  0
    4.0795   -4.0240    6.0113 H   0  0  0  0  0  0  0  0  0  0  0  0
    3.1443   -4.7419    9.6881 H   0  0  0  0  0  0  0  0  0  0  0  0
    3.5664   -2.1692    9.5525 H   0  0  0  0  0  0  0  0  0  0  0  0
    4.8796   -2.0816    6.1123 H   0  0  0  0  0  0  0  0  0  0  0  0
    4.6691   -1.6576    3.8457 H   0  0  0  0  0  0  0  0  0  0  0  0
  1  2  1  0
  1 51  1  0
  1 52  1  0
  1 53  1  0
  2  3  1  0
  2  4  1  0
  2 54  1  0
  3 55  1  0
  3 56  1  0
  3 57  1  0
  4  5  1  0
  4 58  1  0
  4 59  1  0
  5  6  1  0
  5 60  1  0
  5 61  1  0
  6 49  1  0
  6  7  1  0
  6 62  1  6
  7  8  1  0
  7  9  1  0
  7 10  1  0
  8 63  1  0
  8 64  1  0
  8 65  1  0
  9 66  1  0
  9 67  1  0
  9 68  1  0
 10 11  2  0
 10 12  1  0
 12 49  1  0
 12 13  1  6
 12 14  1  0
 13 69  1  0
 14 20  1  0
 14 15  1  6
 14 16  1  0
 15 70  1  0
 16 17  1  0
 17 31  1  1
 17 37  1  0
 17 18  1  0
 18 19  1  0
 18 71  1  0
 18 72  1  0
 19 20  1  0
 19 73  1  0
 19 74  1  0
 20 21  1  6
 20 22  1  0
 21 75  1  0
 21 76  1  0
 21 77  1  0
 22 23  1  6
 22 28  1  0
 22 32  1  0
 23 27  2  0
 23 24  1  0
 24 25  2  0
 24 78  1  0
 25 26  1  0
 25 79  1  0
 26 27  1  0
 27 80  1  0
 28 29  2  0
 28 30  1  1
 30 31  1  0
 30 81  1  0
 30 82  1  0
 32 47  1  0
 32 33  1  1
 32 34  1  0
 33 83  1  0
 33 84  1  0
 33 85  1  0
 34 35  1  0
 34 40  1  0
 34 86  1  6
 35 36  2  0
 35 37  1  0
 37 38  1  0
 37 39  1  6
 38 87  1  0
 38 88  1  0
 38 89  1  0
 39 90  1  0
 40 41  1  6
 40 42  1  0
 40 49  1  0
 41 91  1  0
 42 43  1  0
 42 92  1  0
 42 93  1  0
 43 47  1  0
 43 44  1  0
 43 94  1  6
 44 45  1  0
 45 46  2  0
 45 95  1  0
 46 47  1  0
 46 96  1  0
 47 48  1  6
 48 97  1  0
 49 50  1  1
 50 98  1  0
M  END
>  <i_m_ct_stereo_status>  (9) 
1

>  <s_m_source_file>  (9) 
/var/tmp/pbs.5075288.sched01/tmpzl_yb0kw/0ymjshsm9.sdf

>  <i_m_source_file_index>  (9) 
46

>  <i_lp_mmshare_version>  (9) 
48012

>  <i_f3d_flags>  (9) 
0

>  <s_epik_input>  (9) 
W0NIM11bQ0hdKFtDSDNdKVtDSDJdW0NIMl1bQ0BIXShDKFtDSDNdKShbQ0gzXSlDMT1PKVtDQEBdKFtPSF0pKFtDQEBdMShbT0hdKVtDQEBdMihbT0hdKU9bQ0BdMzQ1KVtDQF02KFtPSF0pW0NIXShDKD1PKVtDQF01KFtDSDNdKVtPSF0pW0NAQF0oW0NIM10pKFtDQF03KFtPSF0pW0NASF0oW0NIMl02KU9bQ0hdPVtDSF03KVtDQF0oW1MrXShbTy1dKVtDSDJdTzQpKFtDQF0yKFtDSDNdKVtDSDJdW0NIMl0zKWM4W2NIXVtjSF1zW2NIXTg=

>  <s_epik_cmdline>  (9) 
J2VwaWtfcHl0aG9uJywgJy1waHQnLCAnMi4wJywgJy1waCcsICc3LjAnLCAnLXRuJywgJzgnLCAnLW1hJywgJzIwMCcsICctaW1hZScsICc8aW5maWxlLm1hZT4nLCAnLW9tYWUnLCAnPG91dGZpbGUubWFlPic=

>  <r_lp_tautomer_probability>  (9) 
1

>  <r_epik_Ionization_Penalty>  (9) 
1.34519e-05

>  <r_epik_Ionization_Penalty_Charging>  (9) 
0

>  <r_epik_Ionization_Penalty_Neutral>  (9) 
1.34519e-05

>  <r_epik_State_Penalty>  (9) 
0

>  <r_epik_Charging_Adjusted_Penalty>  (9) 
0

>  <i_epik_Tot_Q>  (9) 
0

>  <i_epik_Tot_abs_Q>  (9) 
2

>  <s_epik_Chemistry_Notes>  (9) 
This compound contains an acetal/aminal-like group ( X-CH(R)-Y where X, Y are N, S, or O) that may be acid/base labile, releasing an aldehyde.

>  <s_lp_Force_Field>  (9) 
OPLS3e

>  <r_lp_Energy>  (9) 
328.226

>  <b_lp_Chiralities_Consistent>  (9) 
1

>  <s_lp_Variant>  (9) 
12:0-2

>  <s_i_glide_gridfile>  (9) 
pfpi4k_grid

>  <i_i_glide_lignum>  (9) 
46

>  <i_i_glide_rotatable_bonds>  (9) 
10

>  <r_i_docking_score>  (9) 
-3.23314

>  <r_i_glide_ligand_efficiency>  (9) 
-0.0646628

>  <r_i_glide_ligand_efficiency_sa>  (9) 
-0.23822

>  <r_i_glide_ligand_efficiency_ln>  (9) 
-0.65821

>  <r_i_glide_gscore>  (9) 
-3.23314

>  <r_i_glide_lipo>  (9) 
-0.432764

>  <r_i_glide_hbond>  (9) 
0

>  <r_i_glide_metal>  (9) 
-0

>  <r_i_glide_rewards>  (9) 
-1

>  <r_i_glide_evdw>  (9) 
-24.9277

>  <r_i_glide_ecoul>  (9) 
-4.14186

>  <r_i_glide_erotb>  (9) 
0.119183

>  <r_i_glide_esite>  (9) 
-0.0518988

>  <r_i_glide_emodel>  (9) 
-44.0814

>  <r_i_glide_energy>  (9) 
-29.0695

>  <r_i_glide_einternal>  (9) 
3.04594

>  <r_i_glide_intrahb_reward>  (9) 
-1

>  <i_i_glide_confnum>  (9) 
2

>  <i_i_glide_posenum>  (9) 
32

>  <r_i_glide_eff_state_penalty>  (9) 
0

>  <ligand_id>  (9) 
12

>  <original_smiles>  (9) 
CC(C)CCC1C(C)(C)C(=O)C2(O)C3(O)OC45CCC3(C)C(c3ccsc3)([S+]([O-])CO4)C3(C)C(C(=O)C5(C)O)C(O)(CC4OC=CC43O)C12O

>  <smiles>  (9) 
[H]OC12OC34OC([H])([H])S(=O)C(c5c([H])sc([H])c5[H])(C1(C([H])([H])[H])C([H])([H])C3([H])[H])C1(C([H])([H])[H])C([H])(C(=O)C4(O[H])C([H])([H])[H])C(O[H])(C([H])([H])C3([H])OC([H])=C([H])C31O[H])C1(O[H])C2(O[H])C(=O)C(C([H])([H])[H])(C([H])([H])[H])C1([H])C([H])([H])C([H])([H])C([H])(C([H])([H])[H])C([H])([H])[H]

$$$$
12:1:1
     RDKit          3D

 98105  0  0  1  0  0  0  0  0999 V2000
    1.6112   -7.8200    3.1512 C   0  0  0  0  0  0  0  0  0  0  0  0
    1.4924   -6.6417    4.1358 C   0  0  0  0  0  0  0  0  0  0  0  0
    0.1933   -6.7670    4.9513 C   0  0  0  0  0  0  0  0  0  0  0  0
    1.5993   -5.2843    3.4052 C   0  0  0  0  0  0  0  0  0  0  0  0
    1.7281   -4.0587    4.3458 C   0  0  0  0  0  0  0  0  0  0  0  0
    1.6563   -2.6666    3.6470 C   0  0  2  0  0  0  0  0  0  0  0  0
    2.8969   -2.3555    2.7336 C   0  0  0  0  0  0  0  0  0  0  0  0
    4.2331   -3.0112    3.1774 C   0  0  0  0  0  0  0  0  0  0  0  0
    2.6263   -2.7047    1.2585 C   0  0  0  0  0  0  0  0  0  0  0  0
    3.0440   -0.8289    2.8521 C   0  0  0  0  0  0  0  0  0  0  0  0
    4.0302   -0.2209    2.4228 O   0  0  0  0  0  0  0  0  0  0  0  0
    1.8250   -0.1989    3.5663 C   0  0  2  0  0  0  0  0  0  0  0  0
    0.7935   -0.2002    2.5739 O   0  0  0  0  0  0  0  0  0  0  0  0
    1.9489    1.3510    4.0606 C   0  0  1  0  0  0  0  0  0  0  0  0
    2.4233    2.0161    2.8913 O   0  0  0  0  0  0  0  0  0  0  0  0
    0.6122    1.7496    4.2141 O   0  0  0  0  0  0  0  0  0  0  0  0
    0.2122    2.7787    5.1212 C   0  0  2  0  0  0  0  0  0  0  0  0
    0.9899    3.9672    4.6206 C   0  0  0  0  0  0  0  0  0  0  0  0
    2.4736    3.5483    5.0391 C   0  0  0  0  0  0  0  0  0  0  0  0
    2.7646    1.9377    5.3431 C   0  0  2  0  0  0  0  0  0  0  0  0
    4.2806    1.9133    4.9563 C   0  0  0  0  0  0  0  0  0  0  0  0
    2.5047    1.2641    6.9632 C   0  0  1  0  0  0  0  0  0  0  0  0
    3.8687    0.6282    7.4646 C   0  0  0  0  0  0  0  0  0  0  0  0
    4.7250   -0.2977    6.7522 C   0  0  0  0  0  0  0  0  0  0  0  0
    5.8393   -0.7221    7.4187 C   0  0  0  0  0  0  0  0  0  0  0  0
    5.9366   -0.0332    8.9895 S   0  0  0  0  0  0  0  0  0  0  0  0
    4.4536    0.8306    8.7110 C   0  0  0  0  0  0  0  0  0  0  0  0
    2.5248    2.8739    8.0059 S   0  0  0  0  0  0  0  0  0  0  0  0
    2.3072    2.6501    9.5001 O   0  0  0  0  0  0  0  0  0  0  0  0
    0.9962    3.6664    7.3852 C   0  0  0  0  0  0  0  0  0  0  0  0
    0.4618    2.7179    6.4879 O   0  0  0  0  0  0  0  0  0  0  0  0
    1.0989    0.2668    7.4710 C   0  0  1  0  0  0  0  0  0  0  0  0
    0.1919    0.9125    8.5979 C   0  0  0  0  0  0  0  0  0  0  0  0
    0.0512    0.0756    6.2541 C   0  0  2  0  0  0  0  0  0  0  0  0
   -1.2859    0.9675    6.0445 C   0  0  0  0  0  0  0  0  0  0  0  0
   -2.3427    0.5430    6.5179 O   0  0  0  0  0  0  0  0  0  0  0  0
   -1.2724    2.3632    5.2382 C   0  0  1  0  0  0  0  0  0  0  0  0
   -2.1174    3.4437    5.9447 C   0  0  0  0  0  0  0  0  0  0  0  0
   -1.8884    2.2322    3.9716 O   0  0  0  0  0  0  0  0  0  0  0  0
    0.0803   -1.2249    5.3996 C   0  0  2  0  0  0  0  0  0  0  0  0
   -0.9711   -1.2257    4.4566 O   0  0  0  0  0  0  0  0  0  0  0  0
   -0.3718   -2.2922    6.3958 C   0  0  0  0  0  0  0  0  0  0  0  0
    0.6286   -2.5100    7.5273 C   0  0  2  0  0  0  0  0  0  0  0  0
   -0.1278   -3.1715    8.5470 O   0  0  0  0  0  0  0  0  0  0  0  0
    0.0871   -2.5213    9.7144 C   0  0  0  0  0  0  0  0  0  0  0  0
    0.8792   -1.4669    9.5952 C   0  0  0  0  0  0  0  0  0  0  0  0
    1.3473   -1.2425    8.1643 C   0  0  2  0  0  0  0  0  0  0  0  0
    2.6858   -1.6570    8.2421 O   0  0  0  0  0  0  0  0  0  0  0  0
    1.4411   -1.3886    4.5645 C   0  0  1  0  0  0  0  0  0  0  0  0
    2.4666   -1.5653    5.4841 O   0  0  0  0  0  0  0  0  0  0  0  0
    0.8397   -7.7901    2.3805 H   0  0  0  0  0  0  0  0  0  0  0  0
    1.5103   -8.7741    3.6701 H   0  0  0  0  0  0  0  0  0  0  0  0
    2.5810   -7.8310    2.6504 H   0  0  0  0  0  0  0  0  0  0  0  0
    2.3353   -6.7217    4.8227 H   0  0  0  0  0  0  0  0  0  0  0  0
   -0.6816   -6.6853    4.3062 H   0  0  0  0  0  0  0  0  0  0  0  0
    0.1133   -6.0055    5.7260 H   0  0  0  0  0  0  0  0  0  0  0  0
    0.1420   -7.7326    5.4572 H   0  0  0  0  0  0  0  0  0  0  0  0
    2.4599   -5.3292    2.7417 H   0  0  0  0  0  0  0  0  0  0  0  0
    0.7361   -5.1586    2.7549 H   0  0  0  0  0  0  0  0  0  0  0  0
    0.9090   -4.1101    5.0430 H   0  0  0  0  0  0  0  0  0  0  0  0
    2.6255   -4.1555    4.9652 H   0  0  0  0  0  0  0  0  0  0  0  0
    0.7760   -2.7242    3.0075 H   0  0  0  0  0  0  0  0  0  0  0  0
    4.2232   -4.0953    3.0902 H   0  0  0  0  0  0  0  0  0  0  0  0
    4.4860   -2.7699    4.2090 H   0  0  0  0  0  0  0  0  0  0  0  0
    5.0624   -2.6743    2.5557 H   0  0  0  0  0  0  0  0  0  0  0  0
    2.5038   -3.7729    1.1003 H   0  0  0  0  0  0  0  0  0  0  0  0
    3.4425   -2.3741    0.6153 H   0  0  0  0  0  0  0  0  0  0  0  0
    1.7268   -2.2129    0.8942 H   0  0  0  0  0  0  0  0  0  0  0  0
    1.1105    0.2473    1.7985 H   0  0  0  0  0  0  0  0  0  0  0  0
    1.8111    1.8907    2.1877 H   0  0  0  0  0  0  0  0  0  0  0  0
    0.8651    4.0415    3.5377 H   0  0  0  0  0  0  0  0  0  0  0  0
    0.6349    4.9092    5.0366 H   0  0  0  0  0  0  0  0  0  0  0  0
    3.0448    3.9294    4.1935 H   0  0  0  0  0  0  0  0  0  0  0  0
    2.9002    4.2047    5.7919 H   0  0  0  0  0  0  0  0  0  0  0  0
    4.9329    2.2662    5.7584 H   0  0  0  0  0  0  0  0  0  0  0  0
    4.5172    2.5493    4.1112 H   0  0  0  0  0  0  0  0  0  0  0  0
    4.6291    0.9559    4.5872 H   0  0  0  0  0  0  0  0  0  0  0  0
    4.5496   -0.6661    5.7596 H   0  0  0  0  0  0  0  0  0  0  0  0
    6.5889   -1.4115    7.0813 H   0  0  0  0  0  0  0  0  0  0  0  0
    4.1432    1.4416    9.5429 H   0  0  0  0  0  0  0  0  0  0  0  0
    0.3134    3.8111    8.2217 H   0  0  0  0  0  0  0  0  0  0  0  0
    1.1824    4.6742    7.0228 H   0  0  0  0  0  0  0  0  0  0  0  0
   -0.6648    0.2735    8.8085 H   0  0  0  0  0  0  0  0  0  0  0  0
   -0.3252    1.8363    8.3976 H   0  0  0  0  0  0  0  0  0  0  0  0
    0.7056    1.0573    9.5434 H   0  0  0  0  0  0  0  0  0  0  0  0
    0.8091    0.5122    5.7340 H   0  0  0  0  0  0  0  0  0  0  0  0
   -1.8375    3.5860    6.9897 H   0  0  0  0  0  0  0  0  0  0  0  0
   -3.1774    3.1823    5.9318 H   0  0  0  0  0  0  0  0  0  0  0  0
   -2.0042    4.3944    5.4256 H   0  0  0  0  0  0  0  0  0  0  0  0
   -1.3115    1.7155    3.4256 H   0  0  0  0  0  0  0  0  0  0  0  0
   -0.6912   -0.6848    3.7229 H   0  0  0  0  0  0  0  0  0  0  0  0
   -1.3040   -1.9530    6.8436 H   0  0  0  0  0  0  0  0  0  0  0  0
   -0.6682   -3.2258    5.9184 H   0  0  0  0  0  0  0  0  0  0  0  0
    1.3738   -3.2223    7.1727 H   0  0  0  0  0  0  0  0  0  0  0  0
   -0.3551   -2.9608   10.5992 H   0  0  0  0  0  0  0  0  0  0  0  0
    1.1939   -0.8603   10.4333 H   0  0  0  0  0  0  0  0  0  0  0  0
    3.2149   -0.9615    8.6202 H   0  0  0  0  0  0  0  0  0  0  0  0
    2.5262   -0.8110    6.0521 H   0  0  0  0  0  0  0  0  0  0  0  0
  1  2  1  0
  1 51  1  0
  1 52  1  0
  1 53  1  0
  2  3  1  0
  2  4  1  0
  2 54  1  0
  3 55  1  0
  3 56  1  0
  3 57  1  0
  4  5  1  0
  4 58  1  0
  4 59  1  0
  5  6  1  0
  5 60  1  0
  5 61  1  0
  6 49  1  0
  6  7  1  0
  6 62  1  6
  7  8  1  0
  7  9  1  0
  7 10  1  0
  8 63  1  0
  8 64  1  0
  8 65  1  0
  9 66  1  0
  9 67  1  0
  9 68  1  0
 10 11  2  0
 10 12  1  0
 12 49  1  0
 12 13  1  6
 12 14  1  0
 13 69  1  0
 14 20  1  0
 14 15  1  6
 14 16  1  0
 15 70  1  0
 16 17  1  0
 17 31  1  1
 17 37  1  0
 17 18  1  0
 18 19  1  0
 18 71  1  0
 18 72  1  0
 19 20  1  0
 19 73  1  0
 19 74  1  0
 20 21  1  6
 20 22  1  0
 21 75  1  0
 21 76  1  0
 21 77  1  0
 22 23  1  1
 22 28  1  0
 22 32  1  0
 23 27  2  0
 23 24  1  0
 24 25  2  0
 24 78  1  0
 25 26  1  0
 25 79  1  0
 26 27  1  0
 27 80  1  0
 28 29  2  0
 28 30  1  6
 30 31  1  0
 30 81  1  0
 30 82  1  0
 32 47  1  0
 32 33  1  1
 32 34  1  0
 33 83  1  0
 33 84  1  0
 33 85  1  0
 34 35  1  0
 34 40  1  0
 34 86  1  6
 35 36  2  0
 35 37  1  0
 37 38  1  0
 37 39  1  6
 38 87  1  0
 38 88  1  0
 38 89  1  0
 39 90  1  0
 40 41  1  6
 40 42  1  0
 40 49  1  0
 41 91  1  0
 42 43  1  0
 42 92  1  0
 42 93  1  0
 43 47  1  0
 43 44  1  0
 43 94  1  6
 44 45  1  0
 45 46  2  0
 45 95  1  0
 46 47  1  0
 46 96  1  0
 47 48  1  1
 48 97  1  0
 49 50  1  1
 50 98  1  0
M  END
>  <i_m_ct_stereo_status>  (10) 
1

>  <s_m_source_file>  (10) 
/var/tmp/pbs.5075288.sched01/tmpzl_yb0kw/0ymjshsm9.sdf

>  <i_m_source_file_index>  (10) 
46

>  <i_lp_mmshare_version>  (10) 
48012

>  <i_f3d_flags>  (10) 
0

>  <s_epik_input>  (10) 
W0NIM11bQ0hdKFtDSDNdKVtDSDJdW0NIMl1bQ0BIXShDKFtDSDNdKShbQ0gzXSlDMT1PKVtDQEBdKFtPSF0pKFtDQEBdMShbT0hdKVtDQEBdMihbT0hdKU9bQ0BdMzQ1KVtDQF02KFtPSF0pW0NIXShDKD1PKVtDQF01KFtDSDNdKVtPSF0pW0NAQF0oW0NIM10pKFtDQF03KFtPSF0pW0NASF0oW0NIMl02KU9bQ0hdPVtDSF03KVtDQF0oW1MrXShbTy1dKVtDSDJdTzQpKFtDQF0yKFtDSDNdKVtDSDJdW0NIMl0zKWM4W2NIXVtjSF1zW2NIXTg=

>  <s_epik_cmdline>  (10) 
J2VwaWtfcHl0aG9uJywgJy1waHQnLCAnMi4wJywgJy1waCcsICc3LjAnLCAnLXRuJywgJzgnLCAnLW1hJywgJzIwMCcsICctaW1hZScsICc8aW5maWxlLm1hZT4nLCAnLW9tYWUnLCAnPG91dGZpbGUubWFlPic=

>  <r_lp_tautomer_probability>  (10) 
1

>  <r_epik_Ionization_Penalty>  (10) 
1.34519e-05

>  <r_epik_Ionization_Penalty_Charging>  (10) 
0

>  <r_epik_Ionization_Penalty_Neutral>  (10) 
1.34519e-05

>  <r_epik_State_Penalty>  (10) 
0

>  <r_epik_Charging_Adjusted_Penalty>  (10) 
0

>  <i_epik_Tot_Q>  (10) 
0

>  <i_epik_Tot_abs_Q>  (10) 
2

>  <s_epik_Chemistry_Notes>  (10) 
This compound contains an acetal/aminal-like group ( X-CH(R)-Y where X, Y are N, S, or O) that may be acid/base labile, releasing an aldehyde.

>  <s_lp_Force_Field>  (10) 
OPLS3e

>  <r_lp_Energy>  (10) 
328.226

>  <b_lp_Chiralities_Consistent>  (10) 
1

>  <s_lp_Variant>  (10) 
12:0-2

>  <s_i_glide_gridfile>  (10) 
pfpi4k_grid

>  <i_i_glide_lignum>  (10) 
46

>  <i_i_glide_rotatable_bonds>  (10) 
10

>  <r_i_docking_score>  (10) 
-2.71203

>  <r_i_glide_ligand_efficiency>  (10) 
-0.0542405

>  <r_i_glide_ligand_efficiency_sa>  (10) 
-0.199824

>  <r_i_glide_ligand_efficiency_ln>  (10) 
-0.55212

>  <r_i_glide_gscore>  (10) 
-2.71203

>  <r_i_glide_lipo>  (10) 
-0.065283

>  <r_i_glide_hbond>  (10) 
-0.237986

>  <r_i_glide_metal>  (10) 
-0

>  <r_i_glide_rewards>  (10) 
-0.5

>  <r_i_glide_evdw>  (10) 
-25.9911

>  <r_i_glide_ecoul>  (10) 
-4.48191

>  <r_i_glide_erotb>  (10) 
0.119183

>  <r_i_glide_esite>  (10) 
-0.0560989

>  <r_i_glide_emodel>  (10) 
-38.9924

>  <r_i_glide_energy>  (10) 
-30.473

>  <r_i_glide_einternal>  (10) 
3.85595

>  <r_i_glide_intrahb_reward>  (10) 
-0.5

>  <i_i_glide_confnum>  (10) 
2

>  <i_i_glide_posenum>  (10) 
25

>  <r_i_glide_eff_state_penalty>  (10) 
0

>  <ligand_id>  (10) 
12

>  <original_smiles>  (10) 
CC(C)CCC1C(C)(C)C(=O)C2(O)C3(O)OC45CCC3(C)C(c3ccsc3)([S+]([O-])CO4)C3(C)C(C(=O)C5(C)O)C(O)(CC4OC=CC43O)C12O

>  <smiles>  (10) 
[H]OC12OC34OC([H])([H])S(=O)C(c5c([H])sc([H])c5[H])(C1(C([H])([H])[H])C([H])([H])C3([H])[H])C1(C([H])([H])[H])C([H])(C(=O)C4(O[H])C([H])([H])[H])C(O[H])(C([H])([H])C3([H])OC([H])=C([H])C31O[H])C1(O[H])C2(O[H])C(=O)C(C([H])([H])[H])(C([H])([H])[H])C1([H])C([H])([H])C([H])([H])C([H])(C([H])([H])[H])C([H])([H])[H]

$$$$
12:1:2
     RDKit          3D

 98105  0  0  1  0  0  0  0  0999 V2000
   -2.5731   -4.3321    7.3413 C   0  0  0  0  0  0  0  0  0  0  0  0
   -1.2091   -5.0308    7.4582 C   0  0  0  0  0  0  0  0  0  0  0  0
   -0.1767   -4.0750    8.0794 C   0  0  0  0  0  0  0  0  0  0  0  0
   -0.7519   -5.6161    6.1014 C   0  0  0  0  0  0  0  0  0  0  0  0
    0.5391   -6.4589    6.1968 C   0  0  0  0  0  0  0  0  0  0  0  0
    1.0198   -7.0952    4.8552 C   0  0  2  0  0  0  0  0  0  0  0  0
    0.4423   -8.5343    4.5767 C   0  0  0  0  0  0  0  0  0  0  0  0
    0.1590   -9.3962    5.8333 C   0  0  0  0  0  0  0  0  0  0  0  0
   -0.8248   -8.4923    3.6952 C   0  0  0  0  0  0  0  0  0  0  0  0
    1.5723   -9.2156    3.7905 C   0  0  0  0  0  0  0  0  0  0  0  0
    1.5919  -10.4273    3.5619 O   0  0  0  0  0  0  0  0  0  0  0  0
    2.6451   -8.1964    3.3555 C   0  0  2  0  0  0  0  0  0  0  0  0
    2.0231   -7.5352    2.2541 O   0  0  0  0  0  0  0  0  0  0  0  0
    4.0514   -8.7707    2.7708 C   0  0  1  0  0  0  0  0  0  0  0  0
    3.6033   -9.6898    1.7767 O   0  0  0  0  0  0  0  0  0  0  0  0
    4.5807   -7.6830    2.0655 O   0  0  0  0  0  0  0  0  0  0  0  0
    5.9793   -7.4976    1.8595 C   0  0  2  0  0  0  0  0  0  0  0  0
    6.3699   -8.7634    1.1381 C   0  0  0  0  0  0  0  0  0  0  0  0
    6.2188   -9.8453    2.2941 C   0  0  0  0  0  0  0  0  0  0  0  0
    5.2885   -9.4425    3.6020 C   0  0  2  0  0  0  0  0  0  0  0  0
    4.8362  -10.8950    3.9859 C   0  0  0  0  0  0  0  0  0  0  0  0
    6.0037   -8.5726    4.9832 C   0  0  1  0  0  0  0  0  0  0  0  0
    5.7815   -9.4464    6.2895 C   0  0  0  0  0  0  0  0  0  0  0  0
    4.5458  -10.0530    6.7391 C   0  0  0  0  0  0  0  0  0  0  0  0
    4.6053  -10.7452    7.9140 C   0  0  0  0  0  0  0  0  0  0  0  0
    6.1811  -10.6854    8.6004 S   0  0  0  0  0  0  0  0  0  0  0  0
    6.7441   -9.7367    7.2544 C   0  0  0  0  0  0  0  0  0  0  0  0
    7.8627   -8.9509    4.6945 S   0  0  0  0  0  0  0  0  0  0  0  0
    8.8098   -8.3331    5.7242 O   0  0  0  0  0  0  0  0  0  0  0  0
    8.1283   -8.0086    3.1526 C   0  0  0  0  0  0  0  0  0  0  0  0
    6.8873   -7.3828    2.9071 O   0  0  0  0  0  0  0  0  0  0  0  0
    5.8268   -6.8145    5.3305 C   0  0  1  0  0  0  0  0  0  0  0  0
    7.1760   -5.9836    5.2971 C   0  0  0  0  0  0  0  0  0  0  0  0
    4.9349   -6.0744    4.1950 C   0  0  2  0  0  0  0  0  0  0  0  0
    5.5355   -5.2587    2.9268 C   0  0  0  0  0  0  0  0  0  0  0  0
    5.6264   -4.0325    3.0083 O   0  0  0  0  0  0  0  0  0  0  0  0
    5.9361   -5.9815    1.5457 C   0  0  1  0  0  0  0  0  0  0  0  0
    7.2896   -5.4702    0.9941 C   0  0  0  0  0  0  0  0  0  0  0  0
    4.9961   -5.6469    0.5346 O   0  0  0  0  0  0  0  0  0  0  0  0
    3.4180   -5.8122    4.4399 C   0  0  2  0  0  0  0  0  0  0  0  0
    2.8187   -5.1029    3.3599 O   0  0  0  0  0  0  0  0  0  0  0  0
    3.4468   -4.7822    5.5714 C   0  0  0  0  0  0  0  0  0  0  0  0
    4.0026   -5.3353    6.8836 C   0  0  2  0  0  0  0  0  0  0  0  0
    4.3440   -4.1830    7.6573 O   0  0  0  0  0  0  0  0  0  0  0  0
    5.6080   -4.3486    8.1131 C   0  0  0  0  0  0  0  0  0  0  0  0
    6.1686   -5.4835    7.7183 C   0  0  0  0  0  0  0  0  0  0  0  0
    5.2563   -6.3071    6.8266 C   0  0  2  0  0  0  0  0  0  0  0  0
    4.8713   -7.3367    7.6925 O   0  0  0  0  0  0  0  0  0  0  0  0
    2.5815   -7.1764    4.5857 C   0  0  1  0  0  0  0  0  0  0  0  0
    3.0330   -7.8220    5.7363 O   0  0  0  0  0  0  0  0  0  0  0  0
   -2.5411   -3.5080    6.6267 H   0  0  0  0  0  0  0  0  0  0  0  0
   -2.8710   -3.9295    8.3106 H   0  0  0  0  0  0  0  0  0  0  0  0
   -3.3513   -5.0297    7.0277 H   0  0  0  0  0  0  0  0  0  0  0  0
   -1.3463   -5.8557    8.1548 H   0  0  0  0  0  0  0  0  0  0  0  0
    0.0115   -3.2233    7.4272 H   0  0  0  0  0  0  0  0  0  0  0  0
    0.7780   -4.5647    8.2717 H   0  0  0  0  0  0  0  0  0  0  0  0
   -0.5182   -3.6942    9.0417 H   0  0  0  0  0  0  0  0  0  0  0  0
   -1.5470   -6.2256    5.6763 H   0  0  0  0  0  0  0  0  0  0  0  0
   -0.5838   -4.8002    5.3992 H   0  0  0  0  0  0  0  0  0  0  0  0
    1.3078   -5.7906    6.5373 H   0  0  0  0  0  0  0  0  0  0  0  0
    0.4554   -7.1811    7.0110 H   0  0  0  0  0  0  0  0  0  0  0  0
    0.6325   -6.4360    4.0768 H   0  0  0  0  0  0  0  0  0  0  0  0
   -0.6709   -9.0079    6.4175 H   0  0  0  0  0  0  0  0  0  0  0  0
    1.0258   -9.4852    6.4875 H   0  0  0  0  0  0  0  0  0  0  0  0
   -0.1273  -10.4131    5.5627 H   0  0  0  0  0  0  0  0  0  0  0  0
   -1.6635   -8.0281    4.2092 H   0  0  0  0  0  0  0  0  0  0  0  0
   -1.1421   -9.4991    3.4169 H   0  0  0  0  0  0  0  0  0  0  0  0
   -0.6590   -7.9506    2.7630 H   0  0  0  0  0  0  0  0  0  0  0  0
    2.6568   -6.9151    1.9185 H   0  0  0  0  0  0  0  0  0  0  0  0
    4.3174  -10.2394    1.4997 H   0  0  0  0  0  0  0  0  0  0  0  0
    5.6505   -8.9436    0.3386 H   0  0  0  0  0  0  0  0  0  0  0  0
    7.3604   -8.7080    0.6814 H   0  0  0  0  0  0  0  0  0  0  0  0
    5.8286  -10.6983    1.7389 H   0  0  0  0  0  0  0  0  0  0  0  0
    7.1704  -10.2941    2.5714 H   0  0  0  0  0  0  0  0  0  0  0  0
    5.5821  -11.4150    4.5904 H   0  0  0  0  0  0  0  0  0  0  0  0
    4.6641  -11.5633    3.1417 H   0  0  0  0  0  0  0  0  0  0  0  0
    3.8735  -10.9373    4.4776 H   0  0  0  0  0  0  0  0  0  0  0  0
    3.6104  -10.0000    6.2215 H   0  0  0  0  0  0  0  0  0  0  0  0
    3.8023  -11.2695    8.4103 H   0  0  0  0  0  0  0  0  0  0  0  0
    7.7792   -9.4534    7.3121 H   0  0  0  0  0  0  0  0  0  0  0  0
    8.9047   -7.2619    3.3193 H   0  0  0  0  0  0  0  0  0  0  0  0
    8.5497   -8.6429    2.3855 H   0  0  0  0  0  0  0  0  0  0  0  0
    6.9729   -4.9256    5.4652 H   0  0  0  0  0  0  0  0  0  0  0  0
    7.7285   -5.9080    4.3772 H   0  0  0  0  0  0  0  0  0  0  0  0
    7.8944   -6.2865    6.0526 H   0  0  0  0  0  0  0  0  0  0  0  0
    4.7886   -7.0428    3.9145 H   0  0  0  0  0  0  0  0  0  0  0  0
    8.0993   -5.5357    1.7224 H   0  0  0  0  0  0  0  0  0  0  0  0
    7.2178   -4.4192    0.7037 H   0  0  0  0  0  0  0  0  0  0  0  0
    7.5971   -6.0301    0.1083 H   0  0  0  0  0  0  0  0  0  0  0  0
    5.2105   -6.1159   -0.2587 H   0  0  0  0  0  0  0  0  0  0  0  0
    3.3273   -4.3195    3.1875 H   0  0  0  0  0  0  0  0  0  0  0  0
    4.1018   -3.9649    5.2669 H   0  0  0  0  0  0  0  0  0  0  0  0
    2.4841   -4.2937    5.7181 H   0  0  0  0  0  0  0  0  0  0  0  0
    3.1944   -5.8174    7.4325 H   0  0  0  0  0  0  0  0  0  0  0  0
    5.9813   -3.5797    8.7756 H   0  0  0  0  0  0  0  0  0  0  0  0
    7.1495   -5.8124    8.0303 H   0  0  0  0  0  0  0  0  0  0  0  0
    4.1453   -7.7848    7.2751 H   0  0  0  0  0  0  0  0  0  0  0  0
    2.5334   -8.6213    5.8296 H   0  0  0  0  0  0  0  0  0  0  0  0
  1  2  1  0
  1 51  1  0
  1 52  1  0
  1 53  1  0
  2  3  1  0
  2  4  1  0
  2 54  1  0
  3 55  1  0
  3 56  1  0
  3 57  1  0
  4  5  1  0
  4 58  1  0
  4 59  1  0
  5  6  1  0
  5 60  1  0
  5 61  1  0
  6 49  1  0
  6  7  1  0
  6 62  1  6
  7  8  1  0
  7  9  1  0
  7 10  1  0
  8 63  1  0
  8 64  1  0
  8 65  1  0
  9 66  1  0
  9 67  1  0
  9 68  1  0
 10 11  2  0
 10 12  1  0
 12 49  1  0
 12 13  1  6
 12 14  1  0
 13 69  1  0
 14 20  1  0
 14 15  1  6
 14 16  1  0
 15 70  1  0
 16 17  1  0
 17 31  1  1
 17 37  1  0
 17 18  1  0
 18 19  1  0
 18 71  1  0
 18 72  1  0
 19 20  1  0
 19 73  1  0
 19 74  1  0
 20 21  1  1
 20 22  1  0
 21 75  1  0
 21 76  1  0
 21 77  1  0
 22 23  1  1
 22 28  1  0
 22 32  1  0
 23 27  2  0
 23 24  1  0
 24 25  2  0
 24 78  1  0
 25 26  1  0
 25 79  1  0
 26 27  1  0
 27 80  1  0
 28 29  2  0
 28 30  1  6
 30 31  1  0
 30 81  1  0
 30 82  1  0
 32 47  1  0
 32 33  1  6
 32 34  1  0
 33 83  1  0
 33 84  1  0
 33 85  1  0
 34 35  1  0
 34 40  1  0
 34 86  1  6
 35 36  2  0
 35 37  1  0
 37 38  1  0
 37 39  1  6
 38 87  1  0
 38 88  1  0
 38 89  1  0
 39 90  1  0
 40 41  1  6
 40 42  1  0
 40 49  1  0
 41 91  1  0
 42 43  1  0
 42 92  1  0
 42 93  1  0
 43 47  1  0
 43 44  1  0
 43 94  1  1
 44 45  1  0
 45 46  2  0
 45 95  1  0
 46 47  1  0
 46 96  1  0
 47 48  1  1
 48 97  1  0
 49 50  1  1
 50 98  1  0
M  END
>  <i_m_ct_stereo_status>  (11) 
1

>  <s_m_source_file>  (11) 
/var/tmp/pbs.5075288.sched01/tmpzl_yb0kw/0ymjshsm9.sdf

>  <i_m_source_file_index>  (11) 
46

>  <i_lp_mmshare_version>  (11) 
48012

>  <i_f3d_flags>  (11) 
0

>  <s_epik_input>  (11) 
W0NIM11bQ0hdKFtDSDNdKVtDSDJdW0NIMl1bQ0BIXShDKFtDSDNdKShbQ0gzXSlDMT1PKVtDQEBdKFtPSF0pKFtDQEBdMShbT0hdKVtDQEBdMihbT0hdKU9bQ0BdMzQ1KVtDQF02KFtPSF0pW0NIXShDKD1PKVtDQF01KFtDSDNdKVtPSF0pW0NAQF0oW0NIM10pKFtDQF03KFtPSF0pW0NASF0oW0NIMl02KU9bQ0hdPVtDSF03KVtDQF0oW1MrXShbTy1dKVtDSDJdTzQpKFtDQF0yKFtDSDNdKVtDSDJdW0NIMl0zKWM4W2NIXVtjSF1zW2NIXTg=

>  <s_epik_cmdline>  (11) 
J2VwaWtfcHl0aG9uJywgJy1waHQnLCAnMi4wJywgJy1waCcsICc3LjAnLCAnLXRuJywgJzgnLCAnLW1hJywgJzIwMCcsICctaW1hZScsICc8aW5maWxlLm1hZT4nLCAnLW9tYWUnLCAnPG91dGZpbGUubWFlPic=

>  <r_lp_tautomer_probability>  (11) 
1

>  <r_epik_Ionization_Penalty>  (11) 
1.34519e-05

>  <r_epik_Ionization_Penalty_Charging>  (11) 
0

>  <r_epik_Ionization_Penalty_Neutral>  (11) 
1.34519e-05

>  <r_epik_State_Penalty>  (11) 
0

>  <r_epik_Charging_Adjusted_Penalty>  (11) 
0

>  <i_epik_Tot_Q>  (11) 
0

>  <i_epik_Tot_abs_Q>  (11) 
2

>  <s_epik_Chemistry_Notes>  (11) 
This compound contains an acetal/aminal-like group ( X-CH(R)-Y where X, Y are N, S, or O) that may be acid/base labile, releasing an aldehyde.

>  <s_lp_Force_Field>  (11) 
OPLS3e

>  <r_lp_Energy>  (11) 
328.226

>  <b_lp_Chiralities_Consistent>  (11) 
1

>  <s_lp_Variant>  (11) 
12:0-2

>  <s_i_glide_gridfile>  (11) 
pfpi4k_grid

>  <i_i_glide_lignum>  (11) 
46

>  <i_i_glide_rotatable_bonds>  (11) 
10

>  <r_i_docking_score>  (11) 
-2.54332

>  <r_i_glide_ligand_efficiency>  (11) 
-0.0508664

>  <r_i_glide_ligand_efficiency_sa>  (11) 
-0.187393

>  <r_i_glide_ligand_efficiency_ln>  (11) 
-0.517774

>  <r_i_glide_gscore>  (11) 
-2.54332

>  <r_i_glide_lipo>  (11) 
-0.368998

>  <r_i_glide_hbond>  (11) 
0

>  <r_i_glide_metal>  (11) 
-0

>  <r_i_glide_rewards>  (11) 
-0.612481

>  <r_i_glide_evdw>  (11) 
-29.2141

>  <r_i_glide_ecoul>  (11) 
-1.30423

>  <r_i_glide_erotb>  (11) 
0.119183

>  <r_i_glide_esite>  (11) 
-0.0246855

>  <r_i_glide_emodel>  (11) 
-39.409

>  <r_i_glide_energy>  (11) 
-30.5183

>  <r_i_glide_einternal>  (11) 
2.41666

>  <r_i_glide_intrahb_reward>  (11) 
-0.5

>  <i_i_glide_confnum>  (11) 
5

>  <i_i_glide_posenum>  (11) 
14

>  <r_i_glide_eff_state_penalty>  (11) 
0

>  <ligand_id>  (11) 
12

>  <original_smiles>  (11) 
CC(C)CCC1C(C)(C)C(=O)C2(O)C3(O)OC45CCC3(C)C(c3ccsc3)([S+]([O-])CO4)C3(C)C(C(=O)C5(C)O)C(O)(CC4OC=CC43O)C12O

>  <smiles>  (11) 
[H]OC12OC34OC([H])([H])S(=O)C(c5c([H])sc([H])c5[H])(C1(C([H])([H])[H])C([H])([H])C3([H])[H])C1(C([H])([H])[H])C([H])(C(=O)C4(O[H])C([H])([H])[H])C(O[H])(C([H])([H])C3([H])OC([H])=C([H])C31O[H])C1(O[H])C2(O[H])C(=O)C(C([H])([H])[H])(C([H])([H])[H])C1([H])C([H])([H])C([H])([H])C([H])(C([H])([H])[H])C([H])([H])[H]

$$$$
13:0:0
     RDKit          3D

 99108  0  0  1  0  0  0  0  0999 V2000
    5.0873    0.3613    8.2305 C   0  0  0  0  0  0  0  0  0  0  0  0
    4.6852   -0.2525    7.1074 C   0  0  0  0  0  0  0  0  0  0  0  0
    3.8501    0.4721    6.0514 C   0  0  0  0  0  0  0  0  0  0  0  0
    4.0567   -0.1000    4.6305 C   0  0  0  0  0  0  0  0  0  0  0  0
    3.1379    0.6637    3.6428 C   0  0  0  0  0  0  0  0  0  0  0  0
    5.5092    0.1338    4.1471 C   0  0  0  0  0  0  0  0  0  0  0  0
    3.7164   -1.6227    4.6157 C   0  0  0  0  0  0  0  0  0  0  0  0
    3.9093   -2.4005    5.9654 C   0  0  2  0  0  0  0  0  0  0  0  0
    4.9933   -1.7230    6.8567 C   0  0  0  0  0  0  0  0  0  0  0  0
    4.3161   -3.7142    5.5457 O   0  0  0  0  0  0  0  0  0  0  0  0
    4.5069   -4.7617    6.4975 C   0  0  2  0  0  0  0  0  0  0  0  0
    5.8576   -5.3852    6.0963 C   0  0  1  0  0  0  0  0  0  0  0  0
    7.1302   -4.7902    6.5919 C   0  0  0  0  0  0  0  0  0  0  0  0
    7.4205   -6.1258    7.0831 O   0  0  0  0  0  0  0  0  0  0  0  0
    6.2335   -6.7165    6.5598 C   0  0  1  0  0  0  0  0  0  0  0  0
    5.2767   -7.4401    7.4557 C   0  0  0  0  0  0  0  0  0  0  0  0
    3.8428   -7.1884    6.9318 C   0  0  0  0  0  0  0  0  0  0  0  0
    3.2671   -5.7532    6.8601 C   0  0  1  0  0  0  0  0  0  0  0  0
    2.7444   -5.3016    8.2928 C   0  0  1  0  0  0  0  0  0  0  0  0
    2.8382   -6.2415    9.5096 C   0  0  0  0  0  0  0  0  0  0  0  0
    3.7287   -5.1578    9.3338 O   0  0  0  0  0  0  0  0  0  0  0  0
    1.6303   -4.2036    8.2566 C   0  0  2  0  0  0  0  0  0  0  0  0
    0.7972   -4.1197    9.5626 C   0  0  0  0  0  0  0  0  0  0  0  0
    0.6044   -4.4625    7.2798 O   0  0  0  0  0  0  0  0  0  0  0  0
    0.6516   -5.7255    6.6814 C   0  0  1  0  0  0  0  0  0  0  0  0
    0.5153   -6.7296    7.6933 O   0  0  0  0  0  0  0  0  0  0  0  0
   -0.4561   -5.9165    5.6169 C   0  0  0  0  0  0  0  0  0  0  0  0
    0.0493   -7.1618    4.8746 C   0  0  1  0  0  0  0  0  0  0  0  0
   -0.1704   -8.2703    5.7586 O   0  0  0  0  0  0  0  0  0  0  0  0
   -0.6193   -7.4629    3.7041 O   0  0  0  0  0  0  0  0  0  0  0  0
   -0.1418   -8.6134    3.0787 C   0  0  0  0  0  0  0  0  0  0  0  0
   -1.1642   -9.2648    2.1940 C   0  0  0  0  0  0  0  0  0  0  0  0
    1.1249   -9.0457    3.3187 C   0  0  0  0  0  0  0  0  0  0  0  0
    2.1658   -8.3216    4.2053 C   0  0  1  0  0  0  0  0  0  0  0  0
    2.4097   -9.1962    5.2891 O   0  0  0  0  0  0  0  0  0  0  0  0
    3.4961   -8.0562    3.4223 C   0  0  1  0  0  0  0  0  0  0  0  0
    3.6866   -9.0025    2.3881 O   0  0  0  0  0  0  0  0  0  0  0  0
    3.4309   -6.5593    2.9943 C   0  0  1  0  0  0  0  0  0  0  0  0
    4.2410   -5.9988    1.7731 C   0  0  0  0  0  0  0  0  0  0  0  0
    3.8648   -6.5711    0.4015 C   0  0  0  0  0  0  0  0  0  0  0  0
    4.1619   -4.4590    1.7083 C   0  0  0  0  0  0  0  0  0  0  0  0
    5.6111   -6.2988    1.9623 O   0  0  0  0  0  0  0  0  0  0  0  0
    1.9519   -6.1518    3.1723 C   0  0  1  0  0  0  0  0  0  0  0  0
    1.2163   -6.4190    1.9993 O   0  0  0  0  0  0  0  0  0  0  0  0
    1.5867   -6.8746    4.5887 C   0  0  1  0  0  0  0  0  0  0  0  0
    1.9726   -5.8408    5.8513 C   0  0  2  0  0  0  0  0  0  0  0  0
    1.9942   -4.5862    5.2163 O   0  0  0  0  0  0  0  0  0  0  0  0
    2.4427   -2.5196    8.2156 S   0  0  0  0  0  0  0  0  0  0  0  0
    1.4330   -1.4836    8.7104 O   0  0  0  0  0  0  0  0  0  0  0  0
    2.5954   -2.3689    6.5179 O   0  0  0  0  0  0  0  0  0  0  0  0
    5.9718   -6.4754    5.1681 O   0  0  0  0  0  0  0  0  0  0  0  0
    5.6683   -0.1876    8.9610 H   0  0  0  0  0  0  0  0  0  0  0  0
    4.8514    1.3906    8.4472 H   0  0  0  0  0  0  0  0  0  0  0  0
    2.8023    0.3940    6.3521 H   0  0  0  0  0  0  0  0  0  0  0  0
    4.0743    1.5376    6.0601 H   0  0  0  0  0  0  0  0  0  0  0  0
    3.1316    0.2041    2.6554 H   0  0  0  0  0  0  0  0  0  0  0  0
    3.4569    1.6975    3.4978 H   0  0  0  0  0  0  0  0  0  0  0  0
    2.1061    0.7002    3.9892 H   0  0  0  0  0  0  0  0  0  0  0  0
    5.6830   -0.2907    3.1583 H   0  0  0  0  0  0  0  0  0  0  0  0
    6.2615   -0.2764    4.8121 H   0  0  0  0  0  0  0  0  0  0  0  0
    5.7234    1.1946    4.0855 H   0  0  0  0  0  0  0  0  0  0  0  0
    2.6844   -1.7714    4.2808 H   0  0  0  0  0  0  0  0  0  0  0  0
    4.3018   -2.0782    3.8189 H   0  0  0  0  0  0  0  0  0  0  0  0
    5.9302   -1.8312    6.3125 H   0  0  0  0  0  0  0  0  0  0  0  0
    5.1915   -2.1979    7.8276 H   0  0  0  0  0  0  0  0  0  0  0  0
    4.8000   -4.2755    7.4130 H   0  0  0  0  0  0  0  0  0  0  0  0
    7.8100   -4.4821    5.8234 H   0  0  0  0  0  0  0  0  0  0  0  0
    7.0954   -4.0402    7.3678 H   0  0  0  0  0  0  0  0  0  0  0  0
    5.4838   -8.5157    7.4145 H   0  0  0  0  0  0  0  0  0  0  0  0
    5.4335   -7.1075    8.4808 H   0  0  0  0  0  0  0  0  0  0  0  0
    3.9259   -7.5056    5.9128 H   0  0  0  0  0  0  0  0  0  0  0  0
    3.1420   -7.8734    7.4000 H   0  0  0  0  0  0  0  0  0  0  0  0
    2.1623   -6.1120   10.3511 H   0  0  0  0  0  0  0  0  0  0  0  0
    3.3345   -7.2005    9.4982 H   0  0  0  0  0  0  0  0  0  0  0  0
    0.2708   -5.0468    9.7827 H   0  0  0  0  0  0  0  0  0  0  0  0
    0.0311   -3.3467    9.5255 H   0  0  0  0  0  0  0  0  0  0  0  0
    1.4314   -3.8856   10.4138 H   0  0  0  0  0  0  0  0  0  0  0  0
    0.5168   -7.5768    7.2691 H   0  0  0  0  0  0  0  0  0  0  0  0
   -1.4429   -6.0486    6.0470 H   0  0  0  0  0  0  0  0  0  0  0  0
   -0.4817   -5.0590    4.9397 H   0  0  0  0  0  0  0  0  0  0  0  0
    0.1358   -9.0610    5.3279 H   0  0  0  0  0  0  0  0  0  0  0  0
   -0.7673  -10.1656    1.7225 H   0  0  0  0  0  0  0  0  0  0  0  0
   -1.4601   -8.5907    1.3928 H   0  0  0  0  0  0  0  0  0  0  0  0
   -2.0522   -9.5638    2.7477 H   0  0  0  0  0  0  0  0  0  0  0  0
    1.4426   -9.9704    2.8324 H   0  0  0  0  0  0  0  0  0  0  0  0
    2.6751  -10.0304    4.9163 H   0  0  0  0  0  0  0  0  0  0  0  0
    4.3804   -8.2016    4.0415 H   0  0  0  0  0  0  0  0  0  0  0  0
    2.9808   -8.9258    1.7648 H   0  0  0  0  0  0  0  0  0  0  0  0
    3.9021   -6.0481    3.8319 H   0  0  0  0  0  0  0  0  0  0  0  0
    2.8176   -6.3920    0.1609 H   0  0  0  0  0  0  0  0  0  0  0  0
    4.0797   -7.6368    0.3336 H   0  0  0  0  0  0  0  0  0  0  0  0
    4.4362   -6.0820   -0.3887 H   0  0  0  0  0  0  0  0  0  0  0  0
    3.1447   -4.1056    1.5284 H   0  0  0  0  0  0  0  0  0  0  0  0
    4.7667   -4.0632    0.8887 H   0  0  0  0  0  0  0  0  0  0  0  0
    4.5201   -3.9929    2.6265 H   0  0  0  0  0  0  0  0  0  0  0  0
    5.9331   -5.8924    2.7565 H   0  0  0  0  0  0  0  0  0  0  0  0
    1.8187   -5.0767    3.0878 H   0  0  0  0  0  0  0  0  0  0  0  0
    1.2884   -7.3500    1.8401 H   0  0  0  0  0  0  0  0  0  0  0  0
    2.8502   -4.4426    4.8259 H   0  0  0  0  0  0  0  0  0  0  0  0
  1  2  2  0
  1 52  1  0
  1 53  1  0
  2  9  1  0
  2  3  1  0
  3  4  1  0
  3 54  1  0
  3 55  1  0
  4  5  1  0
  4  6  1  0
  4  7  1  0
  5 56  1  0
  5 57  1  0
  5 58  1  0
  6 59  1  0
  6 60  1  0
  6 61  1  0
  7  8  1  0
  7 62  1  0
  7 63  1  0
  8 50  1  1
  8  9  1  0
  8 10  1  0
  9 64  1  0
  9 65  1  0
 10 11  1  0
 11 18  1  0
 11 12  1  0
 11 66  1  1
 12 15  1  0
 12 51  1  6
 12 13  1  0
 13 14  1  0
 13 67  1  0
 13 68  1  0
 15 14  1  6
 15 16  1  0
 15 51  1  0
 16 17  1  0
 16 69  1  0
 16 70  1  0
 18 17  1  1
 17 71  1  0
 17 72  1  0
 18 46  1  0
 18 19  1  0
 19 21  1  1
 19 20  1  0
 19 22  1  0
 20 21  1  0
 20 73  1  0
 20 74  1  0
 22 23  1  1
 22 24  1  0
 22 48  1  0
 23 75  1  0
 23 76  1  0
 23 77  1  0
 24 25  1  0
 25 46  1  0
 25 26  1  1
 25 27  1  0
 26 78  1  0
 27 28  1  0
 27 79  1  0
 27 80  1  0
 45 28  1  6
 28 29  1  1
 28 30  1  0
 29 81  1  0
 30 31  1  0
 31 32  1  0
 31 33  2  0
 32 82  1  0
 32 83  1  0
 32 84  1  0
 33 34  1  0
 33 85  1  0
 34 45  1  0
 34 35  1  1
 34 36  1  0
 35 86  1  0
 36 37  1  0
 36 38  1  0
 36 87  1  1
 37 88  1  0
 38 39  1  0
 38 43  1  0
 38 89  1  1
 39 40  1  0
 39 41  1  0
 39 42  1  0
 40 90  1  0
 40 91  1  0
 40 92  1  0
 41 93  1  0
 41 94  1  0
 41 95  1  0
 42 96  1  0
 43 44  1  0
 43 45  1  0
 43 97  1  1
 44 98  1  0
 45 46  1  0
 46 47  1  6
 47 99  1  0
 48 49  2  0
 48 50  1  6
M  END
>  <i_m_ct_stereo_status>  (12) 
1

>  <s_m_source_file>  (12) 
/var/tmp/pbs.5075288.sched01/tmpzl_yb0kw/0ymjshsm9.sdf

>  <i_m_source_file_index>  (12) 
47

>  <i_lp_mmshare_version>  (12) 
48012

>  <i_f3d_flags>  (12) 
0

>  <s_epik_input>  (12) 
W0NIMl09QyhbQ0gyXTEpW0NIMl1DKFtDSDNdKShbQ0gzXSlbQ0gyXVtDQEBdMTJPW0NAQEhdM1tDQF00NVtDQEBdKE81KShPW0NIMl00KVtDSDJdW0NIMl1bQ0BAXTM2W0NAXTcoW0NIMl1PNylbQ0BAXShbQ0gzXSkoW1MrXShbTy1dKU8yKU9bQ0BdOChbT0hdKVtDQF02KFtPSF0pW0NAQF0xOVtDQF0oW0NIMl04KShbT0hdKU9DKFtDSDNdKT1bQ0hdW0NAQF05KFtPSF0pW0NAQEhdKFtPSF0pW0NAQEhdKEMoW0NIM10pKFtDSDNdKVtPSF0pW0NASF0xW09IXQ==

>  <s_epik_cmdline>  (12) 
J2VwaWtfcHl0aG9uJywgJy1waHQnLCAnMi4wJywgJy1waCcsICc3LjAnLCAnLXRuJywgJzgnLCAnLW1hJywgJzIwMCcsICctaW1hZScsICc8aW5maWxlLm1hZT4nLCAnLW9tYWUnLCAnPG91dGZpbGUubWFlPic=

>  <r_lp_tautomer_probability>  (12) 
1

>  <r_epik_Ionization_Penalty>  (12) 
7.27385e-05

>  <r_epik_Ionization_Penalty_Charging>  (12) 
0

>  <r_epik_Ionization_Penalty_Neutral>  (12) 
7.27385e-05

>  <r_epik_State_Penalty>  (12) 
0

>  <r_epik_Charging_Adjusted_Penalty>  (12) 
0

>  <i_epik_Tot_Q>  (12) 
0

>  <i_epik_Tot_abs_Q>  (12) 
2

>  <s_lp_Force_Field>  (12) 
OPLS3e

>  <r_lp_Energy>  (12) 
159.179

>  <b_lp_Chiralities_Consistent>  (12) 
1

>  <s_lp_Variant>  (12) 
13:0-1

>  <s_i_glide_gridfile>  (12) 
pfpi4k_grid

>  <i_i_glide_lignum>  (12) 
47

>  <i_i_glide_rotatable_bonds>  (12) 
8

>  <r_i_docking_score>  (12) 
-3.96403

>  <r_i_glide_ligand_efficiency>  (12) 
-0.0777261

>  <r_i_glide_ligand_efficiency_sa>  (12) 
-0.288242

>  <r_i_glide_ligand_efficiency_ln>  (12) 
-0.803766

>  <r_i_glide_gscore>  (12) 
-3.96403

>  <r_i_glide_lipo>  (12) 
-0.477822

>  <r_i_glide_hbond>  (12) 
0

>  <r_i_glide_metal>  (12) 
-0

>  <r_i_glide_rewards>  (12) 
-1.5

>  <r_i_glide_evdw>  (12) 
-28.3784

>  <r_i_glide_ecoul>  (12) 
-3.87931

>  <r_i_glide_erotb>  (12) 
0.0393331

>  <r_i_glide_esite>  (12) 
-0.0247313

>  <r_i_glide_emodel>  (12) 
-53.5449

>  <r_i_glide_energy>  (12) 
-32.2577

>  <r_i_glide_einternal>  (12) 
6.13429

>  <r_i_glide_intrahb_reward>  (12) 
-1.5

>  <i_i_glide_confnum>  (12) 
5

>  <i_i_glide_posenum>  (12) 
22

>  <r_i_glide_eff_state_penalty>  (12) 
0

>  <ligand_id>  (12) 
13

>  <original_smiles>  (12) 
C=C1CC(C)(C)CC2(C1)OC1C34COC3(CCC13C1(CO1)C(C)(OC1(O)CC5(O)OC(C)=CC6(O)C(O)C(C(C)(C)O)C(O)C56C13O)[S+]([O-])O2)O4

>  <smiles>  (12) 
[H]OC1([H])C2(O[H])C([H])=C(C([H])([H])[H])OC3(O[H])C([H])([H])C4(O[H])OC5(C([H])([H])[H])S(=O)OC6(OC7([H])C89OC8(OC9([H])[H])C([H])([H])C([H])([H])C7(C57OC7([H])[H])C4(O[H])C32C([H])(O[H])C1([H])C(O[H])(C([H])([H])[H])C([H])([H])[H])C([H])([H])C(=C([H])[H])C([H])([H])C(C([H])([H])[H])(C([H])([H])[H])C6([H])[H]

$$$$
13:0:1
     RDKit          3D

 99108  0  0  1  0  0  0  0  0999 V2000
    3.5498    0.8732    3.8047 C   0  0  0  0  0  0  0  0  0  0  0  0
    3.6951   -0.3584    3.2855 C   0  0  0  0  0  0  0  0  0  0  0  0
    3.3678   -0.6574    1.8247 C   0  0  0  0  0  0  0  0  0  0  0  0
    4.1915   -1.8384    1.2601 C   0  0  0  0  0  0  0  0  0  0  0  0
    3.7518   -2.1061   -0.2011 C   0  0  0  0  0  0  0  0  0  0  0  0
    5.7053   -1.4887    1.2060 C   0  0  0  0  0  0  0  0  0  0  0  0
    3.9468   -3.1132    2.1289 C   0  0  0  0  0  0  0  0  0  0  0  0
    3.5695   -2.8828    3.6345 C   0  0  2  0  0  0  0  0  0  0  0  0
    4.1406   -1.5290    4.1538 C   0  0  0  0  0  0  0  0  0  0  0  0
    4.1714   -4.0005    4.3127 O   0  0  0  0  0  0  0  0  0  0  0  0
    3.9891   -4.1966    5.7167 C   0  0  2  0  0  0  0  0  0  0  0  0
    5.4087   -4.4946    6.2483 C   0  0  1  0  0  0  0  0  0  0  0  0
    6.3186   -3.3648    6.6019 C   0  0  0  0  0  0  0  0  0  0  0  0
    6.4120   -4.0119    7.9003 O   0  0  0  0  0  0  0  0  0  0  0  0
    5.5927   -5.1253    7.5536 C   0  0  1  0  0  0  0  0  0  0  0  0
    4.3723   -5.4573    8.3549 C   0  0  0  0  0  0  0  0  0  0  0  0
    3.2952   -6.0001    7.3875 C   0  0  0  0  0  0  0  0  0  0  0  0
    2.7495   -5.1207    6.2364 C   0  0  1  0  0  0  0  0  0  0  0  0
    1.6500   -4.1201    6.7944 C   0  0  1  0  0  0  0  0  0  0  0  0
    1.2519   -4.1157    8.2835 C   0  0  0  0  0  0  0  0  0  0  0  0
    2.0834   -3.1149    7.7328 O   0  0  0  0  0  0  0  0  0  0  0  0
    0.6132   -3.6443    5.7223 C   0  0  2  0  0  0  0  0  0  0  0  0
   -0.6939   -3.0788    6.3409 C   0  0  0  0  0  0  0  0  0  0  0  0
    0.1111   -4.7124    4.8995 O   0  0  0  0  0  0  0  0  0  0  0  0
    0.4553   -6.0036    5.3060 C   0  0  1  0  0  0  0  0  0  0  0  0
   -0.0428   -6.2418    6.6281 O   0  0  0  0  0  0  0  0  0  0  0  0
   -0.1010   -7.0920    4.3450 C   0  0  0  0  0  0  0  0  0  0  0  0
    0.7303   -8.3060    4.7792 C   0  0  1  0  0  0  0  0  0  0  0  0
    0.1900   -8.7247    6.0380 O   0  0  0  0  0  0  0  0  0  0  0  0
    0.6580   -9.3982    3.9467 O   0  0  0  0  0  0  0  0  0  0  0  0
    1.4073  -10.4797    4.4065 C   0  0  0  0  0  0  0  0  0  0  0  0
    0.9144  -11.7920    3.8918 C   0  0  0  0  0  0  0  0  0  0  0  0
    2.4566  -10.2933    5.2458 C   0  0  0  0  0  0  0  0  0  0  0  0
    2.9906   -8.9199    5.7134 C   0  0  1  0  0  0  0  0  0  0  0  0
    2.7992   -8.8969    7.1147 O   0  0  0  0  0  0  0  0  0  0  0  0
    4.5173   -8.7727    5.3805 C   0  0  1  0  0  0  0  0  0  0  0  0
    5.1656  -10.0293    5.3015 O   0  0  0  0  0  0  0  0  0  0  0  0
    4.5826   -7.9021    4.0890 C   0  0  1  0  0  0  0  0  0  0  0  0
    5.7968   -7.9517    3.0878 C   0  0  0  0  0  0  0  0  0  0  0  0
    6.0646   -9.2902    2.3652 C   0  0  0  0  0  0  0  0  0  0  0  0
    5.7025   -6.8113    2.0525 C   0  0  0  0  0  0  0  0  0  0  0  0
    6.9570   -7.6326    3.8231 O   0  0  0  0  0  0  0  0  0  0  0  0
    3.1463   -7.9314    3.5264 C   0  0  1  0  0  0  0  0  0  0  0  0
    3.0023   -9.0222    2.6508 O   0  0  0  0  0  0  0  0  0  0  0  0
    2.2363   -7.7838    4.8697 C   0  0  1  0  0  0  0  0  0  0  0  0
    2.0080   -6.1583    5.1939 C   0  0  2  0  0  0  0  0  0  0  0  0
    2.2424   -5.5614    3.9437 O   0  0  0  0  0  0  0  0  0  0  0  0
    1.2878   -2.1306    4.8492 S   0  0  0  0  0  0  0  0  0  0  0  0
    0.1216   -1.3738    4.2444 O   0  0  0  0  0  0  0  0  0  0  0  0
    2.1424   -2.9381    3.6008 O   0  0  0  0  0  0  0  0  0  0  0  0
    5.9387   -5.8257    6.3480 O   0  0  0  0  0  0  0  0  0  0  0  0
    3.7889    1.0483    4.8470 H   0  0  0  0  0  0  0  0  0  0  0  0
    3.2112    1.7117    3.2180 H   0  0  0  0  0  0  0  0  0  0  0  0
    2.2961   -0.8664    1.7629 H   0  0  0  0  0  0  0  0  0  0  0  0
    3.5201    0.2314    1.2122 H   0  0  0  0  0  0  0  0  0  0  0  0
    4.1828   -3.0246   -0.5972 H   0  0  0  0  0  0  0  0  0  0  0  0
    4.0493   -1.3005   -0.8746 H   0  0  0  0  0  0  0  0  0  0  0  0
    2.6695   -2.2007   -0.2859 H   0  0  0  0  0  0  0  0  0  0  0  0
    6.2900   -2.3323    0.8410 H   0  0  0  0  0  0  0  0  0  0  0  0
    6.1284   -1.2116    2.1678 H   0  0  0  0  0  0  0  0  0  0  0  0
    5.8998   -0.6491    0.5374 H   0  0  0  0  0  0  0  0  0  0  0  0
    3.1623   -3.7298    1.6785 H   0  0  0  0  0  0  0  0  0  0  0  0
    4.8301   -3.7436    2.0445 H   0  0  0  0  0  0  0  0  0  0  0  0
    5.2228   -1.6369    4.1221 H   0  0  0  0  0  0  0  0  0  0  0  0
    3.9304   -1.2774    5.1984 H   0  0  0  0  0  0  0  0  0  0  0  0
    3.8354   -3.2176    6.1352 H   0  0  0  0  0  0  0  0  0  0  0  0
    7.2644   -3.3547    6.0899 H   0  0  0  0  0  0  0  0  0  0  0  0
    5.9175   -2.3619    6.6460 H   0  0  0  0  0  0  0  0  0  0  0  0
    4.6254   -6.2402    9.0782 H   0  0  0  0  0  0  0  0  0  0  0  0
    4.0648   -4.5735    8.9076 H   0  0  0  0  0  0  0  0  0  0  0  0
    3.8218   -6.7940    6.9010 H   0  0  0  0  0  0  0  0  0  0  0  0
    2.4899   -6.4725    7.9443 H   0  0  0  0  0  0  0  0  0  0  0  0
    0.2741   -3.7481    8.5868 H   0  0  0  0  0  0  0  0  0  0  0  0
    1.7433   -4.7000    9.0436 H   0  0  0  0  0  0  0  0  0  0  0  0
   -1.2309   -3.8265    6.9232 H   0  0  0  0  0  0  0  0  0  0  0  0
   -1.3939   -2.7323    5.5849 H   0  0  0  0  0  0  0  0  0  0  0  0
   -0.4868   -2.2265    6.9803 H   0  0  0  0  0  0  0  0  0  0  0  0
    0.1635   -7.1393    6.8469 H   0  0  0  0  0  0  0  0  0  0  0  0
   -1.1697   -7.2640    4.4526 H   0  0  0  0  0  0  0  0  0  0  0  0
    0.1231   -6.8434    3.3055 H   0  0  0  0  0  0  0  0  0  0  0  0
   -0.5390   -9.3116    5.8484 H   0  0  0  0  0  0  0  0  0  0  0  0
    1.5623  -12.5645    4.3030 H   0  0  0  0  0  0  0  0  0  0  0  0
    0.9403  -11.8450    2.8077 H   0  0  0  0  0  0  0  0  0  0  0  0
   -0.0967  -11.9979    4.2268 H   0  0  0  0  0  0  0  0  0  0  0  0
    2.9847  -11.1826    5.6026 H   0  0  0  0  0  0  0  0  0  0  0  0
    2.6329   -9.7947    7.3749 H   0  0  0  0  0  0  0  0  0  0  0  0
    5.0615   -8.2689    6.1775 H   0  0  0  0  0  0  0  0  0  0  0  0
    4.8218  -10.4960    4.5574 H   0  0  0  0  0  0  0  0  0  0  0  0
    4.6466   -6.8909    4.4909 H   0  0  0  0  0  0  0  0  0  0  0  0
    5.2153   -9.6151    1.7700 H   0  0  0  0  0  0  0  0  0  0  0  0
    6.3199  -10.0843    3.0617 H   0  0  0  0  0  0  0  0  0  0  0  0
    6.9009   -9.1948    1.6695 H   0  0  0  0  0  0  0  0  0  0  0  0
    4.8394   -6.9269    1.3963 H   0  0  0  0  0  0  0  0  0  0  0  0
    6.5818   -6.7797    1.4064 H   0  0  0  0  0  0  0  0  0  0  0  0
    5.6295   -5.8341    2.5347 H   0  0  0  0  0  0  0  0  0  0  0  0
    7.7015   -7.6739    3.2412 H   0  0  0  0  0  0  0  0  0  0  0  0
    3.0196   -7.2057    2.7302 H   0  0  0  0  0  0  0  0  0  0  0  0
    3.1098   -9.8134    3.1576 H   0  0  0  0  0  0  0  0  0  0  0  0
    3.1793   -5.5057    3.7929 H   0  0  0  0  0  0  0  0  0  0  0  0
  1  2  2  0
  1 52  1  0
  1 53  1  0
  2  9  1  0
  2  3  1  0
  3  4  1  0
  3 54  1  0
  3 55  1  0
  4  5  1  0
  4  6  1  0
  4  7  1  0
  5 56  1  0
  5 57  1  0
  5 58  1  0
  6 59  1  0
  6 60  1  0
  6 61  1  0
  7  8  1  0
  7 62  1  0
  7 63  1  0
  8 50  1  6
  8  9  1  0
  8 10  1  0
  9 64  1  0
  9 65  1  0
 10 11  1  0
 11 18  1  0
 11 12  1  0
 11 66  1  1
 12 15  1  0
 12 51  1  6
 12 13  1  0
 13 14  1  0
 13 67  1  0
 13 68  1  0
 15 14  1  1
 15 16  1  0
 15 51  1  0
 16 17  1  0
 16 69  1  0
 16 70  1  0
 18 17  1  1
 17 71  1  0
 17 72  1  0
 18 46  1  0
 18 19  1  0
 19 21  1  1
 19 20  1  0
 19 22  1  0
 20 21  1  0
 20 73  1  0
 20 74  1  0
 22 23  1  1
 22 24  1  0
 22 48  1  0
 23 75  1  0
 23 76  1  0
 23 77  1  0
 24 25  1  0
 25 46  1  0
 25 26  1  1
 25 27  1  0
 26 78  1  0
 27 28  1  0
 27 79  1  0
 27 80  1  0
 45 28  1  6
 28 29  1  1
 28 30  1  0
 29 81  1  0
 30 31  1  0
 31 32  1  0
 31 33  2  0
 32 82  1  0
 32 83  1  0
 32 84  1  0
 33 34  1  0
 33 85  1  0
 34 45  1  0
 34 35  1  1
 34 36  1  0
 35 86  1  0
 36 37  1  0
 36 38  1  0
 36 87  1  1
 37 88  1  0
 38 39  1  0
 38 43  1  0
 38 89  1  1
 39 40  1  0
 39 41  1  0
 39 42  1  0
 40 90  1  0
 40 91  1  0
 40 92  1  0
 41 93  1  0
 41 94  1  0
 41 95  1  0
 42 96  1  0
 43 44  1  0
 43 45  1  0
 43 97  1  6
 44 98  1  0
 45 46  1  0
 46 47  1  6
 47 99  1  0
 48 49  2  0
 48 50  1  6
M  END
>  <i_m_ct_stereo_status>  (13) 
1

>  <s_m_source_file>  (13) 
/var/tmp/pbs.5075288.sched01/tmpzl_yb0kw/0ymjshsm9.sdf

>  <i_m_source_file_index>  (13) 
47

>  <i_lp_mmshare_version>  (13) 
48012

>  <i_f3d_flags>  (13) 
0

>  <s_epik_input>  (13) 
W0NIMl09QyhbQ0gyXTEpW0NIMl1DKFtDSDNdKShbQ0gzXSlbQ0gyXVtDQEBdMTJPW0NAQEhdM1tDQF00NVtDQEBdKE81KShPW0NIMl00KVtDSDJdW0NIMl1bQ0BAXTM2W0NAXTcoW0NIMl1PNylbQ0BAXShbQ0gzXSkoW1MrXShbTy1dKU8yKU9bQ0BdOChbT0hdKVtDQF02KFtPSF0pW0NAQF0xOVtDQF0oW0NIMl04KShbT0hdKU9DKFtDSDNdKT1bQ0hdW0NAQF05KFtPSF0pW0NAQEhdKFtPSF0pW0NAQEhdKEMoW0NIM10pKFtDSDNdKVtPSF0pW0NASF0xW09IXQ==

>  <s_epik_cmdline>  (13) 
J2VwaWtfcHl0aG9uJywgJy1waHQnLCAnMi4wJywgJy1waCcsICc3LjAnLCAnLXRuJywgJzgnLCAnLW1hJywgJzIwMCcsICctaW1hZScsICc8aW5maWxlLm1hZT4nLCAnLW9tYWUnLCAnPG91dGZpbGUubWFlPic=

>  <r_lp_tautomer_probability>  (13) 
1

>  <r_epik_Ionization_Penalty>  (13) 
7.27385e-05

>  <r_epik_Ionization_Penalty_Charging>  (13) 
0

>  <r_epik_Ionization_Penalty_Neutral>  (13) 
7.27385e-05

>  <r_epik_State_Penalty>  (13) 
0

>  <r_epik_Charging_Adjusted_Penalty>  (13) 
0

>  <i_epik_Tot_Q>  (13) 
0

>  <i_epik_Tot_abs_Q>  (13) 
2

>  <s_lp_Force_Field>  (13) 
OPLS3e

>  <r_lp_Energy>  (13) 
159.179

>  <b_lp_Chiralities_Consistent>  (13) 
1

>  <s_lp_Variant>  (13) 
13:0-1

>  <s_i_glide_gridfile>  (13) 
pfpi4k_grid

>  <i_i_glide_lignum>  (13) 
47

>  <i_i_glide_rotatable_bonds>  (13) 
8

>  <r_i_docking_score>  (13) 
-3.01718

>  <r_i_glide_ligand_efficiency>  (13) 
-0.0591603

>  <r_i_glide_ligand_efficiency_sa>  (13) 
-0.219392

>  <r_i_glide_ligand_efficiency_ln>  (13) 
-0.611777

>  <r_i_glide_gscore>  (13) 
-3.01718

>  <r_i_glide_lipo>  (13) 
-0.252736

>  <r_i_glide_hbond>  (13) 
0

>  <r_i_glide_metal>  (13) 
-0

>  <r_i_glide_rewards>  (13) 
-1

>  <r_i_glide_evdw>  (13) 
-35.504

>  <r_i_glide_ecoul>  (13) 
0.0171672

>  <r_i_glide_erotb>  (13) 
0.0393331

>  <r_i_glide_esite>  (13) 
-0.0311485

>  <r_i_glide_emodel>  (13) 
-48.4469

>  <r_i_glide_energy>  (13) 
-35.4868

>  <r_i_glide_einternal>  (13) 
7.45297

>  <r_i_glide_intrahb_reward>  (13) 
-1

>  <i_i_glide_confnum>  (13) 
5

>  <i_i_glide_posenum>  (13) 
32

>  <r_i_glide_eff_state_penalty>  (13) 
0

>  <ligand_id>  (13) 
13

>  <original_smiles>  (13) 
C=C1CC(C)(C)CC2(C1)OC1C34COC3(CCC13C1(CO1)C(C)(OC1(O)CC5(O)OC(C)=CC6(O)C(O)C(C(C)(C)O)C(O)C56C13O)[S+]([O-])O2)O4

>  <smiles>  (13) 
[H]OC1([H])C2(O[H])C([H])=C(C([H])([H])[H])OC3(O[H])C([H])([H])C4(O[H])OC5(C([H])([H])[H])S(=O)OC6(OC7([H])C89OC8(OC9([H])[H])C([H])([H])C([H])([H])C7(C57OC7([H])[H])C4(O[H])C32C([H])(O[H])C1([H])C(O[H])(C([H])([H])[H])C([H])([H])[H])C([H])([H])C(=C([H])[H])C([H])([H])C(C([H])([H])[H])(C([H])([H])[H])C6([H])[H]

$$$$
13:0:2
     RDKit          3D

 99108  0  0  1  0  0  0  0  0999 V2000
    3.6141    0.8788    3.6820 C   0  0  0  0  0  0  0  0  0  0  0  0
    3.7785   -0.3621    3.1924 C   0  0  0  0  0  0  0  0  0  0  0  0
    3.4672   -0.6873    1.7310 C   0  0  0  0  0  0  0  0  0  0  0  0
    4.3012   -1.8777    1.1982 C   0  0  0  0  0  0  0  0  0  0  0  0
    3.8716   -2.1717   -0.2632 C   0  0  0  0  0  0  0  0  0  0  0  0
    5.8143   -1.5229    1.1527 C   0  0  0  0  0  0  0  0  0  0  0  0
    4.0486   -3.1332    2.0895 C   0  0  0  0  0  0  0  0  0  0  0  0
    3.6494   -2.8760    3.5890 C   0  0  2  0  0  0  0  0  0  0  0  0
    4.2127   -1.5111    4.0887 C   0  0  0  0  0  0  0  0  0  0  0  0
    4.2448   -3.9763    4.2933 O   0  0  0  0  0  0  0  0  0  0  0  0
    4.0502   -4.1548    5.6957 C   0  0  2  0  0  0  0  0  0  0  0  0
    5.4678   -4.4352    6.2466 C   0  0  1  0  0  0  0  0  0  0  0  0
    6.3529   -3.3001    6.5928 C   0  0  0  0  0  0  0  0  0  0  0  0
    6.4361   -3.9156    7.9009 O   0  0  0  0  0  0  0  0  0  0  0  0
    5.6281   -5.0353    7.5680 C   0  0  1  0  0  0  0  0  0  0  0  0
    4.3959   -5.3655    8.3591 C   0  0  0  0  0  0  0  0  0  0  0  0
    3.3348   -5.9295    7.3899 C   0  0  0  0  0  0  0  0  0  0  0  0
    2.8039   -5.0651    6.2157 C   0  0  1  0  0  0  0  0  0  0  0  0
    1.6940   -4.0647    6.7505 C   0  0  1  0  0  0  0  0  0  0  0  0
    1.2775   -4.0283    8.2370 C   0  0  0  0  0  0  0  0  0  0  0  0
    2.1157   -3.0404    7.6762 O   0  0  0  0  0  0  0  0  0  0  0  0
    0.6751   -3.6054    5.6501 C   0  0  2  0  0  0  0  0  0  0  0  0
   -0.6394   -3.0361    6.2367 C   0  0  0  0  0  0  0  0  0  0  0  0
    0.1889   -4.6897    4.8423 O   0  0  0  0  0  0  0  0  0  0  0  0
    0.5284   -5.9779    5.2861 C   0  0  1  0  0  0  0  0  0  0  0  0
    0.0156   -6.1783    6.6005 O   0  0  0  0  0  0  0  0  0  0  0  0
   -0.0128   -7.0843    4.3382 C   0  0  0  0  0  0  0  0  0  0  0  0
    0.8171   -8.2937    4.8139 C   0  0  1  0  0  0  0  0  0  0  0  0
    0.2670   -8.6652    6.0829 O   0  0  0  0  0  0  0  0  0  0  0  0
    0.7330   -9.4100    4.0032 O   0  0  0  0  0  0  0  0  0  0  0  0
    1.4990  -10.4754    4.4837 C   0  0  0  0  0  0  0  0  0  0  0  0
    1.0187  -11.8156    3.9791 C   0  0  0  0  0  0  0  0  0  0  0  0
    2.5279  -10.2690    5.3100 C   0  0  0  0  0  0  0  0  0  0  0  0
    3.0605   -8.8796    5.7659 C   0  0  1  0  0  0  0  0  0  0  0  0
    2.8374   -8.8371    7.1620 O   0  0  0  0  0  0  0  0  0  0  0  0
    4.5922   -8.7398    5.4387 C   0  0  1  0  0  0  0  0  0  0  0  0
    5.1973  -10.0096    5.3165 O   0  0  0  0  0  0  0  0  0  0  0  0
    4.6734   -7.8816    4.1398 C   0  0  1  0  0  0  0  0  0  0  0  0
    5.8969   -7.9575    3.1564 C   0  0  0  0  0  0  0  0  0  0  0  0
    6.1778   -9.2989    2.4457 C   0  0  0  0  0  0  0  0  0  0  0  0
    5.8135   -6.8275    2.1095 C   0  0  0  0  0  0  0  0  0  0  0  0
    7.0382   -7.6189    3.9071 O   0  0  0  0  0  0  0  0  0  0  0  0
    3.2418   -7.9252    3.5613 C   0  0  1  0  0  0  0  0  0  0  0  0
    3.1095   -9.0396    2.7092 O   0  0  0  0  0  0  0  0  0  0  0  0
    2.3216   -7.7649    4.8945 C   0  0  1  0  0  0  0  0  0  0  0  0
    2.0806   -6.1290    5.1836 C   0  0  2  0  0  0  0  0  0  0  0  0
    2.3307   -5.5524    3.9288 O   0  0  0  0  0  0  0  0  0  0  0  0
    1.3573   -2.1061    4.7630 S   0  0  0  0  0  0  0  0  0  0  0  0
    0.1898   -1.3640    4.1384 O   0  0  0  0  0  0  0  0  0  0  0  0
    2.2178   -2.9343    3.5343 O   0  0  0  0  0  0  0  0  0  0  0  0
    5.9973   -5.7683    6.3832 O   0  0  0  0  0  0  0  0  0  0  0  0
    3.8421    1.0758    4.7297 H   0  0  0  0  0  0  0  0  0  0  0  0
    3.2811    1.7068    3.0760 H   0  0  0  0  0  0  0  0  0  0  0  0
    2.3956   -0.8989    1.6594 H   0  0  0  0  0  0  0  0  0  0  0  0
    3.6244    0.1871    1.1025 H   0  0  0  0  0  0  0  0  0  0  0  0
    4.3088   -3.0954   -0.6419 H   0  0  0  0  0  0  0  0  0  0  0  0
    4.1718   -1.3824   -0.9526 H   0  0  0  0  0  0  0  0  0  0  0  0
    2.7912   -2.2724   -0.3605 H   0  0  0  0  0  0  0  0  0  0  0  0
    6.4067   -2.3692    0.8078 H   0  0  0  0  0  0  0  0  0  0  0  0
    6.2261   -1.2293    2.1146 H   0  0  0  0  0  0  0  0  0  0  0  0
    6.0169   -0.6977    0.4712 H   0  0  0  0  0  0  0  0  0  0  0  0
    3.2709   -3.7599    1.6436 H   0  0  0  0  0  0  0  0  0  0  0  0
    4.9345   -3.7666    2.0265 H   0  0  0  0  0  0  0  0  0  0  0  0
    5.2965   -1.6265    4.0729 H   0  0  0  0  0  0  0  0  0  0  0  0
    3.9902   -1.2378    5.1257 H   0  0  0  0  0  0  0  0  0  0  0  0
    3.8956   -3.1743    6.1005 H   0  0  0  0  0  0  0  0  0  0  0  0
    7.3037   -3.2909    6.0872 H   0  0  0  0  0  0  0  0  0  0  0  0
    5.9372   -2.3131    6.6005 H   0  0  0  0  0  0  0  0  0  0  0  0
    4.6314   -6.1336    9.1095 H   0  0  0  0  0  0  0  0  0  0  0  0
    4.0823   -4.4608    8.8816 H   0  0  0  0  0  0  0  0  0  0  0  0
    3.8667   -6.7321    6.9207 H   0  0  0  0  0  0  0  0  0  0  0  0
    2.5144   -6.3882    7.9471 H   0  0  0  0  0  0  0  0  0  0  0  0
    0.2991   -3.6508    8.5106 H   0  0  0  0  0  0  0  0  0  0  0  0
    1.7588   -4.5870    9.0104 H   0  0  0  0  0  0  0  0  0  0  0  0
   -1.1830   -3.7750    6.8228 H   0  0  0  0  0  0  0  0  0  0  0  0
   -1.3309   -2.7025    5.4607 H   0  0  0  0  0  0  0  0  0  0  0  0
   -0.4390   -2.1740    6.8616 H   0  0  0  0  0  0  0  0  0  0  0  0
    0.1495   -7.0969    6.8035 H   0  0  0  0  0  0  0  0  0  0  0  0
   -1.0804   -7.2576    4.4396 H   0  0  0  0  0  0  0  0  0  0  0  0
    0.2220   -6.8502    3.3002 H   0  0  0  0  0  0  0  0  0  0  0  0
    0.6761   -9.4880    6.3302 H   0  0  0  0  0  0  0  0  0  0  0  0
    1.6217  -12.6179    4.3925 H   0  0  0  0  0  0  0  0  0  0  0  0
    1.0555  -11.8759    2.8938 H   0  0  0  0  0  0  0  0  0  0  0  0
   -0.0002  -11.9969    4.2926 H   0  0  0  0  0  0  0  0  0  0  0  0
    3.0641  -11.1481    5.6762 H   0  0  0  0  0  0  0  0  0  0  0  0
    2.9138   -9.7312    7.4868 H   0  0  0  0  0  0  0  0  0  0  0  0
    5.1275   -8.2375    6.2473 H   0  0  0  0  0  0  0  0  0  0  0  0
    5.0978  -10.4528    6.1528 H   0  0  0  0  0  0  0  0  0  0  0  0
    4.7234   -6.8650    4.5299 H   0  0  0  0  0  0  0  0  0  0  0  0
    5.3373   -9.6322    1.8449 H   0  0  0  0  0  0  0  0  0  0  0  0
    6.4276  -10.0910    3.1429 H   0  0  0  0  0  0  0  0  0  0  0  0
    7.0262   -9.2073    1.7687 H   0  0  0  0  0  0  0  0  0  0  0  0
    4.9589   -6.9489    1.4424 H   0  0  0  0  0  0  0  0  0  0  0  0
    6.7014   -6.8060    1.4758 H   0  0  0  0  0  0  0  0  0  0  0  0
    5.7370   -5.8453    2.5813 H   0  0  0  0  0  0  0  0  0  0  0  0
    7.7943   -7.6748    3.3385 H   0  0  0  0  0  0  0  0  0  0  0  0
    3.1174   -7.2137    2.7497 H   0  0  0  0  0  0  0  0  0  0  0  0
    3.2873   -9.8084    3.2374 H   0  0  0  0  0  0  0  0  0  0  0  0
    3.2742   -5.4692    3.7984 H   0  0  0  0  0  0  0  0  0  0  0  0
  1  2  2  0
  1 52  1  0
  1 53  1  0
  2  9  1  0
  2  3  1  0
  3  4  1  0
  3 54  1  0
  3 55  1  0
  4  5  1  0
  4  6  1  0
  4  7  1  0
  5 56  1  0
  5 57  1  0
  5 58  1  0
  6 59  1  0
  6 60  1  0
  6 61  1  0
  7  8  1  0
  7 62  1  0
  7 63  1  0
  8 50  1  6
  8  9  1  0
  8 10  1  0
  9 64  1  0
  9 65  1  0
 10 11  1  0
 11 18  1  0
 11 12  1  0
 11 66  1  1
 12 15  1  0
 12 51  1  6
 12 13  1  0
 13 14  1  0
 13 67  1  0
 13 68  1  0
 15 14  1  1
 15 16  1  0
 15 51  1  0
 16 17  1  0
 16 69  1  0
 16 70  1  0
 18 17  1  1
 17 71  1  0
 17 72  1  0
 18 46  1  0
 18 19  1  0
 19 21  1  1
 19 20  1  0
 19 22  1  0
 20 21  1  0
 20 73  1  0
 20 74  1  0
 22 23  1  1
 22 24  1  0
 22 48  1  0
 23 75  1  0
 23 76  1  0
 23 77  1  0
 24 25  1  0
 25 46  1  0
 25 26  1  1
 25 27  1  0
 26 78  1  0
 27 28  1  0
 27 79  1  0
 27 80  1  0
 45 28  1  6
 28 29  1  1
 28 30  1  0
 29 81  1  0
 30 31  1  0
 31 32  1  0
 31 33  2  0
 32 82  1  0
 32 83  1  0
 32 84  1  0
 33 34  1  0
 33 85  1  0
 34 45  1  0
 34 35  1  1
 34 36  1  0
 35 86  1  0
 36 37  1  0
 36 38  1  0
 36 87  1  1
 37 88  1  0
 38 39  1  0
 38 43  1  0
 38 89  1  1
 39 40  1  0
 39 41  1  0
 39 42  1  0
 40 90  1  0
 40 91  1  0
 40 92  1  0
 41 93  1  0
 41 94  1  0
 41 95  1  0
 42 96  1  0
 43 44  1  0
 43 45  1  0
 43 97  1  6
 44 98  1  0
 45 46  1  0
 46 47  1  6
 47 99  1  0
 48 49  2  0
 48 50  1  6
M  END
>  <i_m_ct_stereo_status>  (14) 
1

>  <s_m_source_file>  (14) 
/var/tmp/pbs.5075288.sched01/tmpzl_yb0kw/0ymjshsm9.sdf

>  <i_m_source_file_index>  (14) 
47

>  <i_lp_mmshare_version>  (14) 
48012

>  <i_f3d_flags>  (14) 
0

>  <s_epik_input>  (14) 
W0NIMl09QyhbQ0gyXTEpW0NIMl1DKFtDSDNdKShbQ0gzXSlbQ0gyXVtDQEBdMTJPW0NAQEhdM1tDQF00NVtDQEBdKE81KShPW0NIMl00KVtDSDJdW0NIMl1bQ0BAXTM2W0NAXTcoW0NIMl1PNylbQ0BAXShbQ0gzXSkoW1MrXShbTy1dKU8yKU9bQ0BdOChbT0hdKVtDQF02KFtPSF0pW0NAQF0xOVtDQF0oW0NIMl04KShbT0hdKU9DKFtDSDNdKT1bQ0hdW0NAQF05KFtPSF0pW0NAQEhdKFtPSF0pW0NAQEhdKEMoW0NIM10pKFtDSDNdKVtPSF0pW0NASF0xW09IXQ==

>  <s_epik_cmdline>  (14) 
J2VwaWtfcHl0aG9uJywgJy1waHQnLCAnMi4wJywgJy1waCcsICc3LjAnLCAnLXRuJywgJzgnLCAnLW1hJywgJzIwMCcsICctaW1hZScsICc8aW5maWxlLm1hZT4nLCAnLW9tYWUnLCAnPG91dGZpbGUubWFlPic=

>  <r_lp_tautomer_probability>  (14) 
1

>  <r_epik_Ionization_Penalty>  (14) 
7.27385e-05

>  <r_epik_Ionization_Penalty_Charging>  (14) 
0

>  <r_epik_Ionization_Penalty_Neutral>  (14) 
7.27385e-05

>  <r_epik_State_Penalty>  (14) 
0

>  <r_epik_Charging_Adjusted_Penalty>  (14) 
0

>  <i_epik_Tot_Q>  (14) 
0

>  <i_epik_Tot_abs_Q>  (14) 
2

>  <s_lp_Force_Field>  (14) 
OPLS3e

>  <r_lp_Energy>  (14) 
159.179

>  <b_lp_Chiralities_Consistent>  (14) 
1

>  <s_lp_Variant>  (14) 
13:0-1

>  <s_i_glide_gridfile>  (14) 
pfpi4k_grid

>  <i_i_glide_lignum>  (14) 
47

>  <i_i_glide_rotatable_bonds>  (14) 
8

>  <r_i_docking_score>  (14) 
-2.92641

>  <r_i_glide_ligand_efficiency>  (14) 
-0.0573805

>  <r_i_glide_ligand_efficiency_sa>  (14) 
-0.212792

>  <r_i_glide_ligand_efficiency_ln>  (14) 
-0.593372

>  <r_i_glide_gscore>  (14) 
-2.92641

>  <r_i_glide_lipo>  (14) 
-0.270604

>  <r_i_glide_hbond>  (14) 
0

>  <r_i_glide_metal>  (14) 
-0

>  <r_i_glide_rewards>  (14) 
-1

>  <r_i_glide_evdw>  (14) 
-35.7403

>  <r_i_glide_ecoul>  (14) 
0.804677

>  <r_i_glide_erotb>  (14) 
0.0393331

>  <r_i_glide_esite>  (14) 
-0.0288202

>  <r_i_glide_emodel>  (14) 
-47.9287

>  <r_i_glide_energy>  (14) 
-34.9357

>  <r_i_glide_einternal>  (14) 
7.04485

>  <r_i_glide_intrahb_reward>  (14) 
-1

>  <i_i_glide_confnum>  (14) 
5

>  <i_i_glide_posenum>  (14) 
1

>  <r_i_glide_eff_state_penalty>  (14) 
0

>  <ligand_id>  (14) 
13

>  <original_smiles>  (14) 
C=C1CC(C)(C)CC2(C1)OC1C34COC3(CCC13C1(CO1)C(C)(OC1(O)CC5(O)OC(C)=CC6(O)C(O)C(C(C)(C)O)C(O)C56C13O)[S+]([O-])O2)O4

>  <smiles>  (14) 
[H]OC1([H])C2(O[H])C([H])=C(C([H])([H])[H])OC3(O[H])C([H])([H])C4(O[H])OC5(C([H])([H])[H])S(=O)OC6(OC7([H])C89OC8(OC9([H])[H])C([H])([H])C([H])([H])C7(C57OC7([H])[H])C4(O[H])C32C([H])(O[H])C1([H])C(O[H])(C([H])([H])[H])C([H])([H])[H])C([H])([H])C(=C([H])[H])C([H])([H])C(C([H])([H])[H])(C([H])([H])[H])C6([H])[H]

$$$$
14:1:0
     RDKit          3D

106114  0  0  1  0  0  0  0  0999 V2000
    7.2029   -9.5625    3.2076 C   0  0  0  0  0  0  0  0  0  0  0  0
    6.8697   -8.1993    2.8187 N   0  0  0  0  0  0  0  0  0  0  0  0
    6.1322   -7.8426    1.7571 C   0  0  0  0  0  0  0  0  0  0  0  0
    5.7677   -8.6394    0.8889 O   0  0  0  0  0  0  0  0  0  0  0  0
    5.9024   -6.3200    1.5928 C   0  0  1  0  0  0  0  0  0  0  0  0
    7.2264   -5.9509    1.1624 O   0  0  0  0  0  0  0  0  0  0  0  0
    4.9408   -5.8102    0.4746 C   0  0  0  0  0  0  0  0  0  0  0  0
    4.5733   -6.5798   -0.4038 O   0  0  0  0  0  0  0  0  0  0  0  0
    4.3019   -4.3967    0.5159 C   0  0  2  0  0  0  0  0  0  0  0  0
    4.0839   -4.0746   -0.8577 O   0  0  0  0  0  0  0  0  0  0  0  0
    5.2961   -3.2045    0.8087 C   0  0  0  0  0  0  0  0  0  0  0  0
    6.4266   -3.3826    1.8451 C   0  0  0  0  0  0  0  0  0  0  0  0
    6.0725   -4.3352    2.9566 C   0  0  0  0  0  0  0  0  0  0  0  0
    5.5233   -5.5465    2.8701 C   0  0  0  0  0  0  0  0  0  0  0  0
    4.3826   -5.7199    3.9452 C   0  0  2  0  0  0  0  0  0  0  0  0
    3.5644   -6.9249    4.1074 O   0  0  0  0  0  0  0  0  0  0  0  0
    3.5352   -7.9998    5.0593 C   0  0  2  0  0  0  0  0  0  0  0  0
    4.8448   -8.5122    5.0689 O   0  0  0  0  0  0  0  0  0  0  0  0
    2.5861   -9.3008    4.4472 C   0  0  1  0  0  0  0  0  0  0  0  0
    2.9224  -10.6496    5.1231 C   0  0  0  0  0  0  0  0  0  0  0  0
    1.0703   -9.3415    4.3877 O   0  0  0  0  0  0  0  0  0  0  0  0
    0.3054   -8.6378    3.3324 C   0  0  1  0  0  0  0  0  0  0  0  0
   -1.0583   -8.4485    3.5514 O   0  0  0  0  0  0  0  0  0  0  0  0
   -1.9293   -9.0054    2.5736 C   0  0  0  0  0  0  0  0  0  0  0  0
    1.1256   -7.3241    3.2969 C   0  0  1  0  0  0  0  0  0  0  0  0
    1.0287   -5.9570    2.4708 C   0  0  0  0  0  0  0  0  0  0  0  0
    2.2193   -4.7840    2.5386 C   0  0  2  0  0  0  0  0  0  0  0  0
    2.7754   -4.4164    1.0670 C   0  0  1  0  0  0  0  0  0  0  0  0
    2.2091   -3.1102    0.7624 O   0  0  0  0  0  0  0  0  0  0  0  0
    3.3089   -4.5073    3.7564 C   0  0  2  0  0  0  0  0  0  0  0  0
    3.7022   -3.2732    3.2142 O   0  0  0  0  0  0  0  0  0  0  0  0
    3.2973   -3.5910    5.1043 C   0  0  1  0  0  0  0  0  0  0  0  0
    3.8130   -2.1658    5.5169 C   0  0  1  0  0  0  0  0  0  0  0  0
    3.1984   -1.0203    4.9474 O   0  0  0  0  0  0  0  0  0  0  0  0
    3.3387   -2.5668    6.9383 C   0  0  1  0  0  0  0  0  0  0  0  0
    2.8765   -1.4584    7.7139 O   0  0  0  0  0  0  0  0  0  0  0  0
    3.9188   -0.6512    8.2603 C   0  0  0  0  0  0  0  0  0  0  0  0
    2.2872   -3.4783    6.2636 C   0  0  1  0  0  0  0  0  0  0  0  0
    1.1617   -2.6412    5.9631 O   0  0  0  0  0  0  0  0  0  0  0  0
    1.8808   -4.8893    6.7631 C   0  0  2  0  0  0  0  0  0  0  0  0
    1.1197   -4.7026    7.9623 O   0  0  0  0  0  0  0  0  0  0  0  0
    3.0817   -5.9241    6.9789 C   0  0  1  0  0  0  0  0  0  0  0  0
    3.3574   -5.7369    8.3698 O   0  0  0  0  0  0  0  0  0  0  0  0
    3.2101   -7.4989    6.5952 C   0  0  2  0  0  0  0  0  0  0  0  0
    4.3823   -7.7701    7.3856 O   0  0  0  0  0  0  0  0  0  0  0  0
    2.2780   -8.4113    7.3549 C   0  0  1  0  0  0  0  0  0  0  0  0
    1.3228   -7.7701    8.1965 O   0  0  0  0  0  0  0  0  0  0  0  0
    0.8153   -8.5289    7.0928 C   0  0  2  0  0  0  0  0  0  0  0  0
    0.0996   -9.7805    7.5010 C   0  0  0  0  0  0  0  0  0  0  0  0
    0.0655   -7.6883    6.0949 C   0  0  0  0  0  0  0  0  0  0  0  0
    0.8036   -6.9553    4.8868 C   0  0  1  0  0  0  0  0  0  0  0  0
    0.8015   -5.2137    5.3195 S   0  0  0  0  0  0  0  0  0  0  0  0
   -0.5848   -4.8395    5.7563 O   0  0  0  0  0  0  0  0  0  0  0  0
    2.1848   -8.1620    2.3640 C   0  0  1  0  0  0  0  0  0  0  0  0
    3.0973   -7.4759    1.6281 O   0  0  0  0  0  0  0  0  0  0  0  0
    2.7814   -9.4540    2.9486 C   0  0  1  0  0  0  0  0  0  0  0  0
    4.0505   -9.8770    2.5442 O   0  0  0  0  0  0  0  0  0  0  0  0
    8.2478   -9.7751    2.9991 H   0  0  0  0  0  0  0  0  0  0  0  0
    6.5949  -10.3108    2.6979 H   0  0  0  0  0  0  0  0  0  0  0  0
    7.0709   -9.6888    4.2805 H   0  0  0  0  0  0  0  0  0  0  0  0
    7.1678   -7.4684    3.4499 H   0  0  0  0  0  0  0  0  0  0  0  0
    7.8809   -6.2767    1.7679 H   0  0  0  0  0  0  0  0  0  0  0  0
    3.7381   -3.2063   -0.9306 H   0  0  0  0  0  0  0  0  0  0  0  0
    5.8378   -2.9230   -0.0971 H   0  0  0  0  0  0  0  0  0  0  0  0
    4.7284   -2.3194    1.0783 H   0  0  0  0  0  0  0  0  0  0  0  0
    7.4111   -3.5841    1.3961 H   0  0  0  0  0  0  0  0  0  0  0  0
    6.5097   -2.4131    2.3216 H   0  0  0  0  0  0  0  0  0  0  0  0
    5.9022   -3.8237    3.8585 H   0  0  0  0  0  0  0  0  0  0  0  0
    4.9782   -5.6729    4.8622 H   0  0  0  0  0  0  0  0  0  0  0  0
    4.8036   -9.4066    5.3415 H   0  0  0  0  0  0  0  0  0  0  0  0
    3.9879  -10.8955    5.1216 H   0  0  0  0  0  0  0  0  0  0  0  0
    2.4357  -11.4672    4.5989 H   0  0  0  0  0  0  0  0  0  0  0  0
    2.5578  -10.7218    6.1391 H   0  0  0  0  0  0  0  0  0  0  0  0
    0.3060   -9.3314    2.4878 H   0  0  0  0  0  0  0  0  0  0  0  0
   -2.9625   -8.8599    2.8708 H   0  0  0  0  0  0  0  0  0  0  0  0
   -1.7750  -10.0722    2.4056 H   0  0  0  0  0  0  0  0  0  0  0  0
   -1.7790   -8.4743    1.6373 H   0  0  0  0  0  0  0  0  0  0  0  0
    0.8321   -6.2394    1.4440 H   0  0  0  0  0  0  0  0  0  0  0  0
    0.0895   -5.4933    2.7498 H   0  0  0  0  0  0  0  0  0  0  0  0
    1.5458   -3.9360    2.7346 H   0  0  0  0  0  0  0  0  0  0  0  0
    2.2788   -5.1006    0.3802 H   0  0  0  0  0  0  0  0  0  0  0  0
    2.1824   -3.0281   -0.1716 H   0  0  0  0  0  0  0  0  0  0  0  0
    3.9804   -3.3781    2.3214 H   0  0  0  0  0  0  0  0  0  0  0  0
    4.2145   -3.9750    5.4926 H   0  0  0  0  0  0  0  0  0  0  0  0
    4.8935   -2.0633    5.4678 H   0  0  0  0  0  0  0  0  0  0  0  0
    3.6510   -0.2698    5.3022 H   0  0  0  0  0  0  0  0  0  0  0  0
    4.0829   -3.1509    7.4795 H   0  0  0  0  0  0  0  0  0  0  0  0
    3.5047    0.2148    8.7881 H   0  0  0  0  0  0  0  0  0  0  0  0
    4.5814   -0.2721    7.4863 H   0  0  0  0  0  0  0  0  0  0  0  0
    4.5245   -1.2117    8.9719 H   0  0  0  0  0  0  0  0  0  0  0  0
    1.5775   -1.8693    5.5984 H   0  0  0  0  0  0  0  0  0  0  0  0
    1.1204   -5.5254    8.4237 H   0  0  0  0  0  0  0  0  0  0  0  0
    3.9789   -5.5129    6.6137 H   0  0  0  0  0  0  0  0  0  0  0  0
    2.7745   -6.2860    8.8654 H   0  0  0  0  0  0  0  0  0  0  0  0
    4.5461   -8.6964    7.3917 H   0  0  0  0  0  0  0  0  0  0  0  0
    2.7315   -9.2982    7.7875 H   0  0  0  0  0  0  0  0  0  0  0  0
    0.0204  -10.4980    6.6728 H   0  0  0  0  0  0  0  0  0  0  0  0
   -0.8985   -9.5276    7.8624 H   0  0  0  0  0  0  0  0  0  0  0  0
    0.6450  -10.2353    8.3295 H   0  0  0  0  0  0  0  0  0  0  0  0
   -0.7454   -8.3414    5.7633 H   0  0  0  0  0  0  0  0  0  0  0  0
   -0.4351   -6.9531    6.7250 H   0  0  0  0  0  0  0  0  0  0  0  0
   -0.2001   -6.6865    4.5672 H   0  0  0  0  0  0  0  0  0  0  0  0
    1.6881   -8.4519    1.4306 H   0  0  0  0  0  0  0  0  0  0  0  0
    3.6300   -8.0999    1.1523 H   0  0  0  0  0  0  0  0  0  0  0  0
    2.1765  -10.3023    2.6001 H   0  0  0  0  0  0  0  0  0  0  0  0
    3.9680  -10.6000    1.9334 H   0  0  0  0  0  0  0  0  0  0  0  0
  1  2  1  0
  1 58  1  0
  1 59  1  0
  1 60  1  0
  2  3  1  0
  2 61  1  0
  3  4  2  0
  3  5  1  0
  5 14  1  0
  5  6  1  6
  5  7  1  0
  6 62  1  0
  7  8  2  0
  7  9  1  0
  9 28  1  0
  9 10  1  6
  9 11  1  0
 10 63  1  0
 11 12  1  0
 11 64  1  0
 11 65  1  0
 12 13  1  0
 12 66  1  0
 12 67  1  0
 13 14  2  0
 13 68  1  0
 14 15  1  0
 15 30  1  0
 15 16  1  0
 15 69  1  1
 16 17  1  0
 17 44  1  0
 17 18  1  1
 17 19  1  0
 18 70  1  0
 19 56  1  0
 19 20  1  1
 19 21  1  0
 20 71  1  0
 20 72  1  0
 20 73  1  0
 21 22  1  0
 22 23  1  0
 22 25  1  0
 22 74  1  6
 23 24  1  0
 24 75  1  0
 24 76  1  0
 24 77  1  0
 25 51  1  0
 25 26  1  6
 25 54  1  0
 26 27  1  0
 26 78  1  0
 26 79  1  0
 27 28  1  0
 27 30  1  0
 27 80  1  1
 28 29  1  0
 28 81  1  6
 29 82  1  0
 30 31  1  6
 30 32  1  0
 31 83  1  0
 32 38  1  0
 32 33  1  0
 32 84  1  1
 33 34  1  0
 33 35  1  0
 33 85  1  1
 34 86  1  0
 35 36  1  0
 35 38  1  0
 35 87  1  1
 36 37  1  0
 37 88  1  0
 37 89  1  0
 37 90  1  0
 38 39  1  6
 38 40  1  0
 39 91  1  0
 52 40  1  1
 40 41  1  1
 40 42  1  0
 41 92  1  0
 42 43  1  0
 42 44  1  0
 42 93  1  6
 43 94  1  0
 44 45  1  1
 44 46  1  0
 45 95  1  0
 46 48  1  0
 46 47  1  0
 46 96  1  1
 47 48  1  0
 48 49  1  1
 48 50  1  0
 49 97  1  0
 49 98  1  0
 49 99  1  0
 50 51  1  0
 50100  1  0
 50101  1  0
 51 52  1  0
 51102  1  1
 52 53  2  0
 54 55  1  0
 54 56  1  0
 54103  1  6
 55104  1  0
 56 57  1  0
 56105  1  6
 57106  1  0
M  END
>  <i_m_ct_stereo_status>  (15) 
1

>  <s_m_source_file>  (15) 
/var/tmp/pbs.5075288.sched01/tmpzl_yb0kw/0ymjshsm9.sdf

>  <i_m_source_file_index>  (15) 
49

>  <i_lp_mmshare_version>  (15) 
48012

>  <i_f3d_flags>  (15) 
0

>  <s_epik_input>  (15) 
W09IXVtDQEhdMVtDQEBIXShPW0NIM10pW0NAXShbT0hdKShbQ0BAXShbT0hdKShbUytdMltPLV0pW0NASF0zW09IXSlbQ0BIXTFbQ0BdNChbT0hdKVtDQEhdKFtDSDJdNSlbQ0BASF0oW09IXSlbQ0BdKFtPSF0pKEMoPU8pW0NAXTYoW09IXSlDKD1PKVtOSF1bQ0gzXSlbQ0gyXVtDSDJdW0NIXT1DNltDQEBIXTRPW0NAXShbT0hdKShbQ0BdKFtDSDNdKShbQ0BIXShbT0hdKVtDQEBIXTdbT0hdKU9bQ0BIXThPW0NIM10pW0NAXTMoW09IXSlbQ0BASF0oTzkpW0NAXTkoW0NIM10pW0NIMl1bQ0BASF0yQzU3OA==

>  <s_epik_cmdline>  (15) 
J2VwaWtfcHl0aG9uJywgJy1waHQnLCAnMi4wJywgJy1waCcsICc3LjAnLCAnLXRuJywgJzgnLCAnLW1hJywgJzIwMCcsICctaW1hZScsICc8aW5maWxlLm1hZT4nLCAnLW9tYWUnLCAnPG91dGZpbGUubWFlPic=

>  <r_lp_tautomer_probability>  (15) 
1

>  <r_epik_Ionization_Penalty>  (15) 
1.40957e-05

>  <r_epik_Ionization_Penalty_Charging>  (15) 
0

>  <r_epik_Ionization_Penalty_Neutral>  (15) 
1.40957e-05

>  <r_epik_State_Penalty>  (15) 
0

>  <r_epik_Charging_Adjusted_Penalty>  (15) 
0

>  <i_epik_Tot_Q>  (15) 
0

>  <i_epik_Tot_abs_Q>  (15) 
2

>  <s_epik_Chemistry_Notes>  (15) 
This compound contains an acetal/aminal-like group ( X-CH(R)-Y where X, Y are N, S, or O) that may be acid/base labile, releasing an aldehyde.

>  <s_lp_Force_Field>  (15) 
OPLS3e

>  <r_lp_Energy>  (15) 
547.995

>  <b_lp_Chiralities_Consistent>  (15) 
1

>  <s_lp_Variant>  (15) 
14:0-2

>  <s_i_glide_gridfile>  (15) 
pfpi4k_grid

>  <i_i_glide_lignum>  (15) 
49

>  <i_i_glide_rotatable_bonds>  (15) 
16

>  <r_i_docking_score>  (15) 
-3.53914

>  <r_i_glide_ligand_efficiency>  (15) 
-0.0620902

>  <r_i_glide_ligand_efficiency_sa>  (15) 
-0.238954

>  <r_i_glide_ligand_efficiency_ln>  (15) 
-0.701786

>  <r_i_glide_gscore>  (15) 
-3.53914

>  <r_i_glide_lipo>  (15) 
-0.426503

>  <r_i_glide_hbond>  (15) 
0

>  <r_i_glide_metal>  (15) 
-0

>  <r_i_glide_rewards>  (15) 
-1.77721

>  <r_i_glide_evdw>  (15) 
-19.2302

>  <r_i_glide_ecoul>  (15) 
-2.49351

>  <r_i_glide_erotb>  (15) 
0.0313225

>  <r_i_glide_esite>  (15) 
-0.0312109

>  <r_i_glide_emodel>  (15) 
-33.5924

>  <r_i_glide_energy>  (15) 
-21.7237

>  <r_i_glide_einternal>  (15) 
10.545

>  <r_i_glide_intrahb_reward>  (15) 
-1.5

>  <i_i_glide_confnum>  (15) 
4

>  <i_i_glide_posenum>  (15) 
21

>  <r_i_glide_eff_state_penalty>  (15) 
0

>  <ligand_id>  (15) 
14

>  <original_smiles>  (15) 
CNC(=O)C1(O)C(=O)C2(O)CCC=C1C1OC3(O)C4(C)OC(OC)C5(CC(C2O)C1(O)C1C(O)C(OC)C1(O)C1(O)C(O)C3(O)C2OC2(C)CC5[S+]1[O-])C(O)C4O

>  <smiles>  (15) 
[H]OC1(C(=O)N([H])C([H])([H])[H])C(=O)C2(O[H])C([H])([H])C([H])([H])C([H])=C1C1([H])OC3(O[H])C4(C([H])([H])[H])OC([H])(OC([H])([H])[H])C5(C([H])([H])C([H])(C2([H])O[H])C1(O[H])C1([H])C([H])(O[H])C([H])(OC([H])([H])[H])C1(O[H])C1(O[H])S(=O)C5([H])C([H])([H])C2(C([H])([H])[H])OC2([H])C3(O[H])C1([H])O[H])C([H])(O[H])C4([H])O[H]

$$$$
14:1:1
     RDKit          3D

106114  0  0  1  0  0  0  0  0999 V2000
    5.2569  -12.0451    4.2733 C   0  0  0  0  0  0  0  0  0  0  0  0
    5.9300  -10.7307    4.2058 N   0  0  0  0  0  0  0  0  0  0  0  0
    6.5631  -10.1922    3.1656 C   0  0  0  0  0  0  0  0  0  0  0  0
    6.6948  -10.8180    2.0908 O   0  0  0  0  0  0  0  0  0  0  0  0
    7.3097   -8.8544    3.4017 C   0  0  1  0  0  0  0  0  0  0  0  0
    8.5820   -9.4075    3.7238 O   0  0  0  0  0  0  0  0  0  0  0  0
    7.5733   -7.9442    2.1525 C   0  0  0  0  0  0  0  0  0  0  0  0
    7.5100   -8.4149    1.0089 O   0  0  0  0  0  0  0  0  0  0  0  0
    7.8669   -6.4250    2.2957 C   0  0  2  0  0  0  0  0  0  0  0  0
    8.6193   -6.0358    1.1447 O   0  0  0  0  0  0  0  0  0  0  0  0
    8.9739   -6.1282    3.4247 C   0  0  0  0  0  0  0  0  0  0  0  0
    9.0905   -6.8961    4.8107 C   0  0  0  0  0  0  0  0  0  0  0  0
    7.7688   -7.4098    5.3706 C   0  0  0  0  0  0  0  0  0  0  0  0
    6.8134   -7.9719    4.6011 C   0  0  0  0  0  0  0  0  0  0  0  0
    5.3674   -7.3706    4.8406 C   0  0  2  0  0  0  0  0  0  0  0  0
    4.1508   -7.8624    4.1863 O   0  0  0  0  0  0  0  0  0  0  0  0
    2.9587   -8.5784    4.6323 C   0  0  2  0  0  0  0  0  0  0  0  0
    3.4852   -9.7726    5.1106 O   0  0  0  0  0  0  0  0  0  0  0  0
    2.0050   -9.0517    3.2792 C   0  0  1  0  0  0  0  0  0  0  0  0
    1.1189  -10.2808    3.5925 C   0  0  0  0  0  0  0  0  0  0  0  0
    1.0489   -8.1445    2.5446 O   0  0  0  0  0  0  0  0  0  0  0  0
    1.5085   -7.1698    1.5547 C   0  0  1  0  0  0  0  0  0  0  0  0
    0.6621   -6.1869    1.1419 O   0  0  0  0  0  0  0  0  0  0  0  0
   -0.5401   -6.7225    0.6743 C   0  0  0  0  0  0  0  0  0  0  0  0
    2.7643   -6.6389    2.2979 C   0  0  1  0  0  0  0  0  0  0  0  0
    3.8636   -5.5265    1.9670 C   0  0  0  0  0  0  0  0  0  0  0  0
    5.2088   -5.3419    2.9452 C   0  0  2  0  0  0  0  0  0  0  0  0
    6.5555   -5.4804    2.0305 C   0  0  1  0  0  0  0  0  0  0  0  0
    6.9477   -4.1503    1.6582 O   0  0  0  0  0  0  0  0  0  0  0  0
    5.3981   -5.7686    4.5429 C   0  0  2  0  0  0  0  0  0  0  0  0
    6.6100   -5.1138    4.6039 O   0  0  0  0  0  0  0  0  0  0  0  0
    5.1400   -4.9514    5.9284 C   0  0  1  0  0  0  0  0  0  0  0  0
    6.0112   -4.1577    6.9709 C   0  0  1  0  0  0  0  0  0  0  0  0
    6.6590   -2.9471    6.5914 O   0  0  0  0  0  0  0  0  0  0  0  0
    4.6971   -4.0802    7.8024 C   0  0  1  0  0  0  0  0  0  0  0  0
    4.5556   -2.8869    8.5607 O   0  0  0  0  0  0  0  0  0  0  0  0
    5.3638   -2.8623    9.7380 C   0  0  0  0  0  0  0  0  0  0  0  0
    3.8964   -4.1746    6.4629 C   0  0  1  0  0  0  0  0  0  0  0  0
    3.7404   -2.8306    5.9717 O   0  0  0  0  0  0  0  0  0  0  0  0
    2.5888   -5.0045    6.2309 C   0  0  2  0  0  0  0  0  0  0  0  0
    1.5261   -4.3601    6.9100 O   0  0  0  0  0  0  0  0  0  0  0  0
    2.7250   -6.5624    6.6633 C   0  0  1  0  0  0  0  0  0  0  0  0
    2.2451   -6.5075    8.0111 O   0  0  0  0  0  0  0  0  0  0  0  0
    2.1761   -7.8997    5.9412 C   0  0  2  0  0  0  0  0  0  0  0  0
    2.3614   -8.7952    7.0426 O   0  0  0  0  0  0  0  0  0  0  0  0
    0.6757   -8.0114    5.8524 C   0  0  1  0  0  0  0  0  0  0  0  0
   -0.0806   -6.8929    6.3136 O   0  0  0  0  0  0  0  0  0  0  0  0
   -0.1817   -7.2310    4.9189 C   0  0  2  0  0  0  0  0  0  0  0  0
   -1.5276   -7.7959    4.5152 C   0  0  0  0  0  0  0  0  0  0  0  0
    0.3180   -6.1391    4.0142 C   0  0  0  0  0  0  0  0  0  0  0  0
    1.8560   -6.0684    3.5769 C   0  0  1  0  0  0  0  0  0  0  0  0
    2.5111   -4.6308    4.4204 S   0  0  0  0  0  0  0  0  0  0  0  0
    1.6048   -3.4236    4.1550 O   0  0  0  0  0  0  0  0  0  0  0  0
    3.4932   -7.9871    1.7253 C   0  0  1  0  0  0  0  0  0  0  0  0
    4.8526   -8.0434    1.7562 O   0  0  0  0  0  0  0  0  0  0  0  0
    2.8826   -9.3438    2.0980 C   0  0  1  0  0  0  0  0  0  0  0  0
    3.7481  -10.4076    2.2762 O   0  0  0  0  0  0  0  0  0  0  0  0
    5.7947  -12.7449    4.9136 H   0  0  0  0  0  0  0  0  0  0  0  0
    5.1403  -12.4907    3.2838 H   0  0  0  0  0  0  0  0  0  0  0  0
    4.2507  -11.9580    4.6843 H   0  0  0  0  0  0  0  0  0  0  0  0
    5.8582  -10.1505    5.0352 H   0  0  0  0  0  0  0  0  0  0  0  0
    9.2219   -8.7132    3.7620 H   0  0  0  0  0  0  0  0  0  0  0  0
    8.9952   -5.1888    1.3171 H   0  0  0  0  0  0  0  0  0  0  0  0
    9.9726   -6.2655    2.9803 H   0  0  0  0  0  0  0  0  0  0  0  0
    8.9549   -5.0593    3.6393 H   0  0  0  0  0  0  0  0  0  0  0  0
    9.8567   -7.6713    4.7919 H   0  0  0  0  0  0  0  0  0  0  0  0
    9.4897   -6.2020    5.5533 H   0  0  0  0  0  0  0  0  0  0  0  0
    7.4618   -6.8480    6.2351 H   0  0  0  0  0  0  0  0  0  0  0  0
    5.2471   -7.6515    5.8828 H   0  0  0  0  0  0  0  0  0  0  0  0
    3.8482   -9.5661    5.9508 H   0  0  0  0  0  0  0  0  0  0  0  0
    1.6850  -11.1129    4.0108 H   0  0  0  0  0  0  0  0  0  0  0  0
    0.6710  -10.6580    2.6710 H   0  0  0  0  0  0  0  0  0  0  0  0
    0.2875  -10.0708    4.2605 H   0  0  0  0  0  0  0  0  0  0  0  0
    1.6125   -7.6829    0.6043 H   0  0  0  0  0  0  0  0  0  0  0  0
   -1.0992   -5.8586    0.4393 H   0  0  0  0  0  0  0  0  0  0  0  0
   -1.0357   -7.3412    1.4578 H   0  0  0  0  0  0  0  0  0  0  0  0
   -0.4335   -7.2841   -0.2402 H   0  0  0  0  0  0  0  0  0  0  0  0
    4.1772   -5.6875    0.9328 H   0  0  0  0  0  0  0  0  0  0  0  0
    3.3779   -4.5558    1.8598 H   0  0  0  0  0  0  0  0  0  0  0  0
    5.1307   -4.2622    3.0741 H   0  0  0  0  0  0  0  0  0  0  0  0
    6.2062   -5.9028    1.0864 H   0  0  0  0  0  0  0  0  0  0  0  0
    7.6524   -4.2360    1.0510 H   0  0  0  0  0  0  0  0  0  0  0  0
    7.0282   -5.3177    5.4220 H   0  0  0  0  0  0  0  0  0  0  0  0
    5.3025   -5.8192    6.5603 H   0  0  0  0  0  0  0  0  0  0  0  0
    6.7621   -4.7707    7.4835 H   0  0  0  0  0  0  0  0  0  0  0  0
    6.0873   -2.4238    6.0613 H   0  0  0  0  0  0  0  0  0  0  0  0
    4.5668   -4.9608    8.4355 H   0  0  0  0  0  0  0  0  0  0  0  0
    5.2652   -1.9019   10.2477 H   0  0  0  0  0  0  0  0  0  0  0  0
    6.4223   -3.0012    9.5131 H   0  0  0  0  0  0  0  0  0  0  0  0
    5.0601   -3.6377   10.4427 H   0  0  0  0  0  0  0  0  0  0  0  0
    4.4968   -2.3555    6.2422 H   0  0  0  0  0  0  0  0  0  0  0  0
    1.8951   -3.8956    7.6411 H   0  0  0  0  0  0  0  0  0  0  0  0
    3.7310   -6.8069    6.9091 H   0  0  0  0  0  0  0  0  0  0  0  0
    1.3078   -6.3705    7.9398 H   0  0  0  0  0  0  0  0  0  0  0  0
    2.0543   -9.6553    6.7909 H   0  0  0  0  0  0  0  0  0  0  0  0
    0.2600   -8.9707    6.1485 H   0  0  0  0  0  0  0  0  0  0  0  0
   -1.4867   -8.2991    3.5473 H   0  0  0  0  0  0  0  0  0  0  0  0
   -2.2760   -7.0079    4.4760 H   0  0  0  0  0  0  0  0  0  0  0  0
   -1.8530   -8.5454    5.2375 H   0  0  0  0  0  0  0  0  0  0  0  0
   -0.3538   -6.1219    3.1769 H   0  0  0  0  0  0  0  0  0  0  0  0
    0.0316   -5.2164    4.5221 H   0  0  0  0  0  0  0  0  0  0  0  0
    1.5695   -5.2461    2.9276 H   0  0  0  0  0  0  0  0  0  0  0  0
    3.5435   -7.9534    0.6325 H   0  0  0  0  0  0  0  0  0  0  0  0
    5.0756   -8.2450    2.6548 H   0  0  0  0  0  0  0  0  0  0  0  0
    2.2503   -9.6790    1.2740 H   0  0  0  0  0  0  0  0  0  0  0  0
    3.8419  -10.9009    1.4596 H   0  0  0  0  0  0  0  0  0  0  0  0
  1  2  1  0
  1 58  1  0
  1 59  1  0
  1 60  1  0
  2  3  1  0
  2 61  1  0
  3  4  2  0
  3  5  1  0
  5 14  1  0
  5  6  1  1
  5  7  1  0
  6 62  1  0
  7  8  2  0
  7  9  1  0
  9 28  1  0
  9 10  1  6
  9 11  1  0
 10 63  1  0
 11 12  1  0
 11 64  1  0
 11 65  1  0
 12 13  1  0
 12 66  1  0
 12 67  1  0
 13 14  2  0
 13 68  1  0
 14 15  1  0
 15 30  1  0
 15 16  1  0
 15 69  1  1
 16 17  1  0
 17 44  1  0
 17 18  1  1
 17 19  1  0
 18 70  1  0
 19 56  1  0
 19 20  1  1
 19 21  1  0
 20 71  1  0
 20 72  1  0
 20 73  1  0
 21 22  1  0
 22 23  1  0
 22 25  1  0
 22 74  1  6
 23 24  1  0
 24 75  1  0
 24 76  1  0
 24 77  1  0
 25 51  1  0
 25 26  1  6
 25 54  1  0
 26 27  1  0
 26 78  1  0
 26 79  1  0
 27 28  1  0
 27 30  1  0
 27 80  1  1
 28 29  1  0
 28 81  1  6
 29 82  1  0
 30 31  1  6
 30 32  1  0
 31 83  1  0
 32 38  1  0
 32 33  1  0
 32 84  1  1
 33 34  1  0
 33 35  1  0
 33 85  1  1
 34 86  1  0
 35 36  1  0
 35 38  1  0
 35 87  1  1
 36 37  1  0
 37 88  1  0
 37 89  1  0
 37 90  1  0
 38 39  1  6
 38 40  1  0
 39 91  1  0
 52 40  1  1
 40 41  1  1
 40 42  1  0
 41 92  1  0
 42 43  1  0
 42 44  1  0
 42 93  1  1
 43 94  1  0
 44 45  1  1
 44 46  1  0
 45 95  1  0
 46 48  1  0
 46 47  1  0
 46 96  1  1
 47 48  1  0
 48 49  1  6
 48 50  1  0
 49 97  1  0
 49 98  1  0
 49 99  1  0
 50 51  1  0
 50100  1  0
 50101  1  0
 51 52  1  0
 51102  1  1
 52 53  2  0
 54 55  1  0
 54 56  1  0
 54103  1  6
 55104  1  0
 56 57  1  0
 56105  1  6
 57106  1  0
M  END
>  <i_m_ct_stereo_status>  (16) 
1

>  <s_m_source_file>  (16) 
/var/tmp/pbs.5075288.sched01/tmpzl_yb0kw/0ymjshsm9.sdf

>  <i_m_source_file_index>  (16) 
49

>  <i_lp_mmshare_version>  (16) 
48012

>  <i_f3d_flags>  (16) 
0

>  <s_epik_input>  (16) 
W09IXVtDQEhdMVtDQEBIXShPW0NIM10pW0NAXShbT0hdKShbQ0BAXShbT0hdKShbUytdMltPLV0pW0NASF0zW09IXSlbQ0BIXTFbQ0BdNChbT0hdKVtDQEhdKFtDSDJdNSlbQ0BASF0oW09IXSlbQ0BdKFtPSF0pKEMoPU8pW0NAXTYoW09IXSlDKD1PKVtOSF1bQ0gzXSlbQ0gyXVtDSDJdW0NIXT1DNltDQEBIXTRPW0NAXShbT0hdKShbQ0BdKFtDSDNdKShbQ0BIXShbT0hdKVtDQEBIXTdbT0hdKU9bQ0BIXThPW0NIM10pW0NAXTMoW09IXSlbQ0BASF0oTzkpW0NAXTkoW0NIM10pW0NIMl1bQ0BASF0yQzU3OA==

>  <s_epik_cmdline>  (16) 
J2VwaWtfcHl0aG9uJywgJy1waHQnLCAnMi4wJywgJy1waCcsICc3LjAnLCAnLXRuJywgJzgnLCAnLW1hJywgJzIwMCcsICctaW1hZScsICc8aW5maWxlLm1hZT4nLCAnLW9tYWUnLCAnPG91dGZpbGUubWFlPic=

>  <r_lp_tautomer_probability>  (16) 
1

>  <r_epik_Ionization_Penalty>  (16) 
1.40957e-05

>  <r_epik_Ionization_Penalty_Charging>  (16) 
0

>  <r_epik_Ionization_Penalty_Neutral>  (16) 
1.40957e-05

>  <r_epik_State_Penalty>  (16) 
0

>  <r_epik_Charging_Adjusted_Penalty>  (16) 
0

>  <i_epik_Tot_Q>  (16) 
0

>  <i_epik_Tot_abs_Q>  (16) 
2

>  <s_epik_Chemistry_Notes>  (16) 
This compound contains an acetal/aminal-like group ( X-CH(R)-Y where X, Y are N, S, or O) that may be acid/base labile, releasing an aldehyde.

>  <s_lp_Force_Field>  (16) 
OPLS3e

>  <r_lp_Energy>  (16) 
547.995

>  <b_lp_Chiralities_Consistent>  (16) 
1

>  <s_lp_Variant>  (16) 
14:0-2

>  <s_i_glide_gridfile>  (16) 
pfpi4k_grid

>  <i_i_glide_lignum>  (16) 
49

>  <i_i_glide_rotatable_bonds>  (16) 
16

>  <r_i_docking_score>  (16) 
-3.20333

>  <r_i_glide_ligand_efficiency>  (16) 
-0.0561988

>  <r_i_glide_ligand_efficiency_sa>  (16) 
-0.216281

>  <r_i_glide_ligand_efficiency_ln>  (16) 
-0.635197

>  <r_i_glide_gscore>  (16) 
-3.20333

>  <r_i_glide_lipo>  (16) 
-0.185888

>  <r_i_glide_hbond>  (16) 
-0.16

>  <r_i_glide_metal>  (16) 
-0

>  <r_i_glide_rewards>  (16) 
-1

>  <r_i_glide_evdw>  (16) 
-16.9389

>  <r_i_glide_ecoul>  (16) 
-8.4106

>  <r_i_glide_erotb>  (16) 
0.0313225

>  <r_i_glide_esite>  (16) 
-0.0595595

>  <r_i_glide_emodel>  (16) 
-33.2696

>  <r_i_glide_energy>  (16) 
-25.3495

>  <r_i_glide_einternal>  (16) 
1.83983

>  <r_i_glide_intrahb_reward>  (16) 
-1

>  <i_i_glide_confnum>  (16) 
2

>  <i_i_glide_posenum>  (16) 
40

>  <r_i_glide_eff_state_penalty>  (16) 
0

>  <ligand_id>  (16) 
14

>  <original_smiles>  (16) 
CNC(=O)C1(O)C(=O)C2(O)CCC=C1C1OC3(O)C4(C)OC(OC)C5(CC(C2O)C1(O)C1C(O)C(OC)C1(O)C1(O)C(O)C3(O)C2OC2(C)CC5[S+]1[O-])C(O)C4O

>  <smiles>  (16) 
[H]OC1(C(=O)N([H])C([H])([H])[H])C(=O)C2(O[H])C([H])([H])C([H])([H])C([H])=C1C1([H])OC3(O[H])C4(C([H])([H])[H])OC([H])(OC([H])([H])[H])C5(C([H])([H])C([H])(C2([H])O[H])C1(O[H])C1([H])C([H])(O[H])C([H])(OC([H])([H])[H])C1(O[H])C1(O[H])S(=O)C5([H])C([H])([H])C2(C([H])([H])[H])OC2([H])C3(O[H])C1([H])O[H])C([H])(O[H])C4([H])O[H]

$$$$
14:1:2
     RDKit          3D

106114  0  0  1  0  0  0  0  0999 V2000
    6.7326  -10.3891    3.3709 C   0  0  0  0  0  0  0  0  0  0  0  0
    6.4486   -8.9971    3.0191 N   0  0  0  0  0  0  0  0  0  0  0  0
    5.9274   -8.5629    1.8729 C   0  0  0  0  0  0  0  0  0  0  0  0
    5.6383   -9.3315    0.9485 O   0  0  0  0  0  0  0  0  0  0  0  0
    5.8942   -7.0381    1.6888 C   0  0  1  0  0  0  0  0  0  0  0  0
    7.1813   -6.8776    1.0886 O   0  0  0  0  0  0  0  0  0  0  0  0
    4.9192   -6.4614    0.6295 C   0  0  0  0  0  0  0  0  0  0  0  0
    4.5291   -7.1864   -0.2775 O   0  0  0  0  0  0  0  0  0  0  0  0
    4.4179   -4.9842    0.6515 C   0  0  2  0  0  0  0  0  0  0  0  0
    4.0855   -4.6641   -0.6738 O   0  0  0  0  0  0  0  0  0  0  0  0
    5.5991   -3.9304    0.8075 C   0  0  0  0  0  0  0  0  0  0  0  0
    6.8462   -4.2048    1.7062 C   0  0  0  0  0  0  0  0  0  0  0  0
    6.5731   -5.0796    2.9423 C   0  0  0  0  0  0  0  0  0  0  0  0
    5.7951   -6.1648    2.9526 C   0  0  0  0  0  0  0  0  0  0  0  0
    4.7241   -6.1439    4.1205 C   0  0  2  0  0  0  0  0  0  0  0  0
    3.7865   -7.2225    4.4057 O   0  0  0  0  0  0  0  0  0  0  0  0
    3.6879   -8.2376    5.4381 C   0  0  2  0  0  0  0  0  0  0  0  0
    4.8927   -8.9390    5.3636 O   0  0  0  0  0  0  0  0  0  0  0  0
    2.5174   -9.4141    4.9696 C   0  0  1  0  0  0  0  0  0  0  0  0
    2.7615  -10.7664    5.6764 C   0  0  0  0  0  0  0  0  0  0  0  0
    1.0148   -9.2499    5.1070 O   0  0  0  0  0  0  0  0  0  0  0  0
    0.2229   -8.4859    4.1305 C   0  0  1  0  0  0  0  0  0  0  0  0
   -1.0807   -8.1215    4.5020 O   0  0  0  0  0  0  0  0  0  0  0  0
   -1.9030   -7.6700    3.4376 C   0  0  0  0  0  0  0  0  0  0  0  0
    1.2069   -7.2942    3.9260 C   0  0  1  0  0  0  0  0  0  0  0  0
    1.1850   -5.9482    3.0533 C   0  0  0  0  0  0  0  0  0  0  0  0
    2.5379   -4.9597    2.9370 C   0  0  2  0  0  0  0  0  0  0  0  0
    2.9708   -4.7610    1.3669 C   0  0  1  0  0  0  0  0  0  0  0  0
    2.5830   -3.4258    1.0647 O   0  0  0  0  0  0  0  0  0  0  0  0
    3.8116   -4.8030    3.9812 C   0  0  2  0  0  0  0  0  0  0  0  0
    4.3419   -3.6825    3.3290 O   0  0  0  0  0  0  0  0  0  0  0  0
    4.0661   -3.8578    5.2778 C   0  0  1  0  0  0  0  0  0  0  0  0
    4.8172   -2.5075    5.5595 C   0  0  1  0  0  0  0  0  0  0  0  0
    4.3169   -1.3074    4.9931 O   0  0  0  0  0  0  0  0  0  0  0  0
    4.4699   -2.7872    7.0479 C   0  0  1  0  0  0  0  0  0  0  0  0
    4.2579   -1.5975    7.8093 O   0  0  0  0  0  0  0  0  0  0  0  0
    5.4595   -0.9307    8.1889 C   0  0  0  0  0  0  0  0  0  0  0  0
    3.2074   -3.5494    6.5319 C   0  0  1  0  0  0  0  0  0  0  0  0
    2.1994   -2.5692    6.3166 O   0  0  0  0  0  0  0  0  0  0  0  0
    2.6347   -4.8614    7.1463 C   0  0  2  0  0  0  0  0  0  0  0  0
    2.0787   -4.5329    8.4062 O   0  0  0  0  0  0  0  0  0  0  0  0
    3.7270   -6.0489    7.2872 C   0  0  1  0  0  0  0  0  0  0  0  0
    4.2159   -5.8376    8.6212 O   0  0  0  0  0  0  0  0  0  0  0  0
    3.6218   -7.6364    6.9836 C   0  0  2  0  0  0  0  0  0  0  0  0
    4.8084   -8.0463    7.6732 O   0  0  0  0  0  0  0  0  0  0  0  0
    2.6738   -8.3906    7.8845 C   0  0  1  0  0  0  0  0  0  0  0  0
    1.9197   -7.6104    8.8041 O   0  0  0  0  0  0  0  0  0  0  0  0
    1.2025   -8.3248    7.7930 C   0  0  2  0  0  0  0  0  0  0  0  0
    0.3681   -9.4671    8.3362 C   0  0  0  0  0  0  0  0  0  0  0  0
    0.4423   -7.4284    6.8507 C   0  0  0  0  0  0  0  0  0  0  0  0
    1.1187   -6.8230    5.5265 C   0  0  1  0  0  0  0  0  0  0  0  0
    1.3274   -5.0692    5.8510 S   0  0  0  0  0  0  0  0  0  0  0  0
   -0.0079   -4.4839    6.3305 O   0  0  0  0  0  0  0  0  0  0  0  0
    2.0158   -8.3016    2.9121 C   0  0  1  0  0  0  0  0  0  0  0  0
    2.9218   -7.7792    2.0188 O   0  0  0  0  0  0  0  0  0  0  0  0
    2.5161   -9.6404    3.4773 C   0  0  1  0  0  0  0  0  0  0  0  0
    3.6694  -10.2160    2.9215 O   0  0  0  0  0  0  0  0  0  0  0  0
    7.8074  -10.5621    3.4176 H   0  0  0  0  0  0  0  0  0  0  0  0
    6.2717  -11.0957    2.6763 H   0  0  0  0  0  0  0  0  0  0  0  0
    6.3338  -10.6246    4.3550 H   0  0  0  0  0  0  0  0  0  0  0  0
    6.5538   -8.2994    3.7465 H   0  0  0  0  0  0  0  0  0  0  0  0
    7.8476   -7.2639    1.6442 H   0  0  0  0  0  0  0  0  0  0  0  0
    3.8607   -3.7500   -0.7543 H   0  0  0  0  0  0  0  0  0  0  0  0
    6.0444   -3.7429   -0.1773 H   0  0  0  0  0  0  0  0  0  0  0  0
    5.1841   -2.9524    1.0696 H   0  0  0  0  0  0  0  0  0  0  0  0
    7.6990   -4.5544    1.1168 H   0  0  0  0  0  0  0  0  0  0  0  0
    7.1432   -3.2362    2.0592 H   0  0  0  0  0  0  0  0  0  0  0  0
    6.5411   -4.5501    3.8709 H   0  0  0  0  0  0  0  0  0  0  0  0
    5.4067   -6.1590    4.9637 H   0  0  0  0  0  0  0  0  0  0  0  0
    4.6833   -9.8459    5.5616 H   0  0  0  0  0  0  0  0  0  0  0  0
    3.7618  -11.1726    5.5531 H   0  0  0  0  0  0  0  0  0  0  0  0
    2.0830  -11.5325    5.2877 H   0  0  0  0  0  0  0  0  0  0  0  0
    2.5588  -10.6914    6.7340 H   0  0  0  0  0  0  0  0  0  0  0  0
   -0.0200   -9.1740    3.3172 H   0  0  0  0  0  0  0  0  0  0  0  0
   -2.9058   -7.4577    3.8051 H   0  0  0  0  0  0  0  0  0  0  0  0
   -1.9958   -8.4122    2.6403 H   0  0  0  0  0  0  0  0  0  0  0  0
   -1.5156   -6.7411    3.0262 H   0  0  0  0  0  0  0  0  0  0  0  0
    0.8503   -6.2347    2.0591 H   0  0  0  0  0  0  0  0  0  0  0  0
    0.3468   -5.3330    3.3772 H   0  0  0  0  0  0  0  0  0  0  0  0
    2.0223   -4.0257    3.1623 H   0  0  0  0  0  0  0  0  0  0  0  0
    2.3052   -5.4043    0.7971 H   0  0  0  0  0  0  0  0  0  0  0  0
    2.4789   -3.3434    0.1206 H   0  0  0  0  0  0  0  0  0  0  0  0
    4.4594   -3.8719    2.4097 H   0  0  0  0  0  0  0  0  0  0  0  0
    4.9680   -4.3592    5.5875 H   0  0  0  0  0  0  0  0  0  0  0  0
    5.8942   -2.5573    5.3806 H   0  0  0  0  0  0  0  0  0  0  0  0
    4.9145   -0.6145    5.2368 H   0  0  0  0  0  0  0  0  0  0  0  0
    5.1855   -3.4486    7.5330 H   0  0  0  0  0  0  0  0  0  0  0  0
    5.2318   -0.0002    8.7128 H   0  0  0  0  0  0  0  0  0  0  0  0
    6.0727   -0.6734    7.3245 H   0  0  0  0  0  0  0  0  0  0  0  0
    6.0616   -1.5455    8.8582 H   0  0  0  0  0  0  0  0  0  0  0  0
    2.6682   -1.8534    5.9063 H   0  0  0  0  0  0  0  0  0  0  0  0
    2.1037   -5.3207    8.9332 H   0  0  0  0  0  0  0  0  0  0  0  0
    4.6396   -5.7947    6.7980 H   0  0  0  0  0  0  0  0  0  0  0  0
    3.6336   -6.3078    9.2130 H   0  0  0  0  0  0  0  0  0  0  0  0
    4.9019   -8.9851    7.6002 H   0  0  0  0  0  0  0  0  0  0  0  0
    3.0514   -9.3262    8.2992 H   0  0  0  0  0  0  0  0  0  0  0  0
    0.0765  -10.1564    7.5389 H   0  0  0  0  0  0  0  0  0  0  0  0
   -0.5114   -9.0613    8.8268 H   0  0  0  0  0  0  0  0  0  0  0  0
    0.9479  -10.0486    9.0557 H   0  0  0  0  0  0  0  0  0  0  0  0
   -0.4503   -7.9845    6.6284 H   0  0  0  0  0  0  0  0  0  0  0  0
    0.0766   -6.6207    7.4890 H   0  0  0  0  0  0  0  0  0  0  0  0
    0.1278   -6.4420    5.2914 H   0  0  0  0  0  0  0  0  0  0  0  0
    1.3633   -8.5670    2.0731 H   0  0  0  0  0  0  0  0  0  0  0  0
    3.2776   -8.5004    1.5073 H   0  0  0  0  0  0  0  0  0  0  0  0
    1.7695  -10.4109    3.2548 H   0  0  0  0  0  0  0  0  0  0  0  0
    3.4472  -10.7920    2.1948 H   0  0  0  0  0  0  0  0  0  0  0  0
  1  2  1  0
  1 58  1  0
  1 59  1  0
  1 60  1  0
  2  3  1  0
  2 61  1  0
  3  4  2  0
  3  5  1  0
  5 14  1  0
  5  6  1  6
  5  7  1  0
  6 62  1  0
  7  8  2  0
  7  9  1  0
  9 28  1  0
  9 10  1  6
  9 11  1  0
 10 63  1  0
 11 12  1  0
 11 64  1  0
 11 65  1  0
 12 13  1  0
 12 66  1  0
 12 67  1  0
 13 14  2  0
 13 68  1  0
 14 15  1  0
 15 30  1  0
 15 16  1  0
 15 69  1  1
 16 17  1  0
 17 44  1  0
 17 18  1  1
 17 19  1  0
 18 70  1  0
 19 56  1  0
 19 20  1  1
 19 21  1  0
 20 71  1  0
 20 72  1  0
 20 73  1  0
 21 22  1  0
 22 23  1  0
 22 25  1  0
 22 74  1  6
 23 24  1  0
 24 75  1  0
 24 76  1  0
 24 77  1  0
 25 51  1  0
 25 26  1  6
 25 54  1  0
 26 27  1  0
 26 78  1  0
 26 79  1  0
 27 28  1  0
 27 30  1  0
 27 80  1  1
 28 29  1  0
 28 81  1  6
 29 82  1  0
 30 31  1  6
 30 32  1  0
 31 83  1  0
 32 38  1  0
 32 33  1  0
 32 84  1  1
 33 34  1  0
 33 35  1  0
 33 85  1  1
 34 86  1  0
 35 36  1  0
 35 38  1  0
 35 87  1  1
 36 37  1  0
 37 88  1  0
 37 89  1  0
 37 90  1  0
 38 39  1  6
 38 40  1  0
 39 91  1  0
 52 40  1  1
 40 41  1  1
 40 42  1  0
 41 92  1  0
 42 43  1  0
 42 44  1  0
 42 93  1  6
 43 94  1  0
 44 45  1  1
 44 46  1  0
 45 95  1  0
 46 48  1  0
 46 47  1  0
 46 96  1  1
 47 48  1  0
 48 49  1  1
 48 50  1  0
 49 97  1  0
 49 98  1  0
 49 99  1  0
 50 51  1  0
 50100  1  0
 50101  1  0
 51 52  1  0
 51102  1  1
 52 53  2  0
 54 55  1  0
 54 56  1  0
 54103  1  6
 55104  1  0
 56 57  1  0
 56105  1  1
 57106  1  0
M  END
>  <i_m_ct_stereo_status>  (17) 
1

>  <s_m_source_file>  (17) 
/var/tmp/pbs.5075288.sched01/tmpzl_yb0kw/0ymjshsm9.sdf

>  <i_m_source_file_index>  (17) 
49

>  <i_lp_mmshare_version>  (17) 
48012

>  <i_f3d_flags>  (17) 
0

>  <s_epik_input>  (17) 
W09IXVtDQEhdMVtDQEBIXShPW0NIM10pW0NAXShbT0hdKShbQ0BAXShbT0hdKShbUytdMltPLV0pW0NASF0zW09IXSlbQ0BIXTFbQ0BdNChbT0hdKVtDQEhdKFtDSDJdNSlbQ0BASF0oW09IXSlbQ0BdKFtPSF0pKEMoPU8pW0NAXTYoW09IXSlDKD1PKVtOSF1bQ0gzXSlbQ0gyXVtDSDJdW0NIXT1DNltDQEBIXTRPW0NAXShbT0hdKShbQ0BdKFtDSDNdKShbQ0BIXShbT0hdKVtDQEBIXTdbT0hdKU9bQ0BIXThPW0NIM10pW0NAXTMoW09IXSlbQ0BASF0oTzkpW0NAXTkoW0NIM10pW0NIMl1bQ0BASF0yQzU3OA==

>  <s_epik_cmdline>  (17) 
J2VwaWtfcHl0aG9uJywgJy1waHQnLCAnMi4wJywgJy1waCcsICc3LjAnLCAnLXRuJywgJzgnLCAnLW1hJywgJzIwMCcsICctaW1hZScsICc8aW5maWxlLm1hZT4nLCAnLW9tYWUnLCAnPG91dGZpbGUubWFlPic=

>  <r_lp_tautomer_probability>  (17) 
1

>  <r_epik_Ionization_Penalty>  (17) 
1.40957e-05

>  <r_epik_Ionization_Penalty_Charging>  (17) 
0

>  <r_epik_Ionization_Penalty_Neutral>  (17) 
1.40957e-05

>  <r_epik_State_Penalty>  (17) 
0

>  <r_epik_Charging_Adjusted_Penalty>  (17) 
0

>  <i_epik_Tot_Q>  (17) 
0

>  <i_epik_Tot_abs_Q>  (17) 
2

>  <s_epik_Chemistry_Notes>  (17) 
This compound contains an acetal/aminal-like group ( X-CH(R)-Y where X, Y are N, S, or O) that may be acid/base labile, releasing an aldehyde.

>  <s_lp_Force_Field>  (17) 
OPLS3e

>  <r_lp_Energy>  (17) 
547.995

>  <b_lp_Chiralities_Consistent>  (17) 
1

>  <s_lp_Variant>  (17) 
14:0-2

>  <s_i_glide_gridfile>  (17) 
pfpi4k_grid

>  <i_i_glide_lignum>  (17) 
49

>  <i_i_glide_rotatable_bonds>  (17) 
16

>  <r_i_docking_score>  (17) 
-2.85486

>  <r_i_glide_ligand_efficiency>  (17) 
-0.0500852

>  <r_i_glide_ligand_efficiency_sa>  (17) 
-0.192753

>  <r_i_glide_ligand_efficiency_ln>  (17) 
-0.566097

>  <r_i_glide_gscore>  (17) 
-2.85486

>  <r_i_glide_lipo>  (17) 
-0.293842

>  <r_i_glide_hbond>  (17) 
0

>  <r_i_glide_metal>  (17) 
-0

>  <r_i_glide_rewards>  (17) 
-1.26392

>  <r_i_glide_evdw>  (17) 
-21.3141

>  <r_i_glide_ecoul>  (17) 
-1.51915

>  <r_i_glide_erotb>  (17) 
0.0313225

>  <r_i_glide_esite>  (17) 
-0.034839

>  <r_i_glide_emodel>  (17) 
-29.6132

>  <r_i_glide_energy>  (17) 
-22.8333

>  <r_i_glide_einternal>  (17) 
7.43706

>  <r_i_glide_intrahb_reward>  (17) 
-1

>  <i_i_glide_confnum>  (17) 
5

>  <i_i_glide_posenum>  (17) 
12

>  <r_i_glide_eff_state_penalty>  (17) 
0

>  <ligand_id>  (17) 
14

>  <original_smiles>  (17) 
CNC(=O)C1(O)C(=O)C2(O)CCC=C1C1OC3(O)C4(C)OC(OC)C5(CC(C2O)C1(O)C1C(O)C(OC)C1(O)C1(O)C(O)C3(O)C2OC2(C)CC5[S+]1[O-])C(O)C4O

>  <smiles>  (17) 
[H]OC1(C(=O)N([H])C([H])([H])[H])C(=O)C2(O[H])C([H])([H])C([H])([H])C([H])=C1C1([H])OC3(O[H])C4(C([H])([H])[H])OC([H])(OC([H])([H])[H])C5(C([H])([H])C([H])(C2([H])O[H])C1(O[H])C1([H])C([H])(O[H])C([H])(OC([H])([H])[H])C1(O[H])C1(O[H])S(=O)C5([H])C([H])([H])C2(C([H])([H])[H])OC2([H])C3(O[H])C1([H])O[H])C([H])(O[H])C4([H])O[H]

$$$$
14:3:0
     RDKit          3D

106114  0  0  1  0  0  0  0  0999 V2000
    4.8718   -3.0021    1.5790 C   0  0  0  0  0  0  0  0  0  0  0  0
    4.0623   -2.6843    2.7459 N   0  0  0  0  0  0  0  0  0  0  0  0
    4.2238   -3.2422    3.9739 C   0  0  0  0  0  0  0  0  0  0  0  0
    5.1590   -3.9886    4.2558 O   0  0  0  0  0  0  0  0  0  0  0  0
    3.2495   -2.8149    5.1132 C   0  0  1  0  0  0  0  0  0  0  0  0
    3.9210   -1.5916    5.4003 O   0  0  0  0  0  0  0  0  0  0  0  0
    1.8122   -2.3342    4.7434 C   0  0  0  0  0  0  0  0  0  0  0  0
    1.5717   -1.8519    3.6435 O   0  0  0  0  0  0  0  0  0  0  0  0
    0.6964   -2.3564    5.8145 C   0  0  2  0  0  0  0  0  0  0  0  0
   -0.2874   -1.4317    5.3423 O   0  0  0  0  0  0  0  0  0  0  0  0
    1.1150   -1.5804    7.1559 C   0  0  0  0  0  0  0  0  0  0  0  0
    2.5500   -1.6605    7.8082 C   0  0  0  0  0  0  0  0  0  0  0  0
    3.2837   -2.9840    7.5909 C   0  0  0  0  0  0  0  0  0  0  0  0
    3.2351   -3.6788    6.4338 C   0  0  0  0  0  0  0  0  0  0  0  0
    2.8690   -5.2177    6.6654 C   0  0  2  0  0  0  0  0  0  0  0  0
    2.8602   -6.2166    5.5663 O   0  0  0  0  0  0  0  0  0  0  0  0
    3.7863   -7.2193    5.0070 C   0  0  2  0  0  0  0  0  0  0  0  0
    4.9529   -6.5131    4.7226 O   0  0  0  0  0  0  0  0  0  0  0  0
    3.2730   -7.7985    3.4757 C   0  0  1  0  0  0  0  0  0  0  0  0
    4.4203   -8.4807    2.6798 C   0  0  0  0  0  0  0  0  0  0  0  0
    2.1181   -8.7357    3.1965 O   0  0  0  0  0  0  0  0  0  0  0  0
    0.7083   -8.2745    3.1821 C   0  0  1  0  0  0  0  0  0  0  0  0
   -0.2637   -9.2725    3.2267 O   0  0  0  0  0  0  0  0  0  0  0  0
   -1.5899   -8.8581    2.9360 C   0  0  0  0  0  0  0  0  0  0  0  0
    0.7633   -7.3247    4.4024 C   0  0  1  0  0  0  0  0  0  0  0  0
   -0.2977   -6.3606    5.1166 C   0  0  0  0  0  0  0  0  0  0  0  0
    0.1684   -5.2381    6.2640 C   0  0  2  0  0  0  0  0  0  0  0  0
   -0.2215   -3.7051    5.8331 C   0  0  1  0  0  0  0  0  0  0  0  0
   -1.4201   -3.4030    6.5614 O   0  0  0  0  0  0  0  0  0  0  0  0
    1.4066   -5.3537    7.3542 C   0  0  2  0  0  0  0  0  0  0  0  0
    0.9527   -4.2249    8.0571 O   0  0  0  0  0  0  0  0  0  0  0  0
    1.2950   -6.0812    8.8146 C   0  0  2  0  0  0  0  0  0  0  0  0
    1.9908   -5.5148   10.0998 C   0  0  1  0  0  0  0  0  0  0  0  0
    1.1367   -5.2565   11.1925 O   0  0  0  0  0  0  0  0  0  0  0  0
    2.8609   -6.7548   10.1499 C   0  0  1  0  0  0  0  0  0  0  0  0
    3.0629   -7.2122   11.4927 O   0  0  0  0  0  0  0  0  0  0  0  0
    3.8888   -8.3659   11.5828 C   0  0  0  0  0  0  0  0  0  0  0  0
    1.8277   -7.4972    9.2688 C   0  0  1  0  0  0  0  0  0  0  0  0
    0.8605   -8.1465   10.0819 O   0  0  0  0  0  0  0  0  0  0  0  0
    2.2287   -8.5415    8.1929 C   0  0  2  0  0  0  0  0  0  0  0  0
    2.2283   -9.8816    8.7658 O   0  0  0  0  0  0  0  0  0  0  0  0
    3.6561   -8.2399    7.5756 C   0  0  1  0  0  0  0  0  0  0  0  0
    4.5264   -8.9236    8.4797 O   0  0  0  0  0  0  0  0  0  0  0  0
    4.1577   -8.4110    6.0720 C   0  0  2  0  0  0  0  0  0  0  0  0
    5.5837   -8.3703    6.3119 O   0  0  0  0  0  0  0  0  0  0  0  0
    4.1206   -9.8418    5.5264 C   0  0  1  0  0  0  0  0  0  0  0  0
    3.5858  -10.8237    6.3718 O   0  0  0  0  0  0  0  0  0  0  0  0
    2.9070  -10.6015    5.1550 C   0  0  2  0  0  0  0  0  0  0  0  0
    3.0424  -11.7247    4.1462 C   0  0  0  0  0  0  0  0  0  0  0  0
    1.4781  -10.1144    5.3243 C   0  0  0  0  0  0  0  0  0  0  0  0
    1.1218   -8.5574    5.4609 C   0  0  1  0  0  0  0  0  0  0  0  0
    0.7003   -8.3035    7.1825 S   0  0  0  0  0  0  0  0  0  0  0  0
   -0.3647   -9.3139    7.6274 O   0  0  0  0  0  0  0  0  0  0  0  0
    1.4615   -6.2478    3.3822 C   0  0  1  0  0  0  0  0  0  0  0  0
    1.5959   -4.9488    3.7733 O   0  0  0  0  0  0  0  0  0  0  0  0
    2.7294   -6.6775    2.6426 C   0  0  1  0  0  0  0  0  0  0  0  0
    3.6667   -5.7090    2.2788 O   0  0  0  0  0  0  0  0  0  0  0  0
    4.2964   -3.6367    0.9133 H   0  0  0  0  0  0  0  0  0  0  0  0
    5.7762   -3.5511    1.8326 H   0  0  0  0  0  0  0  0  0  0  0  0
    5.1663   -2.1308    0.9927 H   0  0  0  0  0  0  0  0  0  0  0  0
    3.3863   -1.9330    2.6116 H   0  0  0  0  0  0  0  0  0  0  0  0
    3.8915   -1.0598    4.6181 H   0  0  0  0  0  0  0  0  0  0  0  0
    0.1717   -0.6203    5.1541 H   0  0  0  0  0  0  0  0  0  0  0  0
    0.9769   -0.5070    6.9982 H   0  0  0  0  0  0  0  0  0  0  0  0
    0.3702   -1.8187    7.9237 H   0  0  0  0  0  0  0  0  0  0  0  0
    3.1741   -0.8062    7.5225 H   0  0  0  0  0  0  0  0  0  0  0  0
    2.4416   -1.5473    8.8809 H   0  0  0  0  0  0  0  0  0  0  0  0
    3.4094   -3.5008    8.5106 H   0  0  0  0  0  0  0  0  0  0  0  0
    3.6225   -5.4408    7.3993 H   0  0  0  0  0  0  0  0  0  0  0  0
    5.4930   -7.0995    4.2080 H   0  0  0  0  0  0  0  0  0  0  0  0
    5.3487   -7.9044    2.6806 H   0  0  0  0  0  0  0  0  0  0  0  0
    4.1436   -8.5877    1.6296 H   0  0  0  0  0  0  0  0  0  0  0  0
    4.6397   -9.4892    3.0086 H   0  0  0  0  0  0  0  0  0  0  0  0
    0.4867   -7.8849    2.1828 H   0  0  0  0  0  0  0  0  0  0  0  0
   -2.2235   -9.7439    2.8866 H   0  0  0  0  0  0  0  0  0  0  0  0
   -1.6570   -8.3521    1.9676 H   0  0  0  0  0  0  0  0  0  0  0  0
   -1.9763   -8.2026    3.7169 H   0  0  0  0  0  0  0  0  0  0  0  0
   -0.8644   -5.8605    4.3328 H   0  0  0  0  0  0  0  0  0  0  0  0
   -1.0615   -7.0030    5.5514 H   0  0  0  0  0  0  0  0  0  0  0  0
   -0.6509   -5.4883    6.9597 H   0  0  0  0  0  0  0  0  0  0  0  0
   -0.5497   -3.7859    4.8060 H   0  0  0  0  0  0  0  0  0  0  0  0
   -1.9724   -4.1744    6.5261 H   0  0  0  0  0  0  0  0  0  0  0  0
    1.5646   -4.0128    8.7506 H   0  0  0  0  0  0  0  0  0  0  0  0
    0.2303   -6.1184    9.0695 H   0  0  0  0  0  0  0  0  0  0  0  0
    2.6151   -4.6476    9.9647 H   0  0  0  0  0  0  0  0  0  0  0  0
    1.6841   -4.9915   11.9179 H   0  0  0  0  0  0  0  0  0  0  0  0
    3.8044   -6.4827    9.6857 H   0  0  0  0  0  0  0  0  0  0  0  0
    4.0359   -8.6383   12.6260 H   0  0  0  0  0  0  0  0  0  0  0  0
    4.8647   -8.1962   11.1341 H   0  0  0  0  0  0  0  0  0  0  0  0
    3.4128   -9.2042   11.0818 H   0  0  0  0  0  0  0  0  0  0  0  0
    1.3397   -8.8769   10.4518 H   0  0  0  0  0  0  0  0  0  0  0  0
    1.8103  -10.4908    8.1660 H   0  0  0  0  0  0  0  0  0  0  0  0
    3.9457   -7.2524    7.8020 H   0  0  0  0  0  0  0  0  0  0  0  0
    4.3188   -9.8516    8.3812 H   0  0  0  0  0  0  0  0  0  0  0  0
    6.0427   -8.5300    5.4970 H   0  0  0  0  0  0  0  0  0  0  0  0
    5.0242  -10.1579    5.0211 H   0  0  0  0  0  0  0  0  0  0  0  0
    2.7679  -11.4003    3.1400 H   0  0  0  0  0  0  0  0  0  0  0  0
    2.4144  -12.5650    4.4465 H   0  0  0  0  0  0  0  0  0  0  0  0
    4.0762  -12.0733    4.1106 H   0  0  0  0  0  0  0  0  0  0  0  0
    0.9033  -10.6220    4.5520 H   0  0  0  0  0  0  0  0  0  0  0  0
    1.1155  -10.6327    6.2059 H   0  0  0  0  0  0  0  0  0  0  0  0
    0.0764   -8.8581    5.4140 H   0  0  0  0  0  0  0  0  0  0  0  0
    0.7358   -5.9696    2.6216 H   0  0  0  0  0  0  0  0  0  0  0  0
    2.2965   -4.9707    4.4198 H   0  0  0  0  0  0  0  0  0  0  0  0
    2.4283   -7.0773    1.6671 H   0  0  0  0  0  0  0  0  0  0  0  0
    3.2483   -5.1406    1.6491 H   0  0  0  0  0  0  0  0  0  0  0  0
  1  2  1  0
  1 58  1  0
  1 59  1  0
  1 60  1  0
  2  3  1  0
  2 61  1  0
  3  4  2  0
  3  5  1  0
  5 14  1  0
  5  6  1  1
  5  7  1  0
  6 62  1  0
  7  8  2  0
  7  9  1  0
  9 28  1  0
  9 10  1  6
  9 11  1  0
 10 63  1  0
 11 12  1  0
 11 64  1  0
 11 65  1  0
 12 13  1  0
 12 66  1  0
 12 67  1  0
 13 14  2  0
 13 68  1  0
 14 15  1  0
 15 30  1  0
 15 16  1  0
 15 69  1  1
 16 17  1  0
 17 44  1  0
 17 18  1  6
 17 19  1  0
 18 70  1  0
 19 56  1  0
 19 20  1  6
 19 21  1  0
 20 71  1  0
 20 72  1  0
 20 73  1  0
 21 22  1  0
 22 23  1  0
 22 25  1  0
 22 74  1  6
 23 24  1  0
 24 75  1  0
 24 76  1  0
 24 77  1  0
 25 51  1  0
 25 26  1  1
 25 54  1  0
 26 27  1  0
 26 78  1  0
 26 79  1  0
 27 28  1  0
 27 30  1  0
 27 80  1  1
 28 29  1  0
 28 81  1  6
 29 82  1  0
 30 31  1  1
 30 32  1  0
 31 83  1  0
 32 38  1  0
 32 33  1  0
 32 84  1  1
 33 34  1  0
 33 35  1  0
 33 85  1  6
 34 86  1  0
 35 36  1  0
 35 38  1  0
 35 87  1  6
 36 37  1  0
 37 88  1  0
 37 89  1  0
 37 90  1  0
 38 39  1  1
 38 40  1  0
 39 91  1  0
 52 40  1  1
 40 41  1  1
 40 42  1  0
 41 92  1  0
 42 43  1  0
 42 44  1  0
 42 93  1  1
 43 94  1  0
 44 45  1  1
 44 46  1  0
 45 95  1  0
 46 48  1  0
 46 47  1  0
 46 96  1  6
 47 48  1  0
 48 49  1  6
 48 50  1  0
 49 97  1  0
 49 98  1  0
 49 99  1  0
 50 51  1  0
 50100  1  0
 50101  1  0
 51 52  1  0
 51102  1  1
 52 53  2  0
 54 55  1  0
 54 56  1  0
 54103  1  6
 55104  1  0
 56 57  1  0
 56105  1  6
 57106  1  0
M  END
>  <i_m_ct_stereo_status>  (18) 
1

>  <s_m_source_file>  (18) 
/var/tmp/pbs.5075288.sched01/tmpzl_yb0kw/0ymjshsm9.sdf

>  <i_m_source_file_index>  (18) 
51

>  <i_lp_mmshare_version>  (18) 
48012

>  <i_f3d_flags>  (18) 
0

>  <s_epik_input>  (18) 
W09IXVtDQEhdMVtDQEBIXShPW0NIM10pW0NAXShbT0hdKShbQ0BAXShbT0hdKShbUytdMltPLV0pW0NASF0zW09IXSlbQ0BIXTFbQ0BdNChbT0hdKVtDQEhdKFtDSDJdNSlbQ0BASF0oW09IXSlbQ0BdKFtPSF0pKEMoPU8pW0NAXTYoW09IXSlDKD1PKVtOSF1bQ0gzXSlbQ0gyXVtDSDJdW0NIXT1DNltDQEBIXTRPW0NAXShbT0hdKShbQ0BdKFtDSDNdKShbQ0BIXShbT0hdKVtDQEBIXTdbT0hdKU9bQ0BIXThPW0NIM10pW0NAXTMoW09IXSlbQ0BASF0oTzkpW0NAXTkoW0NIM10pW0NIMl1bQ0BASF0yQzU3OA==

>  <s_epik_cmdline>  (18) 
J2VwaWtfcHl0aG9uJywgJy1waHQnLCAnMi4wJywgJy1waCcsICc3LjAnLCAnLXRuJywgJzgnLCAnLW1hJywgJzIwMCcsICctaW1hZScsICc8aW5maWxlLm1hZT4nLCAnLW9tYWUnLCAnPG91dGZpbGUubWFlPic=

>  <r_lp_tautomer_probability>  (18) 
1

>  <r_epik_Ionization_Penalty>  (18) 
1.40957e-05

>  <r_epik_Ionization_Penalty_Charging>  (18) 
0

>  <r_epik_Ionization_Penalty_Neutral>  (18) 
1.40957e-05

>  <r_epik_State_Penalty>  (18) 
0

>  <r_epik_Charging_Adjusted_Penalty>  (18) 
0

>  <i_epik_Tot_Q>  (18) 
0

>  <i_epik_Tot_abs_Q>  (18) 
2

>  <s_epik_Chemistry_Notes>  (18) 
This compound contains an acetal/aminal-like group ( X-CH(R)-Y where X, Y are N, S, or O) that may be acid/base labile, releasing an aldehyde.

>  <s_lp_Force_Field>  (18) 
OPLS3e

>  <r_lp_Energy>  (18) 
513.448

>  <b_lp_Chiralities_Consistent>  (18) 
1

>  <s_lp_Variant>  (18) 
14:0-4

>  <s_i_glide_gridfile>  (18) 
pfpi4k_grid

>  <i_i_glide_lignum>  (18) 
51

>  <i_i_glide_rotatable_bonds>  (18) 
16

>  <r_i_docking_score>  (18) 
-3.76353

>  <r_i_glide_ligand_efficiency>  (18) 
-0.0660268

>  <r_i_glide_ligand_efficiency_sa>  (18) 
-0.254104

>  <r_i_glide_ligand_efficiency_ln>  (18) 
-0.74628

>  <r_i_glide_gscore>  (18) 
-3.76353

>  <r_i_glide_lipo>  (18) 
-0.0321258

>  <r_i_glide_hbond>  (18) 
0

>  <r_i_glide_metal>  (18) 
-0

>  <r_i_glide_rewards>  (18) 
-1.50656

>  <r_i_glide_evdw>  (18) 
-29.6145

>  <r_i_glide_ecoul>  (18) 
-4.80022

>  <r_i_glide_erotb>  (18) 
0.0313225

>  <r_i_glide_esite>  (18) 
-0.0554032

>  <r_i_glide_emodel>  (18) 
-51.1082

>  <r_i_glide_energy>  (18) 
-34.4147

>  <r_i_glide_einternal>  (18) 
11.8443

>  <r_i_glide_intrahb_reward>  (18) 
-1.5

>  <i_i_glide_confnum>  (18) 
4

>  <i_i_glide_posenum>  (18) 
33

>  <r_i_glide_eff_state_penalty>  (18) 
0

>  <ligand_id>  (18) 
14

>  <original_smiles>  (18) 
CNC(=O)C1(O)C(=O)C2(O)CCC=C1C1OC3(O)C4(C)OC(OC)C5(CC(C2O)C1(O)C1C(O)C(OC)C1(O)C1(O)C(O)C3(O)C2OC2(C)CC5[S+]1[O-])C(O)C4O

>  <smiles>  (18) 
[H]OC1(C(=O)N([H])C([H])([H])[H])C(=O)C2(O[H])C([H])([H])C([H])([H])C([H])=C1C1([H])OC3(O[H])C4(C([H])([H])[H])OC([H])(OC([H])([H])[H])C5(C([H])([H])C([H])(C2([H])O[H])C1(O[H])C1([H])C([H])(O[H])C([H])(OC([H])([H])[H])C1(O[H])C1(O[H])S(=O)C5([H])C([H])([H])C2(C([H])([H])[H])OC2([H])C3(O[H])C1([H])O[H])C([H])(O[H])C4([H])O[H]

$$$$
14:3:1
     RDKit          3D

106114  0  0  1  0  0  0  0  0999 V2000
    7.8918   -7.5679    3.0991 C   0  0  0  0  0  0  0  0  0  0  0  0
    7.1076   -6.3302    3.0843 N   0  0  0  0  0  0  0  0  0  0  0  0
    6.1821   -6.0109    2.1684 C   0  0  0  0  0  0  0  0  0  0  0  0
    5.9302   -6.7622    1.2230 O   0  0  0  0  0  0  0  0  0  0  0  0
    5.6330   -4.5618    2.2277 C   0  0  1  0  0  0  0  0  0  0  0  0
    6.7743   -3.9276    1.6505 O   0  0  0  0  0  0  0  0  0  0  0  0
    4.5616   -4.1416    1.1884 C   0  0  0  0  0  0  0  0  0  0  0  0
    4.4858   -4.7343    0.0990 O   0  0  0  0  0  0  0  0  0  0  0  0
    3.6492   -2.8973    1.4682 C   0  0  2  0  0  0  0  0  0  0  0  0
    3.1805   -2.5356    0.1685 O   0  0  0  0  0  0  0  0  0  0  0  0
    4.4766   -1.5823    1.8560 C   0  0  0  0  0  0  0  0  0  0  0  0
    5.7241   -1.6104    2.7932 C   0  0  0  0  0  0  0  0  0  0  0  0
    5.6541   -2.6937    3.8382 C   0  0  0  0  0  0  0  0  0  0  0  0
    5.2638   -3.9704    3.6355 C   0  0  0  0  0  0  0  0  0  0  0  0
    4.2761   -4.4444    4.7862 C   0  0  2  0  0  0  0  0  0  0  0  0
    3.6969   -5.8078    4.8451 O   0  0  0  0  0  0  0  0  0  0  0  0
    4.0003   -7.0813    5.5140 C   0  0  2  0  0  0  0  0  0  0  0  0
    5.3616   -7.3430    5.1671 O   0  0  0  0  0  0  0  0  0  0  0  0
    3.1574   -8.4322    4.8174 C   0  0  1  0  0  0  0  0  0  0  0  0
    3.8053   -9.7850    5.2088 C   0  0  0  0  0  0  0  0  0  0  0  0
    1.6887   -8.7040    4.9677 O   0  0  0  0  0  0  0  0  0  0  0  0
    0.6852   -7.9985    4.1643 C   0  0  1  0  0  0  0  0  0  0  0  0
   -0.6286   -8.1185    4.5917 O   0  0  0  0  0  0  0  0  0  0  0  0
   -1.6222   -7.8949    3.6062 C   0  0  0  0  0  0  0  0  0  0  0  0
    1.2835   -6.5567    4.2460 C   0  0  1  0  0  0  0  0  0  0  0  0
    0.8366   -5.1358    3.6478 C   0  0  0  0  0  0  0  0  0  0  0  0
    1.8762   -3.8151    3.6892 C   0  0  2  0  0  0  0  0  0  0  0  0
    2.2216   -3.2001    2.2059 C   0  0  1  0  0  0  0  0  0  0  0  0
    1.4461   -1.9985    2.1259 O   0  0  0  0  0  0  0  0  0  0  0  0
    2.9887   -3.4478    4.8435 C   0  0  2  0  0  0  0  0  0  0  0  0
    3.1617   -2.1302    4.3698 O   0  0  0  0  0  0  0  0  0  0  0  0
    2.6730   -2.6459    6.2217 C   0  0  2  0  0  0  0  0  0  0  0  0
    3.6555   -1.5640    6.8213 C   0  0  1  0  0  0  0  0  0  0  0  0
    3.0679   -0.2937    7.0435 O   0  0  0  0  0  0  0  0  0  0  0  0
    3.8950   -2.4695    8.0183 C   0  0  1  0  0  0  0  0  0  0  0  0
    3.9843   -1.7673    9.2471 O   0  0  0  0  0  0  0  0  0  0  0  0
    5.2367   -1.1148    9.4506 C   0  0  0  0  0  0  0  0  0  0  0  0
    2.5486   -3.1770    7.7103 C   0  0  1  0  0  0  0  0  0  0  0  0
    1.4756   -2.4870    8.3529 O   0  0  0  0  0  0  0  0  0  0  0  0
    2.3166   -4.7041    7.9338 C   0  0  2  0  0  0  0  0  0  0  0  0
    1.8131   -4.9518    9.2264 O   0  0  0  0  0  0  0  0  0  0  0  0
    3.6699   -5.5425    7.7849 C   0  0  1  0  0  0  0  0  0  0  0  0
    4.2500   -5.4879    9.0968 O   0  0  0  0  0  0  0  0  0  0  0  0
    3.9111   -6.9792    7.1461 C   0  0  2  0  0  0  0  0  0  0  0  0
    5.2178   -7.2720    7.6516 O   0  0  0  0  0  0  0  0  0  0  0  0
    3.1696   -8.1038    7.8161 C   0  0  1  0  0  0  0  0  0  0  0  0
    2.3273   -7.7164    8.9119 O   0  0  0  0  0  0  0  0  0  0  0  0
    1.7029   -8.3451    7.7733 C   0  0  2  0  0  0  0  0  0  0  0  0
    1.2107   -9.7368    8.0111 C   0  0  0  0  0  0  0  0  0  0  0  0
    0.6812   -7.4918    7.0643 C   0  0  0  0  0  0  0  0  0  0  0  0
    1.1005   -6.4782    5.9052 C   0  0  1  0  0  0  0  0  0  0  0  0
    0.9888   -4.8430    6.6561 S   0  0  0  0  0  0  0  0  0  0  0  0
   -0.4222   -4.6468    7.2600 O   0  0  0  0  0  0  0  0  0  0  0  0
    2.3121   -7.0530    3.0733 C   0  0  1  0  0  0  0  0  0  0  0  0
    3.0467   -6.1151    2.4047 O   0  0  0  0  0  0  0  0  0  0  0  0
    3.1669   -8.3076    3.3342 C   0  0  1  0  0  0  0  0  0  0  0  0
    4.4590   -8.4396    2.8207 O   0  0  0  0  0  0  0  0  0  0  0  0
    8.8187   -7.4470    2.5375 H   0  0  0  0  0  0  0  0  0  0  0  0
    7.3443   -8.4105    2.6732 H   0  0  0  0  0  0  0  0  0  0  0  0
    8.1603   -7.8295    4.1223 H   0  0  0  0  0  0  0  0  0  0  0  0
    7.3985   -5.6081    3.7325 H   0  0  0  0  0  0  0  0  0  0  0  0
    6.6281   -2.9967    1.6388 H   0  0  0  0  0  0  0  0  0  0  0  0
    2.6960   -1.7354    0.2172 H   0  0  0  0  0  0  0  0  0  0  0  0
    4.8442   -1.1128    0.9436 H   0  0  0  0  0  0  0  0  0  0  0  0
    3.7889   -0.8461    2.2712 H   0  0  0  0  0  0  0  0  0  0  0  0
    6.6473   -1.6110    2.2223 H   0  0  0  0  0  0  0  0  0  0  0  0
    5.7744   -0.6629    3.3492 H   0  0  0  0  0  0  0  0  0  0  0  0
    5.5679   -2.2890    4.8229 H   0  0  0  0  0  0  0  0  0  0  0  0
    4.9000   -4.2480    5.6349 H   0  0  0  0  0  0  0  0  0  0  0  0
    5.3647   -7.5668    4.2415 H   0  0  0  0  0  0  0  0  0  0  0  0
    4.8843   -9.8062    5.1107 H   0  0  0  0  0  0  0  0  0  0  0  0
    3.4252  -10.5712    4.5580 H   0  0  0  0  0  0  0  0  0  0  0  0
    3.5505  -10.1128    6.2081 H   0  0  0  0  0  0  0  0  0  0  0  0
    0.6183   -8.5226    3.2089 H   0  0  0  0  0  0  0  0  0  0  0  0
   -2.5771   -8.1531    4.0530 H   0  0  0  0  0  0  0  0  0  0  0  0
   -1.4959   -8.5323    2.7276 H   0  0  0  0  0  0  0  0  0  0  0  0
   -1.6432   -6.8458    3.3063 H   0  0  0  0  0  0  0  0  0  0  0  0
    0.5256   -5.3131    2.6138 H   0  0  0  0  0  0  0  0  0  0  0  0
   -0.1115   -4.8563    4.1171 H   0  0  0  0  0  0  0  0  0  0  0  0
    1.0808   -3.1404    3.9956 H   0  0  0  0  0  0  0  0  0  0  0  0
    1.8000   -3.9197    1.5110 H   0  0  0  0  0  0  0  0  0  0  0  0
    1.3207   -1.8056    1.2113 H   0  0  0  0  0  0  0  0  0  0  0  0
    2.3233   -1.7235    4.2215 H   0  0  0  0  0  0  0  0  0  0  0  0
    1.7265   -2.1020    6.0638 H   0  0  0  0  0  0  0  0  0  0  0  0
    4.5900   -1.4079    6.2943 H   0  0  0  0  0  0  0  0  0  0  0  0
    3.2515    0.2469    6.2880 H   0  0  0  0  0  0  0  0  0  0  0  0
    4.7930   -3.0522    7.8315 H   0  0  0  0  0  0  0  0  0  0  0  0
    5.2418   -0.5706   10.3976 H   0  0  0  0  0  0  0  0  0  0  0  0
    5.4548   -0.3944    8.6596 H   0  0  0  0  0  0  0  0  0  0  0  0
    6.0549   -1.8355    9.4804 H   0  0  0  0  0  0  0  0  0  0  0  0
    1.8030   -1.6029    8.4354 H   0  0  0  0  0  0  0  0  0  0  0  0
    1.8977   -5.8734    9.3900 H   0  0  0  0  0  0  0  0  0  0  0  0
    4.4000   -4.9517    7.3085 H   0  0  0  0  0  0  0  0  0  0  0  0
    3.7650   -6.0633    9.6595 H   0  0  0  0  0  0  0  0  0  0  0  0
    5.4746   -8.1271    7.3575 H   0  0  0  0  0  0  0  0  0  0  0  0
    3.7722   -8.9923    8.0378 H   0  0  0  0  0  0  0  0  0  0  0  0
    1.0395  -10.1702    7.0270 H   0  0  0  0  0  0  0  0  0  0  0  0
    0.2841   -9.7657    8.5752 H   0  0  0  0  0  0  0  0  0  0  0  0
    1.9627  -10.3272    8.5436 H   0  0  0  0  0  0  0  0  0  0  0  0
   -0.1063   -8.1710    6.7672 H   0  0  0  0  0  0  0  0  0  0  0  0
    0.1897   -6.9554    7.8754 H   0  0  0  0  0  0  0  0  0  0  0  0
    0.0382   -6.3091    5.7462 H   0  0  0  0  0  0  0  0  0  0  0  0
    1.7411   -7.2701    2.1659 H   0  0  0  0  0  0  0  0  0  0  0  0
    3.7343   -5.8804    3.0009 H   0  0  0  0  0  0  0  0  0  0  0  0
    2.6549   -9.1698    2.8965 H   0  0  0  0  0  0  0  0  0  0  0  0
    4.6440   -9.3633    2.7392 H   0  0  0  0  0  0  0  0  0  0  0  0
  1  2  1  0
  1 58  1  0
  1 59  1  0
  1 60  1  0
  2  3  1  0
  2 61  1  0
  3  4  2  0
  3  5  1  0
  5 14  1  0
  5  6  1  6
  5  7  1  0
  6 62  1  0
  7  8  2  0
  7  9  1  0
  9 28  1  0
  9 10  1  6
  9 11  1  0
 10 63  1  0
 11 12  1  0
 11 64  1  0
 11 65  1  0
 12 13  1  0
 12 66  1  0
 12 67  1  0
 13 14  2  0
 13 68  1  0
 14 15  1  0
 15 30  1  0
 15 16  1  0
 15 69  1  1
 16 17  1  0
 17 44  1  0
 17 18  1  1
 17 19  1  0
 18 70  1  0
 19 56  1  0
 19 20  1  6
 19 21  1  0
 20 71  1  0
 20 72  1  0
 20 73  1  0
 21 22  1  0
 22 23  1  0
 22 25  1  0
 22 74  1  6
 23 24  1  0
 24 75  1  0
 24 76  1  0
 24 77  1  0
 25 51  1  0
 25 26  1  6
 25 54  1  0
 26 27  1  0
 26 78  1  0
 26 79  1  0
 27 28  1  0
 27 30  1  0
 27 80  1  1
 28 29  1  0
 28 81  1  6
 29 82  1  0
 30 31  1  6
 30 32  1  0
 31 83  1  0
 32 38  1  0
 32 33  1  0
 32 84  1  6
 33 34  1  0
 33 35  1  0
 33 85  1  6
 34 86  1  0
 35 36  1  0
 35 38  1  0
 35 87  1  6
 36 37  1  0
 37 88  1  0
 37 89  1  0
 37 90  1  0
 38 39  1  1
 38 40  1  0
 39 91  1  0
 52 40  1  1
 40 41  1  1
 40 42  1  0
 41 92  1  0
 42 43  1  0
 42 44  1  0
 42 93  1  6
 43 94  1  0
 44 45  1  1
 44 46  1  0
 45 95  1  0
 46 48  1  0
 46 47  1  0
 46 96  1  1
 47 48  1  0
 48 49  1  1
 48 50  1  0
 49 97  1  0
 49 98  1  0
 49 99  1  0
 50 51  1  0
 50100  1  0
 50101  1  0
 51 52  1  0
 51102  1  1
 52 53  2  0
 54 55  1  0
 54 56  1  0
 54103  1  6
 55104  1  0
 56 57  1  0
 56105  1  6
 57106  1  0
M  END
>  <i_m_ct_stereo_status>  (19) 
1

>  <s_m_source_file>  (19) 
/var/tmp/pbs.5075288.sched01/tmpzl_yb0kw/0ymjshsm9.sdf

>  <i_m_source_file_index>  (19) 
51

>  <i_lp_mmshare_version>  (19) 
48012

>  <i_f3d_flags>  (19) 
0

>  <s_epik_input>  (19) 
W09IXVtDQEhdMVtDQEBIXShPW0NIM10pW0NAXShbT0hdKShbQ0BAXShbT0hdKShbUytdMltPLV0pW0NASF0zW09IXSlbQ0BIXTFbQ0BdNChbT0hdKVtDQEhdKFtDSDJdNSlbQ0BASF0oW09IXSlbQ0BdKFtPSF0pKEMoPU8pW0NAXTYoW09IXSlDKD1PKVtOSF1bQ0gzXSlbQ0gyXVtDSDJdW0NIXT1DNltDQEBIXTRPW0NAXShbT0hdKShbQ0BdKFtDSDNdKShbQ0BIXShbT0hdKVtDQEBIXTdbT0hdKU9bQ0BIXThPW0NIM10pW0NAXTMoW09IXSlbQ0BASF0oTzkpW0NAXTkoW0NIM10pW0NIMl1bQ0BASF0yQzU3OA==

>  <s_epik_cmdline>  (19) 
J2VwaWtfcHl0aG9uJywgJy1waHQnLCAnMi4wJywgJy1waCcsICc3LjAnLCAnLXRuJywgJzgnLCAnLW1hJywgJzIwMCcsICctaW1hZScsICc8aW5maWxlLm1hZT4nLCAnLW9tYWUnLCAnPG91dGZpbGUubWFlPic=

>  <r_lp_tautomer_probability>  (19) 
1

>  <r_epik_Ionization_Penalty>  (19) 
1.40957e-05

>  <r_epik_Ionization_Penalty_Charging>  (19) 
0

>  <r_epik_Ionization_Penalty_Neutral>  (19) 
1.40957e-05

>  <r_epik_State_Penalty>  (19) 
0

>  <r_epik_Charging_Adjusted_Penalty>  (19) 
0

>  <i_epik_Tot_Q>  (19) 
0

>  <i_epik_Tot_abs_Q>  (19) 
2

>  <s_epik_Chemistry_Notes>  (19) 
This compound contains an acetal/aminal-like group ( X-CH(R)-Y where X, Y are N, S, or O) that may be acid/base labile, releasing an aldehyde.

>  <s_lp_Force_Field>  (19) 
OPLS3e

>  <r_lp_Energy>  (19) 
513.448

>  <b_lp_Chiralities_Consistent>  (19) 
1

>  <s_lp_Variant>  (19) 
14:0-4

>  <s_i_glide_gridfile>  (19) 
pfpi4k_grid

>  <i_i_glide_lignum>  (19) 
51

>  <i_i_glide_rotatable_bonds>  (19) 
16

>  <r_i_docking_score>  (19) 
-3.01185

>  <r_i_glide_ligand_efficiency>  (19) 
-0.0528394

>  <r_i_glide_ligand_efficiency_sa>  (19) 
-0.203352

>  <r_i_glide_ligand_efficiency_ln>  (19) 
-0.597227

>  <r_i_glide_gscore>  (19) 
-3.01185

>  <r_i_glide_lipo>  (19) 
-0.17748

>  <r_i_glide_hbond>  (19) 
0

>  <r_i_glide_metal>  (19) 
-0

>  <r_i_glide_rewards>  (19) 
-1.58665

>  <r_i_glide_evdw>  (19) 
-15.5352

>  <r_i_glide_ecoul>  (19) 
-3.19974

>  <r_i_glide_erotb>  (19) 
0.0313225

>  <r_i_glide_esite>  (19) 
-0.0223172

>  <r_i_glide_emodel>  (19) 
-36.5066

>  <r_i_glide_energy>  (19) 
-18.7349

>  <r_i_glide_einternal>  (19) 
5.73861

>  <r_i_glide_intrahb_reward>  (19) 
-1.5

>  <i_i_glide_confnum>  (19) 
4

>  <i_i_glide_posenum>  (19) 
2

>  <r_i_glide_eff_state_penalty>  (19) 
0

>  <ligand_id>  (19) 
14

>  <original_smiles>  (19) 
CNC(=O)C1(O)C(=O)C2(O)CCC=C1C1OC3(O)C4(C)OC(OC)C5(CC(C2O)C1(O)C1C(O)C(OC)C1(O)C1(O)C(O)C3(O)C2OC2(C)CC5[S+]1[O-])C(O)C4O

>  <smiles>  (19) 
[H]OC1(C(=O)N([H])C([H])([H])[H])C(=O)C2(O[H])C([H])([H])C([H])([H])C([H])=C1C1([H])OC3(O[H])C4(C([H])([H])[H])OC([H])(OC([H])([H])[H])C5(C([H])([H])C([H])(C2([H])O[H])C1(O[H])C1([H])C([H])(O[H])C([H])(OC([H])([H])[H])C1(O[H])C1(O[H])S(=O)C5([H])C([H])([H])C2(C([H])([H])[H])OC2([H])C3(O[H])C1([H])O[H])C([H])(O[H])C4([H])O[H]

$$$$
14:3:2
     RDKit          3D

106114  0  0  1  0  0  0  0  0999 V2000
    7.2439   -9.2400    3.2687 C   0  0  0  0  0  0  0  0  0  0  0  0
    6.9097   -7.9033    2.7765 N   0  0  0  0  0  0  0  0  0  0  0  0
    6.1455   -7.6032    1.7113 C   0  0  0  0  0  0  0  0  0  0  0  0
    5.7793   -8.4530    0.8959 O   0  0  0  0  0  0  0  0  0  0  0  0
    5.8989   -6.0852    1.5110 C   0  0  1  0  0  0  0  0  0  0  0  0
    7.2247   -5.7479    1.1220 O   0  0  0  0  0  0  0  0  0  0  0  0
    5.0243   -5.6304    0.2898 C   0  0  0  0  0  0  0  0  0  0  0  0
    4.7709   -6.3941   -0.6325 O   0  0  0  0  0  0  0  0  0  0  0  0
    4.3506   -4.2224    0.2669 C   0  0  2  0  0  0  0  0  0  0  0  0
    4.1901   -3.8922   -1.0884 O   0  0  0  0  0  0  0  0  0  0  0  0
    5.3349   -3.0147    0.5536 C   0  0  0  0  0  0  0  0  0  0  0  0
    6.4489   -3.1563    1.6228 C   0  0  0  0  0  0  0  0  0  0  0  0
    6.0456   -4.0424    2.7847 C   0  0  0  0  0  0  0  0  0  0  0  0
    5.4736   -5.2624    2.7262 C   0  0  0  0  0  0  0  0  0  0  0  0
    4.3024   -5.3613    3.7891 C   0  0  2  0  0  0  0  0  0  0  0  0
    3.4889   -6.5874    3.9820 O   0  0  0  0  0  0  0  0  0  0  0  0
    3.4976   -7.7755    4.8540 C   0  0  2  0  0  0  0  0  0  0  0  0
    4.8100   -8.2700    4.7351 O   0  0  0  0  0  0  0  0  0  0  0  0
    2.5160   -9.0706    4.2465 C   0  0  1  0  0  0  0  0  0  0  0  0
    2.8965  -10.4173    4.9125 C   0  0  0  0  0  0  0  0  0  0  0  0
    1.0006   -9.0807    4.2086 O   0  0  0  0  0  0  0  0  0  0  0  0
    0.2680   -8.3416    3.1740 C   0  0  1  0  0  0  0  0  0  0  0  0
   -1.0911   -8.1188    3.3730 O   0  0  0  0  0  0  0  0  0  0  0  0
   -1.9029   -9.1821    2.8955 C   0  0  0  0  0  0  0  0  0  0  0  0
    1.1145   -7.0468    3.1624 C   0  0  1  0  0  0  0  0  0  0  0  0
    1.0202   -5.7021    2.3112 C   0  0  0  0  0  0  0  0  0  0  0  0
    2.2100   -4.5333    2.2701 C   0  0  2  0  0  0  0  0  0  0  0  0
    2.8062   -4.2418    0.7734 C   0  0  1  0  0  0  0  0  0  0  0  0
    2.2254   -3.0487    0.3305 O   0  0  0  0  0  0  0  0  0  0  0  0
    3.2195   -4.1799    3.5139 C   0  0  2  0  0  0  0  0  0  0  0  0
    3.6394   -2.9979    2.8680 O   0  0  0  0  0  0  0  0  0  0  0  0
    2.9054   -3.1309    4.7310 C   0  0  2  0  0  0  0  0  0  0  0  0
    3.9930   -2.1358    5.2906 C   0  0  1  0  0  0  0  0  0  0  0  0
    3.6213   -0.7741    5.2574 O   0  0  0  0  0  0  0  0  0  0  0  0
    3.9357   -2.8411    6.6282 C   0  0  1  0  0  0  0  0  0  0  0  0
    3.9945   -1.9597    7.7465 O   0  0  0  0  0  0  0  0  0  0  0  0
    5.3082   -1.4864    8.0324 C   0  0  0  0  0  0  0  0  0  0  0  0
    2.5315   -3.3855    6.2537 C   0  0  1  0  0  0  0  0  0  0  0  0
    1.5179   -2.4559    6.6173 O   0  0  0  0  0  0  0  0  0  0  0  0
    2.0306   -4.7991    6.6723 C   0  0  2  0  0  0  0  0  0  0  0  0
    1.3469   -4.7410    7.9097 O   0  0  0  0  0  0  0  0  0  0  0  0
    3.2171   -5.8436    6.8111 C   0  0  1  0  0  0  0  0  0  0  0  0
    3.6621   -5.6638    8.1627 O   0  0  0  0  0  0  0  0  0  0  0  0
    3.2521   -7.3839    6.4207 C   0  0  2  0  0  0  0  0  0  0  0  0
    4.4284   -7.7693    7.1336 O   0  0  0  0  0  0  0  0  0  0  0  0
    2.2562   -8.2580    7.1482 C   0  0  1  0  0  0  0  0  0  0  0  0
    1.3639   -7.5811    8.0240 O   0  0  0  0  0  0  0  0  0  0  0  0
    0.7992   -8.3060    6.9161 C   0  0  2  0  0  0  0  0  0  0  0  0
    0.0425   -9.5652    7.2997 C   0  0  0  0  0  0  0  0  0  0  0  0
    0.0322   -7.4170    5.9726 C   0  0  0  0  0  0  0  0  0  0  0  0
    0.7582   -6.6726    4.7678 C   0  0  1  0  0  0  0  0  0  0  0  0
    0.8245   -4.9358    5.2728 S   0  0  0  0  0  0  0  0  0  0  0  0
   -0.5497   -4.4742    5.7480 O   0  0  0  0  0  0  0  0  0  0  0  0
    2.1445   -7.8932    2.2156 C   0  0  1  0  0  0  0  0  0  0  0  0
    3.1052   -7.2093    1.5488 O   0  0  0  0  0  0  0  0  0  0  0  0
    2.7007   -9.2095    2.7727 C   0  0  1  0  0  0  0  0  0  0  0  0
    3.9715   -9.6459    2.4282 O   0  0  0  0  0  0  0  0  0  0  0  0
    8.1838   -9.6146    2.8832 H   0  0  0  0  0  0  0  0  0  0  0  0
    6.4545   -9.9538    3.0373 H   0  0  0  0  0  0  0  0  0  0  0  0
    7.3474   -9.2081    4.3546 H   0  0  0  0  0  0  0  0  0  0  0  0
    7.2930   -7.1195    3.2862 H   0  0  0  0  0  0  0  0  0  0  0  0
    7.2200   -4.8283    0.8790 H   0  0  0  0  0  0  0  0  0  0  0  0
    3.4640   -3.2829   -1.0809 H   0  0  0  0  0  0  0  0  0  0  0  0
    5.9052   -2.7526   -0.3597 H   0  0  0  0  0  0  0  0  0  0  0  0
    4.7444   -2.1151    0.7762 H   0  0  0  0  0  0  0  0  0  0  0  0
    7.4364   -3.3631    1.1927 H   0  0  0  0  0  0  0  0  0  0  0  0
    6.5646   -2.1642    2.0772 H   0  0  0  0  0  0  0  0  0  0  0  0
    5.8038   -3.4793    3.6414 H   0  0  0  0  0  0  0  0  0  0  0  0
    4.8665   -5.1443    4.6673 H   0  0  0  0  0  0  0  0  0  0  0  0
    4.8737   -8.6770    3.8738 H   0  0  0  0  0  0  0  0  0  0  0  0
    3.9669  -10.6012    4.9472 H   0  0  0  0  0  0  0  0  0  0  0  0
    2.4696  -11.2284    4.3326 H   0  0  0  0  0  0  0  0  0  0  0  0
    2.4902  -10.5278    5.9071 H   0  0  0  0  0  0  0  0  0  0  0  0
    0.2118   -8.9619    2.2688 H   0  0  0  0  0  0  0  0  0  0  0  0
   -2.9063   -9.0069    3.2512 H   0  0  0  0  0  0  0  0  0  0  0  0
   -1.5530  -10.1592    3.2282 H   0  0  0  0  0  0  0  0  0  0  0  0
   -1.9475   -9.1838    1.8019 H   0  0  0  0  0  0  0  0  0  0  0  0
    0.7334   -5.9978    1.2978 H   0  0  0  0  0  0  0  0  0  0  0  0
    0.1483   -5.2280    2.7187 H   0  0  0  0  0  0  0  0  0  0  0  0
    1.5161   -3.6976    2.3587 H   0  0  0  0  0  0  0  0  0  0  0  0
    2.3780   -5.0294    0.1749 H   0  0  0  0  0  0  0  0  0  0  0  0
    2.6847   -2.3486    0.7411 H   0  0  0  0  0  0  0  0  0  0  0  0
    2.9114   -2.3866    2.8243 H   0  0  0  0  0  0  0  0  0  0  0  0
    2.0991   -2.4696    4.3833 H   0  0  0  0  0  0  0  0  0  0  0  0
    4.9824   -2.2127    4.8636 H   0  0  0  0  0  0  0  0  0  0  0  0
    4.3553   -0.2777    5.5919 H   0  0  0  0  0  0  0  0  0  0  0  0
    4.7323   -3.5770    6.6367 H   0  0  0  0  0  0  0  0  0  0  0  0
    5.3007   -0.8078    8.8883 H   0  0  0  0  0  0  0  0  0  0  0  0
    5.7357   -0.9400    7.1913 H   0  0  0  0  0  0  0  0  0  0  0  0
    5.9796   -2.3113    8.2720 H   0  0  0  0  0  0  0  0  0  0  0  0
    1.9404   -1.6175    6.4923 H   0  0  0  0  0  0  0  0  0  0  0  0
    1.2305   -5.6355    8.2043 H   0  0  0  0  0  0  0  0  0  0  0  0
    4.0707   -5.4492    6.3291 H   0  0  0  0  0  0  0  0  0  0  0  0
    3.0254   -6.0993    8.7187 H   0  0  0  0  0  0  0  0  0  0  0  0
    4.5911   -8.6837    6.9583 H   0  0  0  0  0  0  0  0  0  0  0  0
    2.6816   -9.1607    7.5766 H   0  0  0  0  0  0  0  0  0  0  0  0
   -0.1050  -10.2136    6.4343 H   0  0  0  0  0  0  0  0  0  0  0  0
   -0.9247   -9.3187    7.7287 H   0  0  0  0  0  0  0  0  0  0  0  0
    0.6135  -10.1355    8.0339 H   0  0  0  0  0  0  0  0  0  0  0  0
   -0.8091   -8.0085    5.6381 H   0  0  0  0  0  0  0  0  0  0  0  0
   -0.4281   -6.6704    6.6310 H   0  0  0  0  0  0  0  0  0  0  0  0
   -0.2364   -6.3698    4.4503 H   0  0  0  0  0  0  0  0  0  0  0  0
    1.6618   -8.1225    1.2573 H   0  0  0  0  0  0  0  0  0  0  0  0
    3.7440   -6.9980    2.2165 H   0  0  0  0  0  0  0  0  0  0  0  0
    2.0861  -10.0316    2.4136 H   0  0  0  0  0  0  0  0  0  0  0  0
    3.9041  -10.3020    1.7392 H   0  0  0  0  0  0  0  0  0  0  0  0
  1  2  1  0
  1 58  1  0
  1 59  1  0
  1 60  1  0
  2  3  1  0
  2 61  1  0
  3  4  2  0
  3  5  1  0
  5 14  1  0
  5  6  1  6
  5  7  1  0
  6 62  1  0
  7  8  2  0
  7  9  1  0
  9 28  1  0
  9 10  1  6
  9 11  1  0
 10 63  1  0
 11 12  1  0
 11 64  1  0
 11 65  1  0
 12 13  1  0
 12 66  1  0
 12 67  1  0
 13 14  2  0
 13 68  1  0
 14 15  1  0
 15 30  1  0
 15 16  1  0
 15 69  1  1
 16 17  1  0
 17 44  1  0
 17 18  1  1
 17 19  1  0
 18 70  1  0
 19 56  1  0
 19 20  1  1
 19 21  1  0
 20 71  1  0
 20 72  1  0
 20 73  1  0
 21 22  1  0
 22 23  1  0
 22 25  1  0
 22 74  1  6
 23 24  1  0
 24 75  1  0
 24 76  1  0
 24 77  1  0
 25 51  1  0
 25 26  1  6
 25 54  1  0
 26 27  1  0
 26 78  1  0
 26 79  1  0
 27 28  1  0
 27 30  1  0
 27 80  1  1
 28 29  1  0
 28 81  1  6
 29 82  1  0
 30 31  1  6
 30 32  1  0
 31 83  1  0
 32 38  1  0
 32 33  1  0
 32 84  1  6
 33 34  1  0
 33 35  1  0
 33 85  1  6
 34 86  1  0
 35 36  1  0
 35 38  1  0
 35 87  1  1
 36 37  1  0
 37 88  1  0
 37 89  1  0
 37 90  1  0
 38 39  1  1
 38 40  1  0
 39 91  1  0
 52 40  1  1
 40 41  1  1
 40 42  1  0
 41 92  1  0
 42 43  1  0
 42 44  1  0
 42 93  1  6
 43 94  1  0
 44 45  1  1
 44 46  1  0
 45 95  1  0
 46 48  1  0
 46 47  1  0
 46 96  1  1
 47 48  1  0
 48 49  1  1
 48 50  1  0
 49 97  1  0
 49 98  1  0
 49 99  1  0
 50 51  1  0
 50100  1  0
 50101  1  0
 51 52  1  0
 51102  1  1
 52 53  2  0
 54 55  1  0
 54 56  1  0
 54103  1  6
 55104  1  0
 56 57  1  0
 56105  1  6
 57106  1  0
M  END
>  <i_m_ct_stereo_status>  (20) 
1

>  <s_m_source_file>  (20) 
/var/tmp/pbs.5075288.sched01/tmpzl_yb0kw/0ymjshsm9.sdf

>  <i_m_source_file_index>  (20) 
51

>  <i_lp_mmshare_version>  (20) 
48012

>  <i_f3d_flags>  (20) 
0

>  <s_epik_input>  (20) 
W09IXVtDQEhdMVtDQEBIXShPW0NIM10pW0NAXShbT0hdKShbQ0BAXShbT0hdKShbUytdMltPLV0pW0NASF0zW09IXSlbQ0BIXTFbQ0BdNChbT0hdKVtDQEhdKFtDSDJdNSlbQ0BASF0oW09IXSlbQ0BdKFtPSF0pKEMoPU8pW0NAXTYoW09IXSlDKD1PKVtOSF1bQ0gzXSlbQ0gyXVtDSDJdW0NIXT1DNltDQEBIXTRPW0NAXShbT0hdKShbQ0BdKFtDSDNdKShbQ0BIXShbT0hdKVtDQEBIXTdbT0hdKU9bQ0BIXThPW0NIM10pW0NAXTMoW09IXSlbQ0BASF0oTzkpW0NAXTkoW0NIM10pW0NIMl1bQ0BASF0yQzU3OA==

>  <s_epik_cmdline>  (20) 
J2VwaWtfcHl0aG9uJywgJy1waHQnLCAnMi4wJywgJy1waCcsICc3LjAnLCAnLXRuJywgJzgnLCAnLW1hJywgJzIwMCcsICctaW1hZScsICc8aW5maWxlLm1hZT4nLCAnLW9tYWUnLCAnPG91dGZpbGUubWFlPic=

>  <r_lp_tautomer_probability>  (20) 
1

>  <r_epik_Ionization_Penalty>  (20) 
1.40957e-05

>  <r_epik_Ionization_Penalty_Charging>  (20) 
0

>  <r_epik_Ionization_Penalty_Neutral>  (20) 
1.40957e-05

>  <r_epik_State_Penalty>  (20) 
0

>  <r_epik_Charging_Adjusted_Penalty>  (20) 
0

>  <i_epik_Tot_Q>  (20) 
0

>  <i_epik_Tot_abs_Q>  (20) 
2

>  <s_epik_Chemistry_Notes>  (20) 
This compound contains an acetal/aminal-like group ( X-CH(R)-Y where X, Y are N, S, or O) that may be acid/base labile, releasing an aldehyde.

>  <s_lp_Force_Field>  (20) 
OPLS3e

>  <r_lp_Energy>  (20) 
513.448

>  <b_lp_Chiralities_Consistent>  (20) 
1

>  <s_lp_Variant>  (20) 
14:0-4

>  <s_i_glide_gridfile>  (20) 
pfpi4k_grid

>  <i_i_glide_lignum>  (20) 
51

>  <i_i_glide_rotatable_bonds>  (20) 
16

>  <r_i_docking_score>  (20) 
-2.77775

>  <r_i_glide_ligand_efficiency>  (20) 
-0.0487325

>  <r_i_glide_ligand_efficiency_sa>  (20) 
-0.187547

>  <r_i_glide_ligand_efficiency_ln>  (20) 
-0.550807

>  <r_i_glide_gscore>  (20) 
-2.77775

>  <r_i_glide_lipo>  (20) 
-0.268885

>  <r_i_glide_hbond>  (20) 
0

>  <r_i_glide_metal>  (20) 
-0

>  <r_i_glide_rewards>  (20) 
-1.74795

>  <r_i_glide_evdw>  (20) 
-12.8378

>  <r_i_glide_ecoul>  (20) 
-3.10966

>  <r_i_glide_erotb>  (20) 
0.0313225

>  <r_i_glide_esite>  (20) 
-0.0336901

>  <r_i_glide_emodel>  (20) 
-29.3266

>  <r_i_glide_energy>  (20) 
-15.9474

>  <r_i_glide_einternal>  (20) 
7.71172

>  <r_i_glide_intrahb_reward>  (20) 
-1.5

>  <i_i_glide_confnum>  (20) 
2

>  <i_i_glide_posenum>  (20) 
17

>  <r_i_glide_eff_state_penalty>  (20) 
0

>  <ligand_id>  (20) 
14

>  <original_smiles>  (20) 
CNC(=O)C1(O)C(=O)C2(O)CCC=C1C1OC3(O)C4(C)OC(OC)C5(CC(C2O)C1(O)C1C(O)C(OC)C1(O)C1(O)C(O)C3(O)C2OC2(C)CC5[S+]1[O-])C(O)C4O

>  <smiles>  (20) 
[H]OC1(C(=O)N([H])C([H])([H])[H])C(=O)C2(O[H])C([H])([H])C([H])([H])C([H])=C1C1([H])OC3(O[H])C4(C([H])([H])[H])OC([H])(OC([H])([H])[H])C5(C([H])([H])C([H])(C2([H])O[H])C1(O[H])C1([H])C([H])(O[H])C([H])(OC([H])([H])[H])C1(O[H])C1(O[H])S(=O)C5([H])C([H])([H])C2(C([H])([H])[H])OC2([H])C3(O[H])C1([H])O[H])C([H])(O[H])C4([H])O[H]

$$$$
14:5:0
     RDKit          3D

106114  0  0  1  0  0  0  0  0999 V2000
    6.6543   -5.5122    0.7958 C   0  0  0  0  0  0  0  0  0  0  0  0
    6.0985   -4.2054    1.1258 N   0  0  0  0  0  0  0  0  0  0  0  0
    5.6905   -3.8431    2.3620 C   0  0  0  0  0  0  0  0  0  0  0  0
    5.7928   -4.6040    3.3320 O   0  0  0  0  0  0  0  0  0  0  0  0
    5.1932   -2.4047    2.5902 C   0  0  1  0  0  0  0  0  0  0  0  0
    6.2484   -1.6316    2.0303 O   0  0  0  0  0  0  0  0  0  0  0  0
    4.0241   -1.9690    1.6536 C   0  0  0  0  0  0  0  0  0  0  0  0
    3.8980   -2.4011    0.5097 O   0  0  0  0  0  0  0  0  0  0  0  0
    3.0635   -0.8293    2.1205 C   0  0  2  0  0  0  0  0  0  0  0  0
    2.5934   -0.2157    0.9173 O   0  0  0  0  0  0  0  0  0  0  0  0
    3.8518    0.4403    2.6725 C   0  0  0  0  0  0  0  0  0  0  0  0
    5.1754    0.4279    3.5396 C   0  0  0  0  0  0  0  0  0  0  0  0
    5.2960   -0.7623    4.4649 C   0  0  0  0  0  0  0  0  0  0  0  0
    4.9134   -1.9951    4.0803 C   0  0  0  0  0  0  0  0  0  0  0  0
    3.9820   -2.7506    5.1167 C   0  0  2  0  0  0  0  0  0  0  0  0
    3.6324   -4.1498    4.8981 O   0  0  0  0  0  0  0  0  0  0  0  0
    3.7416   -5.3822    5.7054 C   0  0  2  0  0  0  0  0  0  0  0  0
    5.1009   -5.7528    5.6294 O   0  0  0  0  0  0  0  0  0  0  0  0
    2.9568   -6.6661    4.8173 C   0  0  1  0  0  0  0  0  0  0  0  0
    3.6615   -8.0374    5.0343 C   0  0  0  0  0  0  0  0  0  0  0  0
    1.4843   -7.0366    4.9282 O   0  0  0  0  0  0  0  0  0  0  0  0
    0.4228   -6.2661    4.2778 C   0  0  1  0  0  0  0  0  0  0  0  0
   -0.8656   -6.3553    4.8052 O   0  0  0  0  0  0  0  0  0  0  0  0
   -1.8068   -7.0081    3.9693 C   0  0  0  0  0  0  0  0  0  0  0  0
    0.9751   -4.8532    4.4260 C   0  0  1  0  0  0  0  0  0  0  0  0
    0.4760   -3.4215    3.9878 C   0  0  0  0  0  0  0  0  0  0  0  0
    1.4217   -2.0881    4.2130 C   0  0  2  0  0  0  0  0  0  0  0  0
    1.6742   -1.3250    2.7917 C   0  0  1  0  0  0  0  0  0  0  0  0
    0.7721   -0.2237    2.7802 O   0  0  0  0  0  0  0  0  0  0  0  0
    2.6221   -1.8857    5.3087 C   0  0  2  0  0  0  0  0  0  0  0  0
    2.7176   -0.5259    5.0271 O   0  0  0  0  0  0  0  0  0  0  0  0
    2.5248   -1.4126    6.8294 C   0  0  1  0  0  0  0  0  0  0  0  0
    2.7571   -0.0296    7.5358 C   0  0  1  0  0  0  0  0  0  0  0  0
    2.0601    1.1235    7.0833 O   0  0  0  0  0  0  0  0  0  0  0  0
    2.2158   -0.7253    8.7885 C   0  0  1  0  0  0  0  0  0  0  0  0
    1.4788    0.1447    9.6447 O   0  0  0  0  0  0  0  0  0  0  0  0
    2.3008    0.9716   10.4694 C   0  0  0  0  0  0  0  0  0  0  0  0
    1.4050   -1.6583    7.8431 C   0  0  1  0  0  0  0  0  0  0  0  0
    0.2028   -0.9973    7.4644 O   0  0  0  0  0  0  0  0  0  0  0  0
    1.2220   -3.1556    8.1694 C   0  0  2  0  0  0  0  0  0  0  0  0
    0.6185   -3.0905    9.4396 O   0  0  0  0  0  0  0  0  0  0  0  0
    2.6802   -3.9932    8.2754 C   0  0  1  0  0  0  0  0  0  0  0  0
    2.7090   -4.3750    9.6572 O   0  0  0  0  0  0  0  0  0  0  0  0
    3.4629   -5.2124    7.3978 C   0  0  2  0  0  0  0  0  0  0  0  0
    4.7365   -5.0761    8.0106 O   0  0  0  0  0  0  0  0  0  0  0  0
    3.0828   -6.5997    7.8762 C   0  0  1  0  0  0  0  0  0  0  0  0
    2.1715   -6.7435    8.9660 O   0  0  0  0  0  0  0  0  0  0  0  0
    1.6894   -7.0579    7.6471 C   0  0  2  0  0  0  0  0  0  0  0  0
    1.3232   -8.5309    7.5346 C   0  0  0  0  0  0  0  0  0  0  0  0
    0.6367   -6.0759    7.1591 C   0  0  0  0  0  0  0  0  0  0  0  0
    0.9731   -4.8853    6.0723 C   0  0  2  0  0  0  0  0  0  0  0  0
   -0.0480   -3.6045    6.8521 S   0  0  0  0  0  0  0  0  0  0  0  0
   -1.3356   -4.1618    7.4526 O   0  0  0  0  0  0  0  0  0  0  0  0
    1.9779   -5.1959    3.1831 C   0  0  1  0  0  0  0  0  0  0  0  0
    2.6317   -4.1812    2.5620 O   0  0  0  0  0  0  0  0  0  0  0  0
    2.8973   -6.4084    3.3354 C   0  0  1  0  0  0  0  0  0  0  0  0
    4.0927   -6.4589    2.6279 O   0  0  0  0  0  0  0  0  0  0  0  0
    5.9020   -6.1432    0.3285 H   0  0  0  0  0  0  0  0  0  0  0  0
    7.0530   -6.0439    1.6509 H   0  0  0  0  0  0  0  0  0  0  0  0
    7.4933   -5.4041    0.1138 H   0  0  0  0  0  0  0  0  0  0  0  0
    6.0881   -3.5054    0.3976 H   0  0  0  0  0  0  0  0  0  0  0  0
    6.0953   -0.7076    2.2167 H   0  0  0  0  0  0  0  0  0  0  0  0
    2.0673   -0.8224    0.3679 H   0  0  0  0  0  0  0  0  0  0  0  0
    4.1594    0.9608    1.7695 H   0  0  0  0  0  0  0  0  0  0  0  0
    3.1361    1.1078    3.1721 H   0  0  0  0  0  0  0  0  0  0  0  0
    6.0787    0.5436    2.9462 H   0  0  0  0  0  0  0  0  0  0  0  0
    5.1820    1.3051    4.1861 H   0  0  0  0  0  0  0  0  0  0  0  0
    5.1372   -0.4725    5.4873 H   0  0  0  0  0  0  0  0  0  0  0  0
    4.6100   -2.7653    6.0003 H   0  0  0  0  0  0  0  0  0  0  0  0
    5.3613   -5.6816    4.7097 H   0  0  0  0  0  0  0  0  0  0  0  0
    4.7149   -8.0274    4.7707 H   0  0  0  0  0  0  0  0  0  0  0  0
    3.2038   -8.7928    4.4016 H   0  0  0  0  0  0  0  0  0  0  0  0
    3.5883   -8.4204    6.0426 H   0  0  0  0  0  0  0  0  0  0  0  0
    0.3043   -6.6894    3.2767 H   0  0  0  0  0  0  0  0  0  0  0  0
   -2.7538   -7.0172    4.4843 H   0  0  0  0  0  0  0  0  0  0  0  0
   -1.5462   -8.0264    3.6634 H   0  0  0  0  0  0  0  0  0  0  0  0
   -1.9594   -6.4147    3.0736 H   0  0  0  0  0  0  0  0  0  0  0  0
    0.2180   -3.4915    2.9416 H   0  0  0  0  0  0  0  0  0  0  0  0
   -0.5224   -3.2027    4.3547 H   0  0  0  0  0  0  0  0  0  0  0  0
    0.6553   -1.4598    4.6743 H   0  0  0  0  0  0  0  0  0  0  0  0
    1.2766   -1.9757    2.0180 H   0  0  0  0  0  0  0  0  0  0  0  0
    0.8590    0.1564    1.9091 H   0  0  0  0  0  0  0  0  0  0  0  0
    1.8554   -0.1331    5.1200 H   0  0  0  0  0  0  0  0  0  0  0  0
    3.4692   -1.7722    7.1979 H   0  0  0  0  0  0  0  0  0  0  0  0
    3.8169    0.2064    7.6334 H   0  0  0  0  0  0  0  0  0  0  0  0
    2.5938    1.5008    6.3916 H   0  0  0  0  0  0  0  0  0  0  0  0
    3.0030   -1.2643    9.3145 H   0  0  0  0  0  0  0  0  0  0  0  0
    1.7063    1.7478   10.9604 H   0  0  0  0  0  0  0  0  0  0  0  0
    3.0809    1.4837    9.9025 H   0  0  0  0  0  0  0  0  0  0  0  0
    2.7876    0.3881   11.2538 H   0  0  0  0  0  0  0  0  0  0  0  0
    0.4909   -0.0997    7.3905 H   0  0  0  0  0  0  0  0  0  0  0  0
    1.0780   -3.7494    9.9529 H   0  0  0  0  0  0  0  0  0  0  0  0
    3.4489   -3.2423    8.3549 H   0  0  0  0  0  0  0  0  0  0  0  0
    2.4136   -5.2941    9.6929 H   0  0  0  0  0  0  0  0  0  0  0  0
    5.3078   -5.7055    7.5746 H   0  0  0  0  0  0  0  0  0  0  0  0
    3.8805   -7.3334    7.8714 H   0  0  0  0  0  0  0  0  0  0  0  0
    1.1497   -8.8416    6.5035 H   0  0  0  0  0  0  0  0  0  0  0  0
    0.4272   -8.7336    8.1167 H   0  0  0  0  0  0  0  0  0  0  0  0
    2.1296   -9.1481    7.9313 H   0  0  0  0  0  0  0  0  0  0  0  0
   -0.2454   -6.6648    6.9317 H   0  0  0  0  0  0  0  0  0  0  0  0
    0.3416   -5.6450    8.1205 H   0  0  0  0  0  0  0  0  0  0  0  0
    1.7765   -4.2219    6.1869 H   0  0  0  0  0  0  0  0  0  0  0  0
    1.3979   -5.3844    2.2752 H   0  0  0  0  0  0  0  0  0  0  0  0
    3.3223   -3.9460    3.1755 H   0  0  0  0  0  0  0  0  0  0  0  0
    2.3714   -7.2595    2.8954 H   0  0  0  0  0  0  0  0  0  0  0  0
    4.5362   -7.2814    2.8269 H   0  0  0  0  0  0  0  0  0  0  0  0
  1  2  1  0
  1 58  1  0
  1 59  1  0
  1 60  1  0
  2  3  1  0
  2 61  1  0
  3  4  2  0
  3  5  1  0
  5 14  1  0
  5  6  1  6
  5  7  1  0
  6 62  1  0
  7  8  2  0
  7  9  1  0
  9 28  1  0
  9 10  1  6
  9 11  1  0
 10 63  1  0
 11 12  1  0
 11 64  1  0
 11 65  1  0
 12 13  1  0
 12 66  1  0
 12 67  1  0
 13 14  2  0
 13 68  1  0
 14 15  1  0
 15 30  1  0
 15 16  1  0
 15 69  1  1
 16 17  1  0
 17 44  1  0
 17 18  1  1
 17 19  1  0
 18 70  1  0
 19 56  1  0
 19 20  1  6
 19 21  1  0
 20 71  1  0
 20 72  1  0
 20 73  1  0
 21 22  1  0
 22 23  1  0
 22 25  1  0
 22 74  1  6
 23 24  1  0
 24 75  1  0
 24 76  1  0
 24 77  1  0
 25 51  1  0
 25 26  1  1
 25 54  1  0
 26 27  1  0
 26 78  1  0
 26 79  1  0
 27 28  1  0
 27 30  1  0
 27 80  1  1
 28 29  1  0
 28 81  1  6
 29 82  1  0
 30 31  1  6
 30 32  1  0
 31 83  1  0
 32 38  1  0
 32 33  1  0
 32 84  1  1
 33 34  1  0
 33 35  1  0
 33 85  1  1
 34 86  1  0
 35 36  1  0
 35 38  1  0
 35 87  1  1
 36 37  1  0
 37 88  1  0
 37 89  1  0
 37 90  1  0
 38 39  1  6
 38 40  1  0
 39 91  1  0
 52 40  1  1
 40 41  1  1
 40 42  1  0
 41 92  1  0
 42 43  1  0
 42 44  1  0
 42 93  1  1
 43 94  1  0
 44 45  1  1
 44 46  1  0
 45 95  1  0
 46 48  1  0
 46 47  1  0
 46 96  1  1
 47 48  1  0
 48 49  1  1
 48 50  1  0
 49 97  1  0
 49 98  1  0
 49 99  1  0
 50 51  1  0
 50100  1  0
 50101  1  0
 51 52  1  0
 51102  1  1
 52 53  2  0
 54 55  1  0
 54 56  1  0
 54103  1  6
 55104  1  0
 56 57  1  0
 56105  1  6
 57106  1  0
M  END
>  <i_m_ct_stereo_status>  (21) 
1

>  <s_m_source_file>  (21) 
/var/tmp/pbs.5075288.sched01/tmpzl_yb0kw/0ymjshsm9.sdf

>  <i_m_source_file_index>  (21) 
53

>  <i_lp_mmshare_version>  (21) 
48012

>  <i_f3d_flags>  (21) 
0

>  <s_epik_input>  (21) 
W09IXVtDQEhdMVtDQEBIXShPW0NIM10pW0NAXShbT0hdKShbQ0BAXShbT0hdKShbUytdMltPLV0pW0NASF0zW09IXSlbQ0BIXTFbQ0BdNChbT0hdKVtDQEhdKFtDSDJdNSlbQ0BASF0oW09IXSlbQ0BdKFtPSF0pKEMoPU8pW0NAXTYoW09IXSlDKD1PKVtOSF1bQ0gzXSlbQ0gyXVtDSDJdW0NIXT1DNltDQEBIXTRPW0NAXShbT0hdKShbQ0BdKFtDSDNdKShbQ0BIXShbT0hdKVtDQEBIXTdbT0hdKU9bQ0BIXThPW0NIM10pW0NAXTMoW09IXSlbQ0BASF0oTzkpW0NAXTkoW0NIM10pW0NIMl1bQ0BASF0yQzU3OA==

>  <s_epik_cmdline>  (21) 
J2VwaWtfcHl0aG9uJywgJy1waHQnLCAnMi4wJywgJy1waCcsICc3LjAnLCAnLXRuJywgJzgnLCAnLW1hJywgJzIwMCcsICctaW1hZScsICc8aW5maWxlLm1hZT4nLCAnLW9tYWUnLCAnPG91dGZpbGUubWFlPic=

>  <r_lp_tautomer_probability>  (21) 
1

>  <r_epik_Ionization_Penalty>  (21) 
1.40957e-05

>  <r_epik_Ionization_Penalty_Charging>  (21) 
0

>  <r_epik_Ionization_Penalty_Neutral>  (21) 
1.40957e-05

>  <r_epik_State_Penalty>  (21) 
0

>  <r_epik_Charging_Adjusted_Penalty>  (21) 
0

>  <i_epik_Tot_Q>  (21) 
0

>  <i_epik_Tot_abs_Q>  (21) 
2

>  <s_epik_Chemistry_Notes>  (21) 
This compound contains an acetal/aminal-like group ( X-CH(R)-Y where X, Y are N, S, or O) that may be acid/base labile, releasing an aldehyde.

>  <s_lp_Force_Field>  (21) 
OPLS3e

>  <r_lp_Energy>  (21) 
535.408

>  <b_lp_Chiralities_Consistent>  (21) 
1

>  <s_lp_Variant>  (21) 
14:0-6

>  <s_i_glide_gridfile>  (21) 
pfpi4k_grid

>  <i_i_glide_lignum>  (21) 
53

>  <i_i_glide_rotatable_bonds>  (21) 
16

>  <r_i_docking_score>  (21) 
-4.53119

>  <r_i_glide_ligand_efficiency>  (21) 
-0.0794945

>  <r_i_glide_ligand_efficiency_sa>  (21) 
-0.305935

>  <r_i_glide_ligand_efficiency_ln>  (21) 
-0.898501

>  <r_i_glide_gscore>  (21) 
-4.53119

>  <r_i_glide_lipo>  (21) 
-0.32685

>  <r_i_glide_hbond>  (21) 
0

>  <r_i_glide_metal>  (21) 
-0

>  <r_i_glide_rewards>  (21) 
-2.03122

>  <r_i_glide_evdw>  (21) 
-21.5843

>  <r_i_glide_ecoul>  (21) 
-7.19948

>  <r_i_glide_erotb>  (21) 
0.0313225

>  <r_i_glide_esite>  (21) 
-0.0453032

>  <r_i_glide_emodel>  (21) 
-50.9694

>  <r_i_glide_energy>  (21) 
-28.7837

>  <r_i_glide_einternal>  (21) 
9.49345

>  <r_i_glide_intrahb_reward>  (21) 
-2

>  <i_i_glide_confnum>  (21) 
3

>  <i_i_glide_posenum>  (21) 
2

>  <r_i_glide_eff_state_penalty>  (21) 
0

>  <ligand_id>  (21) 
14

>  <original_smiles>  (21) 
CNC(=O)C1(O)C(=O)C2(O)CCC=C1C1OC3(O)C4(C)OC(OC)C5(CC(C2O)C1(O)C1C(O)C(OC)C1(O)C1(O)C(O)C3(O)C2OC2(C)CC5[S+]1[O-])C(O)C4O

>  <smiles>  (21) 
[H]OC1(C(=O)N([H])C([H])([H])[H])C(=O)C2(O[H])C([H])([H])C([H])([H])C([H])=C1C1([H])OC3(O[H])C4(C([H])([H])[H])OC([H])(OC([H])([H])[H])C5(C([H])([H])C([H])(C2([H])O[H])C1(O[H])C1([H])C([H])(O[H])C([H])(OC([H])([H])[H])C1(O[H])C1(O[H])S(=O)C5([H])C([H])([H])C2(C([H])([H])[H])OC2([H])C3(O[H])C1([H])O[H])C([H])(O[H])C4([H])O[H]

$$$$
14:5:1
     RDKit          3D

106114  0  0  1  0  0  0  0  0999 V2000
    2.3365  -10.6335    5.6361 C   0  0  0  0  0  0  0  0  0  0  0  0
    2.7276   -9.4175    4.9217 N   0  0  0  0  0  0  0  0  0  0  0  0
    3.4253   -8.3859    5.4380 C   0  0  0  0  0  0  0  0  0  0  0  0
    3.9084   -8.4145    6.5770 O   0  0  0  0  0  0  0  0  0  0  0  0
    3.7844   -7.1850    4.5411 C   0  0  1  0  0  0  0  0  0  0  0  0
    4.7720   -7.8101    3.7349 O   0  0  0  0  0  0  0  0  0  0  0  0
    2.7015   -6.7402    3.4940 C   0  0  0  0  0  0  0  0  0  0  0  0
    1.8921   -7.5502    3.0345 O   0  0  0  0  0  0  0  0  0  0  0  0
    2.6728   -5.2771    2.9515 C   0  0  2  0  0  0  0  0  0  0  0  0
    1.9837   -5.3664    1.7042 O   0  0  0  0  0  0  0  0  0  0  0  0
    4.1052   -4.7991    2.4078 C   0  0  0  0  0  0  0  0  0  0  0  0
    5.4795   -5.1867    3.0839 C   0  0  0  0  0  0  0  0  0  0  0  0
    5.4250   -5.3171    4.6022 C   0  0  0  0  0  0  0  0  0  0  0  0
    4.3952   -5.9276    5.2343 C   0  0  0  0  0  0  0  0  0  0  0  0
    3.7943   -5.1208    6.4562 C   0  0  2  0  0  0  0  0  0  0  0  0
    2.7876   -5.7248    7.3153 O   0  0  0  0  0  0  0  0  0  0  0  0
    2.6675   -5.9631    8.7652 C   0  0  2  0  0  0  0  0  0  0  0  0
    3.5060   -7.0773    9.0015 O   0  0  0  0  0  0  0  0  0  0  0  0
    1.0639   -6.6091    9.0742 C   0  0  1  0  0  0  0  0  0  0  0  0
    1.0841   -7.6513   10.2303 C   0  0  0  0  0  0  0  0  0  0  0  0
   -0.1946   -5.7975    9.3539 O   0  0  0  0  0  0  0  0  0  0  0  0
   -0.9551   -5.0708    8.3192 C   0  0  1  0  0  0  0  0  0  0  0  0
   -1.7264   -3.9820    8.7301 O   0  0  0  0  0  0  0  0  0  0  0  0
   -2.7453   -4.3406    9.6490 C   0  0  0  0  0  0  0  0  0  0  0  0
    0.1999   -4.6463    7.4110 C   0  0  1  0  0  0  0  0  0  0  0  0
    0.2597   -3.8508    6.0400 C   0  0  0  0  0  0  0  0  0  0  0  0
    1.7213   -3.6782    5.2601 C   0  0  2  0  0  0  0  0  0  0  0  0
    1.6486   -4.2633    3.7303 C   0  0  1  0  0  0  0  0  0  0  0  0
    1.4615   -3.1018    2.9206 O   0  0  0  0  0  0  0  0  0  0  0  0
    3.2391   -3.6917    5.8987 C   0  0  2  0  0  0  0  0  0  0  0  0
    3.7686   -3.2113    4.6991 O   0  0  0  0  0  0  0  0  0  0  0  0
    4.0507   -2.5059    6.5736 C   0  0  1  0  0  0  0  0  0  0  0  0
    5.2338   -1.5870    6.0939 C   0  0  1  0  0  0  0  0  0  0  0  0
    5.1755   -0.8454    4.8807 O   0  0  0  0  0  0  0  0  0  0  0  0
    5.0296   -0.8437    7.4215 C   0  0  1  0  0  0  0  0  0  0  0  0
    5.2487    0.5627    7.3342 O   0  0  0  0  0  0  0  0  0  0  0  0
    6.6340    0.9240    7.3011 C   0  0  0  0  0  0  0  0  0  0  0  0
    3.5477   -1.3478    7.4439 C   0  0  1  0  0  0  0  0  0  0  0  0
    2.7063   -0.4353    6.7481 O   0  0  0  0  0  0  0  0  0  0  0  0
    2.8651   -1.8231    8.7577 C   0  0  2  0  0  0  0  0  0  0  0  0
    2.9974   -0.6735    9.5555 O   0  0  0  0  0  0  0  0  0  0  0  0
    3.6589   -3.1319    9.4799 C   0  0  1  0  0  0  0  0  0  0  0  0
    4.1617   -2.5744   10.7058 O   0  0  0  0  0  0  0  0  0  0  0  0
    3.3004   -4.7518    9.7916 C   0  0  2  0  0  0  0  0  0  0  0  0
    4.6133   -5.1564   10.1539 O   0  0  0  0  0  0  0  0  0  0  0  0
    2.5874   -4.9366   11.1142 C   0  0  1  0  0  0  0  0  0  0  0  0
    2.3098   -3.8085   11.9328 O   0  0  0  0  0  0  0  0  0  0  0  0
    1.2076   -4.4044   11.2477 C   0  0  2  0  0  0  0  0  0  0  0  0
    0.1956   -4.9802   12.2269 C   0  0  0  0  0  0  0  0  0  0  0  0
    0.6322   -3.5051   10.1649 C   0  0  0  0  0  0  0  0  0  0  0  0
    0.9431   -3.7456    8.5585 C   0  0  2  0  0  0  0  0  0  0  0  0
    1.0874   -2.0067    8.1423 S   0  0  0  0  0  0  0  0  0  0  0  0
    0.0693   -1.1578    8.9262 O   0  0  0  0  0  0  0  0  0  0  0  0
    0.2824   -6.1728    6.8406 C   0  0  1  0  0  0  0  0  0  0  0  0
    0.9342   -6.4469    5.6504 O   0  0  0  0  0  0  0  0  0  0  0  0
    0.5061   -7.2955    7.8594 C   0  0  1  0  0  0  0  0  0  0  0  0
    1.2015   -8.4366    7.4636 O   0  0  0  0  0  0  0  0  0  0  0  0
    1.2887  -10.5690    5.9122 H   0  0  0  0  0  0  0  0  0  0  0  0
    2.9165  -10.7896    6.5444 H   0  0  0  0  0  0  0  0  0  0  0  0
    2.4362  -11.5258    5.0224 H   0  0  0  0  0  0  0  0  0  0  0  0
    2.4979   -9.4094    3.9231 H   0  0  0  0  0  0  0  0  0  0  0  0
    4.3714   -8.5543    3.3077 H   0  0  0  0  0  0  0  0  0  0  0  0
    2.5162   -5.9111    1.1408 H   0  0  0  0  0  0  0  0  0  0  0  0
    4.2305   -5.1490    1.3749 H   0  0  0  0  0  0  0  0  0  0  0  0
    4.0757   -3.7114    2.2895 H   0  0  0  0  0  0  0  0  0  0  0  0
    5.9220   -6.0667    2.6141 H   0  0  0  0  0  0  0  0  0  0  0  0
    6.1990   -4.3956    2.8706 H   0  0  0  0  0  0  0  0  0  0  0  0
    5.9198   -4.4987    5.0941 H   0  0  0  0  0  0  0  0  0  0  0  0
    4.6664   -5.0267    7.0973 H   0  0  0  0  0  0  0  0  0  0  0  0
    3.2711   -7.7495    8.3630 H   0  0  0  0  0  0  0  0  0  0  0  0
    1.7751   -8.4767   10.0651 H   0  0  0  0  0  0  0  0  0  0  0  0
    0.0989   -8.1168   10.3238 H   0  0  0  0  0  0  0  0  0  0  0  0
    1.3073   -7.2326   11.2015 H   0  0  0  0  0  0  0  0  0  0  0  0
   -1.7158   -5.7188    7.8907 H   0  0  0  0  0  0  0  0  0  0  0  0
   -3.2869   -3.4753    9.9778 H   0  0  0  0  0  0  0  0  0  0  0  0
   -2.3416   -4.7922   10.5498 H   0  0  0  0  0  0  0  0  0  0  0  0
   -3.4857   -5.0070    9.2171 H   0  0  0  0  0  0  0  0  0  0  0  0
   -0.4413   -4.3344    5.3611 H   0  0  0  0  0  0  0  0  0  0  0  0
   -0.2408   -2.8841    6.1225 H   0  0  0  0  0  0  0  0  0  0  0  0
    1.6228   -2.5975    5.1166 H   0  0  0  0  0  0  0  0  0  0  0  0
    0.6879   -4.7679    3.6603 H   0  0  0  0  0  0  0  0  0  0  0  0
    2.2945   -2.6469    2.8879 H   0  0  0  0  0  0  0  0  0  0  0  0
    4.7100   -3.1499    4.7603 H   0  0  0  0  0  0  0  0  0  0  0  0
    4.7534   -3.0924    7.1325 H   0  0  0  0  0  0  0  0  0  0  0  0
    6.1940   -2.1170    6.1102 H   0  0  0  0  0  0  0  0  0  0  0  0
    4.3714   -0.3488    4.8476 H   0  0  0  0  0  0  0  0  0  0  0  0
    5.6194   -1.2953    8.2157 H   0  0  0  0  0  0  0  0  0  0  0  0
    6.7485    1.9826    7.0591 H   0  0  0  0  0  0  0  0  0  0  0  0
    7.1876    0.3655    6.5470 H   0  0  0  0  0  0  0  0  0  0  0  0
    7.1172    0.7532    8.2637 H   0  0  0  0  0  0  0  0  0  0  0  0
    3.2225   -0.0753    6.0535 H   0  0  0  0  0  0  0  0  0  0  0  0
    3.0249   -0.9653   10.4557 H   0  0  0  0  0  0  0  0  0  0  0  0
    4.6268   -3.1830    9.0088 H   0  0  0  0  0  0  0  0  0  0  0  0
    3.4975   -2.7375   11.3796 H   0  0  0  0  0  0  0  0  0  0  0  0
    4.5641   -6.0897   10.3200 H   0  0  0  0  0  0  0  0  0  0  0  0
    2.8536   -5.8276   11.6722 H   0  0  0  0  0  0  0  0  0  0  0  0
   -0.5345   -5.6308   11.7457 H   0  0  0  0  0  0  0  0  0  0  0  0
   -0.3248   -4.1776   12.7381 H   0  0  0  0  0  0  0  0  0  0  0  0
    0.7139   -5.5801   12.9791 H   0  0  0  0  0  0  0  0  0  0  0  0
   -0.4030   -3.3307   10.4135 H   0  0  0  0  0  0  0  0  0  0  0  0
    1.0513   -2.5551   10.4951 H   0  0  0  0  0  0  0  0  0  0  0  0
    1.9099   -3.8504    8.1715 H   0  0  0  0  0  0  0  0  0  0  0  0
   -0.6671   -6.3974    6.3539 H   0  0  0  0  0  0  0  0  0  0  0  0
    0.8142   -7.3672    5.4471 H   0  0  0  0  0  0  0  0  0  0  0  0
   -0.4811   -7.6893    8.1311 H   0  0  0  0  0  0  0  0  0  0  0  0
    0.6754   -8.9493    6.8614 H   0  0  0  0  0  0  0  0  0  0  0  0
  1  2  1  0
  1 58  1  0
  1 59  1  0
  1 60  1  0
  2  3  1  0
  2 61  1  0
  3  4  2  0
  3  5  1  0
  5 14  1  0
  5  6  1  6
  5  7  1  0
  6 62  1  0
  7  8  2  0
  7  9  1  0
  9 28  1  0
  9 10  1  6
  9 11  1  0
 10 63  1  0
 11 12  1  0
 11 64  1  0
 11 65  1  0
 12 13  1  0
 12 66  1  0
 12 67  1  0
 13 14  2  0
 13 68  1  0
 14 15  1  0
 15 30  1  0
 15 16  1  0
 15 69  1  1
 16 17  1  0
 17 44  1  0
 17 18  1  6
 17 19  1  0
 18 70  1  0
 19 56  1  0
 19 20  1  1
 19 21  1  0
 20 71  1  0
 20 72  1  0
 20 73  1  0
 21 22  1  0
 22 23  1  0
 22 25  1  0
 22 74  1  6
 23 24  1  0
 24 75  1  0
 24 76  1  0
 24 77  1  0
 25 51  1  0
 25 26  1  6
 25 54  1  0
 26 27  1  0
 26 78  1  0
 26 79  1  0
 27 28  1  0
 27 30  1  0
 27 80  1  6
 28 29  1  0
 28 81  1  1
 29 82  1  0
 30 31  1  6
 30 32  1  0
 31 83  1  0
 32 38  1  0
 32 33  1  0
 32 84  1  1
 33 34  1  0
 33 35  1  0
 33 85  1  1
 34 86  1  0
 35 36  1  0
 35 38  1  0
 35 87  1  1
 36 37  1  0
 37 88  1  0
 37 89  1  0
 37 90  1  0
 38 39  1  6
 38 40  1  0
 39 91  1  0
 52 40  1  1
 40 41  1  1
 40 42  1  0
 41 92  1  0
 42 43  1  0
 42 44  1  0
 42 93  1  6
 43 94  1  0
 44 45  1  1
 44 46  1  0
 45 95  1  0
 46 48  1  0
 46 47  1  0
 46 96  1  1
 47 48  1  0
 48 49  1  1
 48 50  1  0
 49 97  1  0
 49 98  1  0
 49 99  1  0
 50 51  1  0
 50100  1  0
 50101  1  0
 51 52  1  0
 51102  1  1
 52 53  2  0
 54 55  1  0
 54 56  1  0
 54103  1  6
 55104  1  0
 56 57  1  0
 56105  1  1
 57106  1  0
M  END
>  <i_m_ct_stereo_status>  (22) 
1

>  <s_m_source_file>  (22) 
/var/tmp/pbs.5075288.sched01/tmpzl_yb0kw/0ymjshsm9.sdf

>  <i_m_source_file_index>  (22) 
53

>  <i_lp_mmshare_version>  (22) 
48012

>  <i_f3d_flags>  (22) 
0

>  <s_epik_input>  (22) 
W09IXVtDQEhdMVtDQEBIXShPW0NIM10pW0NAXShbT0hdKShbQ0BAXShbT0hdKShbUytdMltPLV0pW0NASF0zW09IXSlbQ0BIXTFbQ0BdNChbT0hdKVtDQEhdKFtDSDJdNSlbQ0BASF0oW09IXSlbQ0BdKFtPSF0pKEMoPU8pW0NAXTYoW09IXSlDKD1PKVtOSF1bQ0gzXSlbQ0gyXVtDSDJdW0NIXT1DNltDQEBIXTRPW0NAXShbT0hdKShbQ0BdKFtDSDNdKShbQ0BIXShbT0hdKVtDQEBIXTdbT0hdKU9bQ0BIXThPW0NIM10pW0NAXTMoW09IXSlbQ0BASF0oTzkpW0NAXTkoW0NIM10pW0NIMl1bQ0BASF0yQzU3OA==

>  <s_epik_cmdline>  (22) 
J2VwaWtfcHl0aG9uJywgJy1waHQnLCAnMi4wJywgJy1waCcsICc3LjAnLCAnLXRuJywgJzgnLCAnLW1hJywgJzIwMCcsICctaW1hZScsICc8aW5maWxlLm1hZT4nLCAnLW9tYWUnLCAnPG91dGZpbGUubWFlPic=

>  <r_lp_tautomer_probability>  (22) 
1

>  <r_epik_Ionization_Penalty>  (22) 
1.40957e-05

>  <r_epik_Ionization_Penalty_Charging>  (22) 
0

>  <r_epik_Ionization_Penalty_Neutral>  (22) 
1.40957e-05

>  <r_epik_State_Penalty>  (22) 
0

>  <r_epik_Charging_Adjusted_Penalty>  (22) 
0

>  <i_epik_Tot_Q>  (22) 
0

>  <i_epik_Tot_abs_Q>  (22) 
2

>  <s_epik_Chemistry_Notes>  (22) 
This compound contains an acetal/aminal-like group ( X-CH(R)-Y where X, Y are N, S, or O) that may be acid/base labile, releasing an aldehyde.

>  <s_lp_Force_Field>  (22) 
OPLS3e

>  <r_lp_Energy>  (22) 
535.408

>  <b_lp_Chiralities_Consistent>  (22) 
1

>  <s_lp_Variant>  (22) 
14:0-6

>  <s_i_glide_gridfile>  (22) 
pfpi4k_grid

>  <i_i_glide_lignum>  (22) 
53

>  <i_i_glide_rotatable_bonds>  (22) 
16

>  <r_i_docking_score>  (22) 
-3.59231

>  <r_i_glide_ligand_efficiency>  (22) 
-0.063023

>  <r_i_glide_ligand_efficiency_sa>  (22) 
-0.242544

>  <r_i_glide_ligand_efficiency_ln>  (22) 
-0.712329

>  <r_i_glide_gscore>  (22) 
-3.59231

>  <r_i_glide_lipo>  (22) 
-0.0503758

>  <r_i_glide_hbond>  (22) 
-0.376297

>  <r_i_glide_metal>  (22) 
-0

>  <r_i_glide_rewards>  (22) 
-1.56728

>  <r_i_glide_evdw>  (22) 
-21.0736

>  <r_i_glide_ecoul>  (22) 
-3.65273

>  <r_i_glide_erotb>  (22) 
0.0313225

>  <r_i_glide_esite>  (22) 
-0.0280896

>  <r_i_glide_emodel>  (22) 
-42.9575

>  <r_i_glide_energy>  (22) 
-24.7263

>  <r_i_glide_einternal>  (22) 
5.66976

>  <r_i_glide_intrahb_reward>  (22) 
-1.5

>  <i_i_glide_confnum>  (22) 
3

>  <i_i_glide_posenum>  (22) 
8

>  <r_i_glide_eff_state_penalty>  (22) 
0

>  <ligand_id>  (22) 
14

>  <original_smiles>  (22) 
CNC(=O)C1(O)C(=O)C2(O)CCC=C1C1OC3(O)C4(C)OC(OC)C5(CC(C2O)C1(O)C1C(O)C(OC)C1(O)C1(O)C(O)C3(O)C2OC2(C)CC5[S+]1[O-])C(O)C4O

>  <smiles>  (22) 
[H]OC1(C(=O)N([H])C([H])([H])[H])C(=O)C2(O[H])C([H])([H])C([H])([H])C([H])=C1C1([H])OC3(O[H])C4(C([H])([H])[H])OC([H])(OC([H])([H])[H])C5(C([H])([H])C([H])(C2([H])O[H])C1(O[H])C1([H])C([H])(O[H])C([H])(OC([H])([H])[H])C1(O[H])C1(O[H])S(=O)C5([H])C([H])([H])C2(C([H])([H])[H])OC2([H])C3(O[H])C1([H])O[H])C([H])(O[H])C4([H])O[H]

$$$$
14:5:2
     RDKit          3D

106114  0  0  1  0  0  0  0  0999 V2000
    2.5847  -10.8028    5.6918 C   0  0  0  0  0  0  0  0  0  0  0  0
    3.0327   -9.6272    4.9458 N   0  0  0  0  0  0  0  0  0  0  0  0
    3.6720   -8.5600    5.4648 C   0  0  0  0  0  0  0  0  0  0  0  0
    4.0674   -8.5399    6.6360 O   0  0  0  0  0  0  0  0  0  0  0  0
    4.0623   -7.3929    4.5388 C   0  0  1  0  0  0  0  0  0  0  0  0
    5.0778   -8.0540    3.8006 O   0  0  0  0  0  0  0  0  0  0  0  0
    3.0294   -6.9763    3.4458 C   0  0  0  0  0  0  0  0  0  0  0  0
    2.2381   -7.8106    2.9867 O   0  0  0  0  0  0  0  0  0  0  0  0
    3.0303   -5.5312    2.8564 C   0  0  2  0  0  0  0  0  0  0  0  0
    2.3961   -5.6538    1.5879 O   0  0  0  0  0  0  0  0  0  0  0  0
    4.4853   -5.0773    2.3628 C   0  0  0  0  0  0  0  0  0  0  0  0
    5.8288   -5.4479    3.1006 C   0  0  0  0  0  0  0  0  0  0  0  0
    5.7116   -5.5300    4.6156 C   0  0  0  0  0  0  0  0  0  0  0  0
    4.6516   -6.1174    5.2194 C   0  0  0  0  0  0  0  0  0  0  0  0
    4.0087   -5.2568    6.3857 C   0  0  2  0  0  0  0  0  0  0  0  0
    2.9549   -5.8138    7.2313 O   0  0  0  0  0  0  0  0  0  0  0  0
    2.7928   -6.0216    8.6752 C   0  0  2  0  0  0  0  0  0  0  0  0
    3.6077   -7.1351    8.9567 O   0  0  0  0  0  0  0  0  0  0  0  0
    1.1839   -6.6446    8.9502 C   0  0  1  0  0  0  0  0  0  0  0  0
    1.1406   -7.6508   10.1402 C   0  0  0  0  0  0  0  0  0  0  0  0
   -0.0860   -5.8217    9.1519 O   0  0  0  0  0  0  0  0  0  0  0  0
   -0.8058   -5.1347    8.0647 C   0  0  1  0  0  0  0  0  0  0  0  0
   -1.5880   -4.0287    8.4183 O   0  0  0  0  0  0  0  0  0  0  0  0
   -2.6708   -4.3539    9.2868 C   0  0  0  0  0  0  0  0  0  0  0  0
    0.3785   -4.7374    7.1870 C   0  0  1  0  0  0  0  0  0  0  0  0
    0.5050   -3.9894    5.7948 C   0  0  0  0  0  0  0  0  0  0  0  0
    1.9990   -3.8461    5.0687 C   0  0  2  0  0  0  0  0  0  0  0  0
    1.9873   -4.4811    3.5584 C   0  0  1  0  0  0  0  0  0  0  0  0
    1.8248   -3.3596    2.7015 O   0  0  0  0  0  0  0  0  0  0  0  0
    3.4886   -3.8393    5.7665 C   0  0  2  0  0  0  0  0  0  0  0  0
    4.1175   -3.4002    4.5899 O   0  0  0  0  0  0  0  0  0  0  0  0
    4.2776   -2.6418    6.4685 C   0  0  1  0  0  0  0  0  0  0  0  0
    5.4643   -1.7176    6.0024 C   0  0  1  0  0  0  0  0  0  0  0  0
    5.3441   -0.9653    4.8058 O   0  0  0  0  0  0  0  0  0  0  0  0
    5.2223   -0.9592    7.3137 C   0  0  1  0  0  0  0  0  0  0  0  0
    5.5078    0.4308    7.1634 O   0  0  0  0  0  0  0  0  0  0  0  0
    5.2101    1.2363    8.2876 C   0  0  0  0  0  0  0  0  0  0  0  0
    3.7437   -1.4500    7.2674 C   0  0  1  0  0  0  0  0  0  0  0  0
    3.0051   -0.5569    6.4513 O   0  0  0  0  0  0  0  0  0  0  0  0
    2.9961   -1.8859    8.5635 C   0  0  2  0  0  0  0  0  0  0  0  0
    3.0350   -0.7490    9.4063 O   0  0  0  0  0  0  0  0  0  0  0  0
    3.7679   -3.1870    9.3336 C   0  0  1  0  0  0  0  0  0  0  0  0
    4.2870   -2.6143   10.5364 O   0  0  0  0  0  0  0  0  0  0  0  0
    3.3953   -4.7940    9.6929 C   0  0  2  0  0  0  0  0  0  0  0  0
    4.6927   -5.1898   10.1369 O   0  0  0  0  0  0  0  0  0  0  0  0
    2.6324   -4.9305   10.9918 C   0  0  1  0  0  0  0  0  0  0  0  0
    2.3242   -3.7776   11.7649 O   0  0  0  0  0  0  0  0  0  0  0  0
    1.2428   -4.3836   11.0583 C   0  0  2  0  0  0  0  0  0  0  0  0
    0.1892   -4.9213   12.0185 C   0  0  0  0  0  0  0  0  0  0  0  0
    0.7198   -3.5119    9.9220 C   0  0  0  0  0  0  0  0  0  0  0  0
    1.0832   -3.7972    8.3323 C   0  0  2  0  0  0  0  0  0  0  0  0
    1.2641   -2.0761    7.8478 S   0  0  0  0  0  0  0  0  0  0  0  0
    0.2214   -1.2005    8.5709 O   0  0  0  0  0  0  0  0  0  0  0  0
    0.4734   -6.2880    6.6735 C   0  0  1  0  0  0  0  0  0  0  0  0
    1.1718   -6.6080    5.5191 O   0  0  0  0  0  0  0  0  0  0  0  0
    0.6655   -7.3770    7.7405 C   0  0  1  0  0  0  0  0  0  0  0  0
    1.3562   -8.5496    7.4083 O   0  0  0  0  0  0  0  0  0  0  0  0
    1.5206  -10.6984    5.8833 H   0  0  0  0  0  0  0  0  0  0  0  0
    3.0862  -10.9204    6.6522 H   0  0  0  0  0  0  0  0  0  0  0  0
    2.7180  -11.7261    5.1287 H   0  0  0  0  0  0  0  0  0  0  0  0
    2.8687   -9.6642    3.9415 H   0  0  0  0  0  0  0  0  0  0  0  0
    4.6916   -8.8110    3.3831 H   0  0  0  0  0  0  0  0  0  0  0  0
    2.9250   -6.2269    1.0509 H   0  0  0  0  0  0  0  0  0  0  0  0
    4.6566   -5.4656    1.3537 H   0  0  0  0  0  0  0  0  0  0  0  0
    4.4688   -3.9991    2.1898 H   0  0  0  0  0  0  0  0  0  0  0  0
    6.2831   -6.3478    2.6855 H   0  0  0  0  0  0  0  0  0  0  0  0
    6.5623   -4.6696    2.8841 H   0  0  0  0  0  0  0  0  0  0  0  0
    6.1688   -4.6804    5.1023 H   0  0  0  0  0  0  0  0  0  0  0  0
    4.8535   -5.1586    7.0663 H   0  0  0  0  0  0  0  0  0  0  0  0
    3.3421   -7.8409    8.3740 H   0  0  0  0  0  0  0  0  0  0  0  0
    1.8329   -8.4870   10.0357 H   0  0  0  0  0  0  0  0  0  0  0  0
    0.1490   -8.1065   10.2122 H   0  0  0  0  0  0  0  0  0  0  0  0
    1.3220   -7.2047   11.1095 H   0  0  0  0  0  0  0  0  0  0  0  0
   -1.5505   -5.8062    7.6362 H   0  0  0  0  0  0  0  0  0  0  0  0
   -3.2188   -3.4718    9.5739 H   0  0  0  0  0  0  0  0  0  0  0  0
   -2.3185   -4.8113   10.2134 H   0  0  0  0  0  0  0  0  0  0  0  0
   -3.3762   -5.0423    8.8117 H   0  0  0  0  0  0  0  0  0  0  0  0
   -0.1743   -4.4836    5.1063 H   0  0  0  0  0  0  0  0  0  0  0  0
    0.0110   -3.0218    5.8268 H   0  0  0  0  0  0  0  0  0  0  0  0
    1.9164   -2.7729    4.8842 H   0  0  0  0  0  0  0  0  0  0  0  0
    1.0267   -4.9847    3.4640 H   0  0  0  0  0  0  0  0  0  0  0  0
    2.6248   -2.8484    2.6930 H   0  0  0  0  0  0  0  0  0  0  0  0
    4.0201   -4.0630    3.9215 H   0  0  0  0  0  0  0  0  0  0  0  0
    4.9736   -3.2114    7.0506 H   0  0  0  0  0  0  0  0  0  0  0  0
    6.4302   -2.2266    6.0119 H   0  0  0  0  0  0  0  0  0  0  0  0
    5.3646   -1.5953    4.0966 H   0  0  0  0  0  0  0  0  0  0  0  0
    5.8073   -1.4013    8.1166 H   0  0  0  0  0  0  0  0  0  0  0  0
    5.6344    2.2327    8.1649 H   0  0  0  0  0  0  0  0  0  0  0  0
    5.6162    0.8125    9.2057 H   0  0  0  0  0  0  0  0  0  0  0  0
    4.1342    1.3590    8.3919 H   0  0  0  0  0  0  0  0  0  0  0  0
    3.5966   -0.3613    5.7327 H   0  0  0  0  0  0  0  0  0  0  0  0
    3.7993   -0.2422    9.1748 H   0  0  0  0  0  0  0  0  0  0  0  0
    4.7553   -3.2406    8.9156 H   0  0  0  0  0  0  0  0  0  0  0  0
    3.5443   -2.5017   11.1229 H   0  0  0  0  0  0  0  0  0  0  0  0
    5.2623   -5.2570    9.3845 H   0  0  0  0  0  0  0  0  0  0  0  0
    2.8738   -5.8057   11.5857 H   0  0  0  0  0  0  0  0  0  0  0  0
   -0.5279   -5.5791   11.5277 H   0  0  0  0  0  0  0  0  0  0  0  0
   -0.3476   -4.0995   12.4829 H   0  0  0  0  0  0  0  0  0  0  0  0
    0.6674   -5.4995   12.8115 H   0  0  0  0  0  0  0  0  0  0  0  0
   -0.3255   -3.3286   10.1263 H   0  0  0  0  0  0  0  0  0  0  0  0
    1.1261   -2.5523   10.2406 H   0  0  0  0  0  0  0  0  0  0  0  0
    2.0686   -3.9221    8.0036 H   0  0  0  0  0  0  0  0  0  0  0  0
   -0.4659   -6.5433    6.1760 H   0  0  0  0  0  0  0  0  0  0  0  0
    1.0515   -7.5332    5.3423 H   0  0  0  0  0  0  0  0  0  0  0  0
   -0.3321   -7.7621    7.9914 H   0  0  0  0  0  0  0  0  0  0  0  0
    0.8262   -9.0915    6.8350 H   0  0  0  0  0  0  0  0  0  0  0  0
  1  2  1  0
  1 58  1  0
  1 59  1  0
  1 60  1  0
  2  3  1  0
  2 61  1  0
  3  4  2  0
  3  5  1  0
  5 14  1  0
  5  6  1  6
  5  7  1  0
  6 62  1  0
  7  8  2  0
  7  9  1  0
  9 28  1  0
  9 10  1  6
  9 11  1  0
 10 63  1  0
 11 12  1  0
 11 64  1  0
 11 65  1  0
 12 13  1  0
 12 66  1  0
 12 67  1  0
 13 14  2  0
 13 68  1  0
 14 15  1  0
 15 30  1  0
 15 16  1  0
 15 69  1  1
 16 17  1  0
 17 44  1  0
 17 18  1  1
 17 19  1  0
 18 70  1  0
 19 56  1  0
 19 20  1  1
 19 21  1  0
 20 71  1  0
 20 72  1  0
 20 73  1  0
 21 22  1  0
 22 23  1  0
 22 25  1  0
 22 74  1  6
 23 24  1  0
 24 75  1  0
 24 76  1  0
 24 77  1  0
 25 51  1  0
 25 26  1  6
 25 54  1  0
 26 27  1  0
 26 78  1  0
 26 79  1  0
 27 28  1  0
 27 30  1  0
 27 80  1  6
 28 29  1  0
 28 81  1  1
 29 82  1  0
 30 31  1  6
 30 32  1  0
 31 83  1  0
 32 38  1  0
 32 33  1  0
 32 84  1  1
 33 34  1  0
 33 35  1  0
 33 85  1  1
 34 86  1  0
 35 36  1  0
 35 38  1  0
 35 87  1  1
 36 37  1  0
 37 88  1  0
 37 89  1  0
 37 90  1  0
 38 39  1  6
 38 40  1  0
 39 91  1  0
 52 40  1  1
 40 41  1  1
 40 42  1  0
 41 92  1  0
 42 43  1  0
 42 44  1  0
 42 93  1  6
 43 94  1  0
 44 45  1  1
 44 46  1  0
 45 95  1  0
 46 48  1  0
 46 47  1  0
 46 96  1  1
 47 48  1  0
 48 49  1  1
 48 50  1  0
 49 97  1  0
 49 98  1  0
 49 99  1  0
 50 51  1  0
 50100  1  0
 50101  1  0
 51 52  1  0
 51102  1  1
 52 53  2  0
 54 55  1  0
 54 56  1  0
 54103  1  6
 55104  1  0
 56 57  1  0
 56105  1  1
 57106  1  0
M  END
>  <i_m_ct_stereo_status>  (23) 
1

>  <s_m_source_file>  (23) 
/var/tmp/pbs.5075288.sched01/tmpzl_yb0kw/0ymjshsm9.sdf

>  <i_m_source_file_index>  (23) 
53

>  <i_lp_mmshare_version>  (23) 
48012

>  <i_f3d_flags>  (23) 
0

>  <s_epik_input>  (23) 
W09IXVtDQEhdMVtDQEBIXShPW0NIM10pW0NAXShbT0hdKShbQ0BAXShbT0hdKShbUytdMltPLV0pW0NASF0zW09IXSlbQ0BIXTFbQ0BdNChbT0hdKVtDQEhdKFtDSDJdNSlbQ0BASF0oW09IXSlbQ0BdKFtPSF0pKEMoPU8pW0NAXTYoW09IXSlDKD1PKVtOSF1bQ0gzXSlbQ0gyXVtDSDJdW0NIXT1DNltDQEBIXTRPW0NAXShbT0hdKShbQ0BdKFtDSDNdKShbQ0BIXShbT0hdKVtDQEBIXTdbT0hdKU9bQ0BIXThPW0NIM10pW0NAXTMoW09IXSlbQ0BASF0oTzkpW0NAXTkoW0NIM10pW0NIMl1bQ0BASF0yQzU3OA==

>  <s_epik_cmdline>  (23) 
J2VwaWtfcHl0aG9uJywgJy1waHQnLCAnMi4wJywgJy1waCcsICc3LjAnLCAnLXRuJywgJzgnLCAnLW1hJywgJzIwMCcsICctaW1hZScsICc8aW5maWxlLm1hZT4nLCAnLW9tYWUnLCAnPG91dGZpbGUubWFlPic=

>  <r_lp_tautomer_probability>  (23) 
1

>  <r_epik_Ionization_Penalty>  (23) 
1.40957e-05

>  <r_epik_Ionization_Penalty_Charging>  (23) 
0

>  <r_epik_Ionization_Penalty_Neutral>  (23) 
1.40957e-05

>  <r_epik_State_Penalty>  (23) 
0

>  <r_epik_Charging_Adjusted_Penalty>  (23) 
0

>  <i_epik_Tot_Q>  (23) 
0

>  <i_epik_Tot_abs_Q>  (23) 
2

>  <s_epik_Chemistry_Notes>  (23) 
This compound contains an acetal/aminal-like group ( X-CH(R)-Y where X, Y are N, S, or O) that may be acid/base labile, releasing an aldehyde.

>  <s_lp_Force_Field>  (23) 
OPLS3e

>  <r_lp_Energy>  (23) 
535.408

>  <b_lp_Chiralities_Consistent>  (23) 
1

>  <s_lp_Variant>  (23) 
14:0-6

>  <s_i_glide_gridfile>  (23) 
pfpi4k_grid

>  <i_i_glide_lignum>  (23) 
53

>  <i_i_glide_rotatable_bonds>  (23) 
16

>  <r_i_docking_score>  (23) 
-3.45044

>  <r_i_glide_ligand_efficiency>  (23) 
-0.0605341

>  <r_i_glide_ligand_efficiency_sa>  (23) 
-0.232965

>  <r_i_glide_ligand_efficiency_ln>  (23) 
-0.684197

>  <r_i_glide_gscore>  (23) 
-3.45044

>  <r_i_glide_lipo>  (23) 
-0.0317487

>  <r_i_glide_hbond>  (23) 
-0.23173

>  <r_i_glide_metal>  (23) 
-0

>  <r_i_glide_rewards>  (23) 
-1.58995

>  <r_i_glide_evdw>  (23) 
-21.2259

>  <r_i_glide_ecoul>  (23) 
-3.61375

>  <r_i_glide_erotb>  (23) 
0.0313225

>  <r_i_glide_esite>  (23) 
-0.024978

>  <r_i_glide_emodel>  (23) 
-42.9891

>  <r_i_glide_energy>  (23) 
-24.8397

>  <r_i_glide_einternal>  (23) 
6.17089

>  <r_i_glide_intrahb_reward>  (23) 
-1.5

>  <i_i_glide_confnum>  (23) 
3

>  <i_i_glide_posenum>  (23) 
39

>  <r_i_glide_eff_state_penalty>  (23) 
0

>  <ligand_id>  (23) 
14

>  <original_smiles>  (23) 
CNC(=O)C1(O)C(=O)C2(O)CCC=C1C1OC3(O)C4(C)OC(OC)C5(CC(C2O)C1(O)C1C(O)C(OC)C1(O)C1(O)C(O)C3(O)C2OC2(C)CC5[S+]1[O-])C(O)C4O

>  <smiles>  (23) 
[H]OC1(C(=O)N([H])C([H])([H])[H])C(=O)C2(O[H])C([H])([H])C([H])([H])C([H])=C1C1([H])OC3(O[H])C4(C([H])([H])[H])OC([H])(OC([H])([H])[H])C5(C([H])([H])C([H])(C2([H])O[H])C1(O[H])C1([H])C([H])(O[H])C([H])(OC([H])([H])[H])C1(O[H])C1(O[H])S(=O)C5([H])C([H])([H])C2(C([H])([H])[H])OC2([H])C3(O[H])C1([H])O[H])C([H])(O[H])C4([H])O[H]

$$$$
14:6:0
     RDKit          3D

106114  0  0  1  0  0  0  0  0999 V2000
    2.2113  -11.3981    3.8204 C   0  0  0  0  0  0  0  0  0  0  0  0
    3.5001  -10.7194    3.6736 N   0  0  0  0  0  0  0  0  0  0  0  0
    4.4654  -10.6566    4.5941 C   0  0  0  0  0  0  0  0  0  0  0  0
    4.3420  -11.2283    5.6877 O   0  0  0  0  0  0  0  0  0  0  0  0
    5.7982   -9.8898    4.3374 C   0  0  1  0  0  0  0  0  0  0  0  0
    6.6825  -10.9942    4.2913 O   0  0  0  0  0  0  0  0  0  0  0  0
    5.9776   -9.2682    2.9315 C   0  0  0  0  0  0  0  0  0  0  0  0
    5.5445   -9.8555    1.9416 O   0  0  0  0  0  0  0  0  0  0  0  0
    6.8870   -8.0109    2.7167 C   0  0  2  0  0  0  0  0  0  0  0  0
    7.2599   -8.0750    1.3336 O   0  0  0  0  0  0  0  0  0  0  0  0
    8.3513   -8.1264    3.3457 C   0  0  0  0  0  0  0  0  0  0  0  0
    8.6661   -8.9977    4.6024 C   0  0  0  0  0  0  0  0  0  0  0  0
    7.6198   -8.8314    5.6915 C   0  0  0  0  0  0  0  0  0  0  0  0
    6.3005   -8.8775    5.4086 C   0  0  0  0  0  0  0  0  0  0  0  0
    5.3456   -7.8200    6.0541 C   0  0  2  0  0  0  0  0  0  0  0  0
    3.9438   -8.3971    5.9956 O   0  0  0  0  0  0  0  0  0  0  0  0
    2.5594   -8.2798    6.5689 C   0  0  2  0  0  0  0  0  0  0  0  0
    2.4676   -9.4985    7.2874 O   0  0  0  0  0  0  0  0  0  0  0  0
    1.4439   -8.3363    5.2352 C   0  0  2  0  0  0  0  0  0  0  0  0
    0.2110   -9.0604    5.9059 C   0  0  0  0  0  0  0  0  0  0  0  0
    1.7828   -7.0775    5.2818 O   0  0  0  0  0  0  0  0  0  0  0  0
    2.8596   -6.7024    4.5020 C   0  0  1  0  0  0  0  0  0  0  0  0
    3.4217   -7.6370    3.5684 O   0  0  0  0  0  0  0  0  0  0  0  0
    2.8597   -8.1083    2.3443 C   0  0  0  0  0  0  0  0  0  0  0  0
    2.4829   -5.4126    4.0710 C   0  0  2  0  0  0  0  0  0  0  0  0
    3.9310   -5.0937    3.4385 C   0  0  0  0  0  0  0  0  0  0  0  0
    5.3743   -5.7978    3.9482 C   0  0  2  0  0  0  0  0  0  0  0  0
    6.1117   -6.5842    2.7186 C   0  0  1  0  0  0  0  0  0  0  0  0
    6.9893   -5.6392    2.0956 O   0  0  0  0  0  0  0  0  0  0  0  0
    5.7770   -6.2917    5.4919 C   0  0  2  0  0  0  0  0  0  0  0  0
    7.1526   -6.2445    5.1618 O   0  0  0  0  0  0  0  0  0  0  0  0
    6.1928   -5.1434    6.5935 C   0  0  2  0  0  0  0  0  0  0  0  0
    7.3224   -5.4550    7.6278 C   0  0  1  0  0  0  0  0  0  0  0  0
    8.4501   -4.5959    7.5945 O   0  0  0  0  0  0  0  0  0  0  0  0
    6.3324   -5.2821    8.7563 C   0  0  1  0  0  0  0  0  0  0  0  0
    6.9159   -4.5871    9.8581 O   0  0  0  0  0  0  0  0  0  0  0  0
    6.0466   -4.4308   10.9596 C   0  0  0  0  0  0  0  0  0  0  0  0
    5.4133   -4.4745    7.8075 C   0  0  1  0  0  0  0  0  0  0  0  0
    5.6890   -3.0799    7.9295 O   0  0  0  0  0  0  0  0  0  0  0  0
    3.8602   -4.5872    7.8288 C   0  0  2  0  0  0  0  0  0  0  0  0
    3.3351   -3.7450    8.8555 O   0  0  0  0  0  0  0  0  0  0  0  0
    3.4910   -6.1253    8.1398 C   0  0  1  0  0  0  0  0  0  0  0  0
    3.6886   -6.1331    9.5580 O   0  0  0  0  0  0  0  0  0  0  0  0
    2.2459   -7.0708    7.7255 C   0  0  2  0  0  0  0  0  0  0  0  0
    2.0065   -7.7792    8.9519 O   0  0  0  0  0  0  0  0  0  0  0  0
    0.8152   -6.3982    7.7073 C   0  0  1  0  0  0  0  0  0  0  0  0
    0.7671   -5.0962    8.2699 O   0  0  0  0  0  0  0  0  0  0  0  0
    0.1715   -5.1920    6.9749 C   0  0  2  0  0  0  0  0  0  0  0  0
   -1.3328   -5.0657    7.0003 C   0  0  0  0  0  0  0  0  0  0  0  0
    0.7823   -4.1933    5.9765 C   0  0  0  0  0  0  0  0  0  0  0  0
    2.1508   -4.6129    5.4221 C   0  0  2  0  0  0  0  0  0  0  0  0
    3.5694   -3.7682    6.1556 S   0  0  0  0  0  0  0  0  0  0  0  0
    3.1795   -2.2969    6.3701 O   0  0  0  0  0  0  0  0  0  0  0  0
    1.1047   -5.9086    3.4137 C   0  0  1  0  0  0  0  0  0  0  0  0
    1.0242   -5.9061    1.9950 O   0  0  0  0  0  0  0  0  0  0  0  0
    0.4882   -7.2328    4.2589 C   0  0  1  0  0  0  0  0  0  0  0  0
   -0.2398   -7.9341    3.2690 O   0  0  0  0  0  0  0  0  0  0  0  0
    2.1899  -12.2805    3.1878 H   0  0  0  0  0  0  0  0  0  0  0  0
    1.4011  -10.7559    3.4858 H   0  0  0  0  0  0  0  0  0  0  0  0
    1.9856  -11.6978    4.8452 H   0  0  0  0  0  0  0  0  0  0  0  0
    3.6823  -10.2737    2.7820 H   0  0  0  0  0  0  0  0  0  0  0  0
    6.3407  -11.5901    3.6270 H   0  0  0  0  0  0  0  0  0  0  0  0
    7.9267   -7.3944    1.2069 H   0  0  0  0  0  0  0  0  0  0  0  0
    9.0172   -8.5591    2.5975 H   0  0  0  0  0  0  0  0  0  0  0  0
    8.7765   -7.1290    3.4969 H   0  0  0  0  0  0  0  0  0  0  0  0
    8.8392  -10.0372    4.3309 H   0  0  0  0  0  0  0  0  0  0  0  0
    9.6122   -8.6792    5.0341 H   0  0  0  0  0  0  0  0  0  0  0  0
    7.9798   -8.1974    6.4756 H   0  0  0  0  0  0  0  0  0  0  0  0
    5.6979   -7.9063    7.0708 H   0  0  0  0  0  0  0  0  0  0  0  0
    2.4154  -10.2322    6.6922 H   0  0  0  0  0  0  0  0  0  0  0  0
    0.2943  -10.1467    5.7598 H   0  0  0  0  0  0  0  0  0  0  0  0
   -0.7668   -8.7961    5.4957 H   0  0  0  0  0  0  0  0  0  0  0  0
    0.0975   -8.9011    6.9855 H   0  0  0  0  0  0  0  0  0  0  0  0
    3.5258   -6.4780    5.2797 H   0  0  0  0  0  0  0  0  0  0  0  0
    1.9493   -8.6629    2.5132 H   0  0  0  0  0  0  0  0  0  0  0  0
    3.5087   -8.8330    1.8933 H   0  0  0  0  0  0  0  0  0  0  0  0
    2.7915   -7.3806    1.5438 H   0  0  0  0  0  0  0  0  0  0  0  0
    3.8421   -5.2783    2.3713 H   0  0  0  0  0  0  0  0  0  0  0  0
    4.0807   -4.0101    3.4647 H   0  0  0  0  0  0  0  0  0  0  0  0
    5.9208   -4.8476    3.9265 H   0  0  0  0  0  0  0  0  0  0  0  0
    5.3300   -6.7334    1.9780 H   0  0  0  0  0  0  0  0  0  0  0  0
    7.7121   -5.4567    2.6968 H   0  0  0  0  0  0  0  0  0  0  0  0
    7.3557   -6.9708    4.5920 H   0  0  0  0  0  0  0  0  0  0  0  0
    6.5671   -4.2726    6.0532 H   0  0  0  0  0  0  0  0  0  0  0  0
    7.6811   -6.4820    7.6211 H   0  0  0  0  0  0  0  0  0  0  0  0
    9.0461   -4.9048    8.2700 H   0  0  0  0  0  0  0  0  0  0  0  0
    6.0407   -6.2977    9.0019 H   0  0  0  0  0  0  0  0  0  0  0  0
    6.5522   -3.9242   11.7789 H   0  0  0  0  0  0  0  0  0  0  0  0
    5.6928   -5.3937   11.3251 H   0  0  0  0  0  0  0  0  0  0  0  0
    5.1900   -3.8225   10.6861 H   0  0  0  0  0  0  0  0  0  0  0  0
    5.1715   -2.6546    7.2514 H   0  0  0  0  0  0  0  0  0  0  0  0
    3.9941   -3.7496    9.5517 H   0  0  0  0  0  0  0  0  0  0  0  0
    4.3197   -6.7022    7.8208 H   0  0  0  0  0  0  0  0  0  0  0  0
    3.6052   -7.0416    9.8359 H   0  0  0  0  0  0  0  0  0  0  0  0
    2.5456   -8.5726    8.8823 H   0  0  0  0  0  0  0  0  0  0  0  0
    0.0541   -7.0679    8.0791 H   0  0  0  0  0  0  0  0  0  0  0  0
   -1.7744   -5.4540    6.0755 H   0  0  0  0  0  0  0  0  0  0  0  0
   -1.6347   -4.0261    7.1605 H   0  0  0  0  0  0  0  0  0  0  0  0
   -1.7098   -5.6572    7.8270 H   0  0  0  0  0  0  0  0  0  0  0  0
    0.0561   -3.9902    5.1881 H   0  0  0  0  0  0  0  0  0  0  0  0
    0.8641   -3.2358    6.5017 H   0  0  0  0  0  0  0  0  0  0  0  0
    2.3333   -5.2595    6.2256 H   0  0  0  0  0  0  0  0  0  0  0  0
    0.3815   -5.1218    3.5730 H   0  0  0  0  0  0  0  0  0  0  0  0
    1.6472   -6.5108    1.6225 H   0  0  0  0  0  0  0  0  0  0  0  0
   -0.3099   -6.7973    4.8873 H   0  0  0  0  0  0  0  0  0  0  0  0
   -0.5537   -8.7309    3.6770 H   0  0  0  0  0  0  0  0  0  0  0  0
  1  2  1  0
  1 58  1  0
  1 59  1  0
  1 60  1  0
  2  3  1  0
  2 61  1  0
  3  4  2  0
  3  5  1  0
  5 14  1  0
  5  6  1  6
  5  7  1  0
  6 62  1  0
  7  8  2  0
  7  9  1  0
  9 28  1  0
  9 10  1  6
  9 11  1  0
 10 63  1  0
 11 12  1  0
 11 64  1  0
 11 65  1  0
 12 13  1  0
 12 66  1  0
 12 67  1  0
 13 14  2  0
 13 68  1  0
 14 15  1  0
 15 30  1  0
 15 16  1  0
 15 69  1  1
 16 17  1  0
 17 44  1  0
 17 18  1  1
 17 19  1  0
 18 70  1  0
 19 56  1  0
 19 20  1  6
 19 21  1  0
 20 71  1  0
 20 72  1  0
 20 73  1  0
 21 22  1  0
 22 23  1  0
 22 25  1  0
 22 74  1  1
 23 24  1  0
 24 75  1  0
 24 76  1  0
 24 77  1  0
 25 51  1  0
 25 26  1  6
 25 54  1  0
 26 27  1  0
 26 78  1  0
 26 79  1  0
 27 28  1  0
 27 30  1  0
 27 80  1  1
 28 29  1  0
 28 81  1  6
 29 82  1  0
 30 31  1  6
 30 32  1  0
 31 83  1  0
 32 38  1  0
 32 33  1  0
 32 84  1  6
 33 34  1  0
 33 35  1  0
 33 85  1  6
 34 86  1  0
 35 36  1  0
 35 38  1  0
 35 87  1  1
 36 37  1  0
 37 88  1  0
 37 89  1  0
 37 90  1  0
 38 39  1  1
 38 40  1  0
 39 91  1  0
 52 40  1  1
 40 41  1  1
 40 42  1  0
 41 92  1  0
 42 43  1  0
 42 44  1  0
 42 93  1  6
 43 94  1  0
 44 45  1  1
 44 46  1  0
 45 95  1  0
 46 48  1  0
 46 47  1  0
 46 96  1  1
 47 48  1  0
 48 49  1  1
 48 50  1  0
 49 97  1  0
 49 98  1  0
 49 99  1  0
 50 51  1  0
 50100  1  0
 50101  1  0
 51 52  1  0
 51102  1  1
 52 53  2  0
 54 55  1  0
 54 56  1  0
 54103  1  1
 55104  1  0
 56 57  1  0
 56105  1  1
 57106  1  0
M  END
>  <i_m_ct_stereo_status>  (24) 
1

>  <s_m_source_file>  (24) 
/var/tmp/pbs.5075288.sched01/tmpzl_yb0kw/0ymjshsm9.sdf

>  <i_m_source_file_index>  (24) 
54

>  <i_lp_mmshare_version>  (24) 
48012

>  <i_f3d_flags>  (24) 
0

>  <s_epik_input>  (24) 
W09IXVtDQEhdMVtDQEBIXShPW0NIM10pW0NAXShbT0hdKShbQ0BAXShbT0hdKShbUytdMltPLV0pW0NASF0zW09IXSlbQ0BIXTFbQ0BdNChbT0hdKVtDQEhdKFtDSDJdNSlbQ0BASF0oW09IXSlbQ0BdKFtPSF0pKEMoPU8pW0NAXTYoW09IXSlDKD1PKVtOSF1bQ0gzXSlbQ0gyXVtDSDJdW0NIXT1DNltDQEBIXTRPW0NAXShbT0hdKShbQ0BdKFtDSDNdKShbQ0BIXShbT0hdKVtDQEBIXTdbT0hdKU9bQ0BIXThPW0NIM10pW0NAXTMoW09IXSlbQ0BASF0oTzkpW0NAXTkoW0NIM10pW0NIMl1bQ0BASF0yQzU3OA==

>  <s_epik_cmdline>  (24) 
J2VwaWtfcHl0aG9uJywgJy1waHQnLCAnMi4wJywgJy1waCcsICc3LjAnLCAnLXRuJywgJzgnLCAnLW1hJywgJzIwMCcsICctaW1hZScsICc8aW5maWxlLm1hZT4nLCAnLW9tYWUnLCAnPG91dGZpbGUubWFlPic=

>  <r_lp_tautomer_probability>  (24) 
1

>  <r_epik_Ionization_Penalty>  (24) 
1.40957e-05

>  <r_epik_Ionization_Penalty_Charging>  (24) 
0

>  <r_epik_Ionization_Penalty_Neutral>  (24) 
1.40957e-05

>  <r_epik_State_Penalty>  (24) 
0

>  <r_epik_Charging_Adjusted_Penalty>  (24) 
0

>  <i_epik_Tot_Q>  (24) 
0

>  <i_epik_Tot_abs_Q>  (24) 
2

>  <s_epik_Chemistry_Notes>  (24) 
This compound contains an acetal/aminal-like group ( X-CH(R)-Y where X, Y are N, S, or O) that may be acid/base labile, releasing an aldehyde.

>  <s_lp_Force_Field>  (24) 
OPLS3e

>  <r_lp_Energy>  (24) 
634.907

>  <b_lp_Chiralities_Consistent>  (24) 
1

>  <s_lp_Variant>  (24) 
14:0-7

>  <s_i_glide_gridfile>  (24) 
pfpi4k_grid

>  <i_i_glide_lignum>  (24) 
54

>  <i_i_glide_rotatable_bonds>  (24) 
16

>  <r_i_docking_score>  (24) 
-3.57251

>  <r_i_glide_ligand_efficiency>  (24) 
-0.0626756

>  <r_i_glide_ligand_efficiency_sa>  (24) 
-0.241207

>  <r_i_glide_ligand_efficiency_ln>  (24) 
-0.708402

>  <r_i_glide_gscore>  (24) 
-3.57251

>  <r_i_glide_lipo>  (24) 
-0.116175

>  <r_i_glide_hbond>  (24) 
0

>  <r_i_glide_metal>  (24) 
-0

>  <r_i_glide_rewards>  (24) 
-1

>  <r_i_glide_evdw>  (24) 
-27.7417

>  <r_i_glide_ecoul>  (24) 
-7.06281

>  <r_i_glide_erotb>  (24) 
0.0313225

>  <r_i_glide_esite>  (24) 
-0.0411534

>  <r_i_glide_emodel>  (24) 
-47.8913

>  <r_i_glide_energy>  (24) 
-34.8045

>  <r_i_glide_einternal>  (24) 
6.66975

>  <r_i_glide_intrahb_reward>  (24) 
-1

>  <i_i_glide_confnum>  (24) 
2

>  <i_i_glide_posenum>  (24) 
10

>  <r_i_glide_eff_state_penalty>  (24) 
0

>  <ligand_id>  (24) 
14

>  <original_smiles>  (24) 
CNC(=O)C1(O)C(=O)C2(O)CCC=C1C1OC3(O)C4(C)OC(OC)C5(CC(C2O)C1(O)C1C(O)C(OC)C1(O)C1(O)C(O)C3(O)C2OC2(C)CC5[S+]1[O-])C(O)C4O

>  <smiles>  (24) 
[H]OC1(C(=O)N([H])C([H])([H])[H])C(=O)C2(O[H])C([H])([H])C([H])([H])C([H])=C1C1([H])OC3(O[H])C4(C([H])([H])[H])OC([H])(OC([H])([H])[H])C5(C([H])([H])C([H])(C2([H])O[H])C1(O[H])C1([H])C([H])(O[H])C([H])(OC([H])([H])[H])C1(O[H])C1(O[H])S(=O)C5([H])C([H])([H])C2(C([H])([H])[H])OC2([H])C3(O[H])C1([H])O[H])C([H])(O[H])C4([H])O[H]

$$$$
14:6:1
     RDKit          3D

106114  0  0  1  0  0  0  0  0999 V2000
    3.7962  -10.2687    7.4390 C   0  0  0  0  0  0  0  0  0  0  0  0
    4.2740   -9.6511    6.1982 N   0  0  0  0  0  0  0  0  0  0  0  0
    5.2522   -8.7492    6.0917 C   0  0  0  0  0  0  0  0  0  0  0  0
    5.8768   -8.3653    7.0925 O   0  0  0  0  0  0  0  0  0  0  0  0
    5.6727   -8.1583    4.7046 C   0  0  1  0  0  0  0  0  0  0  0  0
    6.9555   -8.7393    4.6037 O   0  0  0  0  0  0  0  0  0  0  0  0
    4.9435   -8.7171    3.4527 C   0  0  0  0  0  0  0  0  0  0  0  0
    4.6308   -9.9059    3.4070 O   0  0  0  0  0  0  0  0  0  0  0  0
    4.7645   -7.8410    2.1606 C   0  0  2  0  0  0  0  0  0  0  0  0
    4.5839   -8.7788    1.0976 O   0  0  0  0  0  0  0  0  0  0  0  0
    6.1202   -7.1936    1.6200 C   0  0  0  0  0  0  0  0  0  0  0  0
    7.3066   -6.7993    2.5647 C   0  0  0  0  0  0  0  0  0  0  0  0
    6.8265   -6.1165    3.8321 C   0  0  0  0  0  0  0  0  0  0  0  0
    5.8028   -6.6181    4.5660 C   0  0  0  0  0  0  0  0  0  0  0  0
    4.7172   -5.6265    5.1013 C   0  0  2  0  0  0  0  0  0  0  0  0
    4.0334   -6.3236    6.2593 O   0  0  0  0  0  0  0  0  0  0  0  0
    3.1441   -6.1159    7.4524 C   0  0  2  0  0  0  0  0  0  0  0  0
    4.0336   -6.4617    8.4951 O   0  0  0  0  0  0  0  0  0  0  0  0
    1.9083   -7.3358    7.4070 C   0  0  2  0  0  0  0  0  0  0  0  0
    1.6730   -7.5839    8.9475 C   0  0  0  0  0  0  0  0  0  0  0  0
    1.4268   -6.3941    6.6572 O   0  0  0  0  0  0  0  0  0  0  0  0
    1.7158   -6.4867    5.3032 C   0  0  1  0  0  0  0  0  0  0  0  0
    2.3521   -7.6665    4.7919 O   0  0  0  0  0  0  0  0  0  0  0  0
    1.8049   -8.9872    4.6509 C   0  0  0  0  0  0  0  0  0  0  0  0
    0.5200   -6.0123    4.7104 C   0  0  2  0  0  0  0  0  0  0  0  0
    1.1656   -5.9651    3.2315 C   0  0  0  0  0  0  0  0  0  0  0  0
    2.7996   -5.7801    2.9288 C   0  0  2  0  0  0  0  0  0  0  0  0
    3.3583   -7.0317    2.0596 C   0  0  1  0  0  0  0  0  0  0  0  0
    3.1866   -6.6123    0.7139 O   0  0  0  0  0  0  0  0  0  0  0  0
    3.9223   -4.9215    3.7959 C   0  0  2  0  0  0  0  0  0  0  0  0
    4.7781   -4.8559    2.6679 O   0  0  0  0  0  0  0  0  0  0  0  0
    3.9074   -3.2940    3.6580 C   0  0  2  0  0  0  0  0  0  0  0  0
    5.2549   -2.5163    3.6520 C   0  0  1  0  0  0  0  0  0  0  0  0
    5.5919   -1.7818    2.4764 O   0  0  0  0  0  0  0  0  0  0  0  0
    4.8414   -1.7814    4.9019 C   0  0  1  0  0  0  0  0  0  0  0  0
    5.2056   -0.4061    4.8523 O   0  0  0  0  0  0  0  0  0  0  0  0
    4.8533    0.3244    6.0134 C   0  0  0  0  0  0  0  0  0  0  0  0
    3.3585   -2.1455    4.5971 C   0  0  1  0  0  0  0  0  0  0  0  0
    2.7678   -1.1135    3.8340 O   0  0  0  0  0  0  0  0  0  0  0  0
    2.3128   -2.4960    5.6861 C   0  0  2  0  0  0  0  0  0  0  0  0
    1.8116   -1.3117    6.2919 O   0  0  0  0  0  0  0  0  0  0  0  0
    3.0844   -3.3652    6.8067 C   0  0  1  0  0  0  0  0  0  0  0  0
    3.7278   -2.3197    7.5352 O   0  0  0  0  0  0  0  0  0  0  0  0
    2.6161   -4.5365    7.8127 C   0  0  2  0  0  0  0  0  0  0  0  0
    3.3154   -4.1786    9.0125 O   0  0  0  0  0  0  0  0  0  0  0  0
    1.1733   -4.3794    8.4465 C   0  0  1  0  0  0  0  0  0  0  0  0
    0.5496   -3.1165    8.2393 O   0  0  0  0  0  0  0  0  0  0  0  0
   -0.2615   -4.2338    7.8950 C   0  0  2  0  0  0  0  0  0  0  0  0
   -1.4193   -4.4683    8.8384 C   0  0  0  0  0  0  0  0  0  0  0  0
   -0.7716   -4.1867    6.4517 C   0  0  0  0  0  0  0  0  0  0  0  0
    0.2778   -4.5883    5.3941 C   0  0  2  0  0  0  0  0  0  0  0  0
    1.0061   -3.1984    4.5090 S   0  0  0  0  0  0  0  0  0  0  0  0
   -0.1208   -2.1850    4.2994 O   0  0  0  0  0  0  0  0  0  0  0  0
   -0.3971   -7.1115    5.4156 C   0  0  1  0  0  0  0  0  0  0  0  0
   -0.9359   -8.1164    4.5763 O   0  0  0  0  0  0  0  0  0  0  0  0
    0.2404   -7.5201    6.9352 C   0  0  1  0  0  0  0  0  0  0  0  0
   -0.1764   -8.8616    7.1885 O   0  0  0  0  0  0  0  0  0  0  0  0
    4.0894  -11.3178    7.4844 H   0  0  0  0  0  0  0  0  0  0  0  0
    2.7081  -10.2466    7.4854 H   0  0  0  0  0  0  0  0  0  0  0  0
    4.1626   -9.7697    8.3382 H   0  0  0  0  0  0  0  0  0  0  0  0
    3.7970   -9.9122    5.3436 H   0  0  0  0  0  0  0  0  0  0  0  0
    6.8391   -9.6831    4.6665 H   0  0  0  0  0  0  0  0  0  0  0  0
    4.0090   -9.4753    1.3910 H   0  0  0  0  0  0  0  0  0  0  0  0
    6.5906   -7.8879    0.9165 H   0  0  0  0  0  0  0  0  0  0  0  0
    5.8790   -6.3415    0.9817 H   0  0  0  0  0  0  0  0  0  0  0  0
    7.9645   -7.6490    2.7563 H   0  0  0  0  0  0  0  0  0  0  0  0
    7.9565   -6.0850    2.0555 H   0  0  0  0  0  0  0  0  0  0  0  0
    6.9835   -5.0563    3.7950 H   0  0  0  0  0  0  0  0  0  0  0  0
    5.3791   -4.8823    5.5203 H   0  0  0  0  0  0  0  0  0  0  0  0
    4.2622   -7.3774    8.4077 H   0  0  0  0  0  0  0  0  0  0  0  0
    2.3217   -8.3972    9.2879 H   0  0  0  0  0  0  0  0  0  0  0  0
    0.6658   -7.9091    9.1993 H   0  0  0  0  0  0  0  0  0  0  0  0
    1.8591   -6.7314    9.6018 H   0  0  0  0  0  0  0  0  0  0  0  0
    2.3344   -5.6417    5.2439 H   0  0  0  0  0  0  0  0  0  0  0  0
    1.5842   -9.4162    5.6168 H   0  0  0  0  0  0  0  0  0  0  0  0
    2.5343   -9.6657    4.2506 H   0  0  0  0  0  0  0  0  0  0  0  0
    1.0191   -9.1217    3.9173 H   0  0  0  0  0  0  0  0  0  0  0  0
    0.8261   -6.8733    2.7353 H   0  0  0  0  0  0  0  0  0  0  0  0
    0.6460   -5.1921    2.6635 H   0  0  0  0  0  0  0  0  0  0  0  0
    2.6207   -5.0356    2.1511 H   0  0  0  0  0  0  0  0  0  0  0  0
    2.6154   -7.8183    2.1771 H   0  0  0  0  0  0  0  0  0  0  0  0
    3.8463   -5.9512    0.5175 H   0  0  0  0  0  0  0  0  0  0  0  0
    5.2109   -5.6891    2.5583 H   0  0  0  0  0  0  0  0  0  0  0  0
    3.4664   -3.0465    2.6911 H   0  0  0  0  0  0  0  0  0  0  0  0
    6.0874   -3.1627    3.9062 H   0  0  0  0  0  0  0  0  0  0  0  0
    4.8356   -1.2854    2.1855 H   0  0  0  0  0  0  0  0  0  0  0  0
    5.3397   -2.3226    5.7048 H   0  0  0  0  0  0  0  0  0  0  0  0
    5.2164    1.3499    5.9562 H   0  0  0  0  0  0  0  0  0  0  0  0
    5.2511   -0.1246    6.9237 H   0  0  0  0  0  0  0  0  0  0  0  0
    3.7729    0.3698    6.0959 H   0  0  0  0  0  0  0  0  0  0  0  0
    3.5078   -0.6520    3.4660 H   0  0  0  0  0  0  0  0  0  0  0  0
    2.5713   -0.7584    6.4606 H   0  0  0  0  0  0  0  0  0  0  0  0
    3.9240   -3.8089    6.3408 H   0  0  0  0  0  0  0  0  0  0  0  0
    4.0444   -2.7474    8.3314 H   0  0  0  0  0  0  0  0  0  0  0  0
    4.1313   -4.6843    8.9815 H   0  0  0  0  0  0  0  0  0  0  0  0
    1.1518   -4.7206    9.4757 H   0  0  0  0  0  0  0  0  0  0  0  0
   -1.8291   -5.4515    8.6679 H   0  0  0  0  0  0  0  0  0  0  0  0
   -2.2211   -3.7548    8.6788 H   0  0  0  0  0  0  0  0  0  0  0  0
   -1.0794   -4.3976    9.8690 H   0  0  0  0  0  0  0  0  0  0  0  0
   -1.6742   -4.7845    6.4100 H   0  0  0  0  0  0  0  0  0  0  0  0
   -1.1148   -3.1672    6.2753 H   0  0  0  0  0  0  0  0  0  0  0  0
    1.0790   -4.3940    6.0364 H   0  0  0  0  0  0  0  0  0  0  0  0
   -1.3257   -6.6044    5.6296 H   0  0  0  0  0  0  0  0  0  0  0  0
   -1.2303   -8.8570    5.1003 H   0  0  0  0  0  0  0  0  0  0  0  0
   -0.3769   -6.9404    7.6379 H   0  0  0  0  0  0  0  0  0  0  0  0
    0.2654   -9.4318    6.5728 H   0  0  0  0  0  0  0  0  0  0  0  0
  1  2  1  0
  1 58  1  0
  1 59  1  0
  1 60  1  0
  2  3  1  0
  2 61  1  0
  3  4  2  0
  3  5  1  0
  5 14  1  0
  5  6  1  6
  5  7  1  0
  6 62  1  0
  7  8  2  0
  7  9  1  0
  9 28  1  0
  9 10  1  6
  9 11  1  0
 10 63  1  0
 11 12  1  0
 11 64  1  0
 11 65  1  0
 12 13  1  0
 12 66  1  0
 12 67  1  0
 13 14  2  0
 13 68  1  0
 14 15  1  0
 15 30  1  0
 15 16  1  0
 15 69  1  1
 16 17  1  0
 17 44  1  0
 17 18  1  1
 17 19  1  0
 18 70  1  0
 19 56  1  0
 19 20  1  6
 19 21  1  0
 20 71  1  0
 20 72  1  0
 20 73  1  0
 21 22  1  0
 22 23  1  0
 22 25  1  0
 22 74  1  1
 23 24  1  0
 24 75  1  0
 24 76  1  0
 24 77  1  0
 25 51  1  0
 25 26  1  6
 25 54  1  0
 26 27  1  0
 26 78  1  0
 26 79  1  0
 27 28  1  0
 27 30  1  0
 27 80  1  6
 28 29  1  0
 28 81  1  6
 29 82  1  0
 30 31  1  6
 30 32  1  0
 31 83  1  0
 32 38  1  0
 32 33  1  0
 32 84  1  6
 33 34  1  0
 33 35  1  0
 33 85  1  1
 34 86  1  0
 35 36  1  0
 35 38  1  0
 35 87  1  1
 36 37  1  0
 37 88  1  0
 37 89  1  0
 37 90  1  0
 38 39  1  6
 38 40  1  0
 39 91  1  0
 52 40  1  1
 40 41  1  1
 40 42  1  0
 41 92  1  0
 42 43  1  0
 42 44  1  0
 42 93  1  6
 43 94  1  0
 44 45  1  1
 44 46  1  0
 45 95  1  0
 46 48  1  0
 46 47  1  0
 46 96  1  1
 47 48  1  0
 48 49  1  1
 48 50  1  0
 49 97  1  0
 49 98  1  0
 49 99  1  0
 50 51  1  0
 50100  1  0
 50101  1  0
 51 52  1  0
 51102  1  1
 52 53  2  0
 54 55  1  0
 54 56  1  0
 54103  1  1
 55104  1  0
 56 57  1  0
 56105  1  1
 57106  1  0
M  END
>  <i_m_ct_stereo_status>  (25) 
1

>  <s_m_source_file>  (25) 
/var/tmp/pbs.5075288.sched01/tmpzl_yb0kw/0ymjshsm9.sdf

>  <i_m_source_file_index>  (25) 
54

>  <i_lp_mmshare_version>  (25) 
48012

>  <i_f3d_flags>  (25) 
0

>  <s_epik_input>  (25) 
W09IXVtDQEhdMVtDQEBIXShPW0NIM10pW0NAXShbT0hdKShbQ0BAXShbT0hdKShbUytdMltPLV0pW0NASF0zW09IXSlbQ0BIXTFbQ0BdNChbT0hdKVtDQEhdKFtDSDJdNSlbQ0BASF0oW09IXSlbQ0BdKFtPSF0pKEMoPU8pW0NAXTYoW09IXSlDKD1PKVtOSF1bQ0gzXSlbQ0gyXVtDSDJdW0NIXT1DNltDQEBIXTRPW0NAXShbT0hdKShbQ0BdKFtDSDNdKShbQ0BIXShbT0hdKVtDQEBIXTdbT0hdKU9bQ0BIXThPW0NIM10pW0NAXTMoW09IXSlbQ0BASF0oTzkpW0NAXTkoW0NIM10pW0NIMl1bQ0BASF0yQzU3OA==

>  <s_epik_cmdline>  (25) 
J2VwaWtfcHl0aG9uJywgJy1waHQnLCAnMi4wJywgJy1waCcsICc3LjAnLCAnLXRuJywgJzgnLCAnLW1hJywgJzIwMCcsICctaW1hZScsICc8aW5maWxlLm1hZT4nLCAnLW9tYWUnLCAnPG91dGZpbGUubWFlPic=

>  <r_lp_tautomer_probability>  (25) 
1

>  <r_epik_Ionization_Penalty>  (25) 
1.40957e-05

>  <r_epik_Ionization_Penalty_Charging>  (25) 
0

>  <r_epik_Ionization_Penalty_Neutral>  (25) 
1.40957e-05

>  <r_epik_State_Penalty>  (25) 
0

>  <r_epik_Charging_Adjusted_Penalty>  (25) 
0

>  <i_epik_Tot_Q>  (25) 
0

>  <i_epik_Tot_abs_Q>  (25) 
2

>  <s_epik_Chemistry_Notes>  (25) 
This compound contains an acetal/aminal-like group ( X-CH(R)-Y where X, Y are N, S, or O) that may be acid/base labile, releasing an aldehyde.

>  <s_lp_Force_Field>  (25) 
OPLS3e

>  <r_lp_Energy>  (25) 
634.907

>  <b_lp_Chiralities_Consistent>  (25) 
1

>  <s_lp_Variant>  (25) 
14:0-7

>  <s_i_glide_gridfile>  (25) 
pfpi4k_grid

>  <i_i_glide_lignum>  (25) 
54

>  <i_i_glide_rotatable_bonds>  (25) 
16

>  <r_i_docking_score>  (25) 
-3.11911

>  <r_i_glide_ligand_efficiency>  (25) 
-0.0547212

>  <r_i_glide_ligand_efficiency_sa>  (25) 
-0.210595

>  <r_i_glide_ligand_efficiency_ln>  (25) 
-0.618496

>  <r_i_glide_gscore>  (25) 
-3.11911

>  <r_i_glide_lipo>  (25) 
-0.213202

>  <r_i_glide_hbond>  (25) 
0

>  <r_i_glide_metal>  (25) 
-0

>  <r_i_glide_rewards>  (25) 
-1.52628

>  <r_i_glide_evdw>  (25) 
-24.8999

>  <r_i_glide_ecoul>  (25) 
-1.79043

>  <r_i_glide_erotb>  (25) 
0.0313225

>  <r_i_glide_esite>  (25) 
-0.0135643

>  <r_i_glide_emodel>  (25) 
-41.3

>  <r_i_glide_energy>  (25) 
-26.6903

>  <r_i_glide_einternal>  (25) 
7.54145

>  <r_i_glide_intrahb_reward>  (25) 
-1.5

>  <i_i_glide_confnum>  (25) 
4

>  <i_i_glide_posenum>  (25) 
11

>  <r_i_glide_eff_state_penalty>  (25) 
0

>  <ligand_id>  (25) 
14

>  <original_smiles>  (25) 
CNC(=O)C1(O)C(=O)C2(O)CCC=C1C1OC3(O)C4(C)OC(OC)C5(CC(C2O)C1(O)C1C(O)C(OC)C1(O)C1(O)C(O)C3(O)C2OC2(C)CC5[S+]1[O-])C(O)C4O

>  <smiles>  (25) 
[H]OC1(C(=O)N([H])C([H])([H])[H])C(=O)C2(O[H])C([H])([H])C([H])([H])C([H])=C1C1([H])OC3(O[H])C4(C([H])([H])[H])OC([H])(OC([H])([H])[H])C5(C([H])([H])C([H])(C2([H])O[H])C1(O[H])C1([H])C([H])(O[H])C([H])(OC([H])([H])[H])C1(O[H])C1(O[H])S(=O)C5([H])C([H])([H])C2(C([H])([H])[H])OC2([H])C3(O[H])C1([H])O[H])C([H])(O[H])C4([H])O[H]

$$$$
14:6:2
     RDKit          3D

106114  0  0  1  0  0  0  0  0999 V2000
    2.2827  -11.3857    3.7518 C   0  0  0  0  0  0  0  0  0  0  0  0
    3.5827  -10.7225    3.6247 N   0  0  0  0  0  0  0  0  0  0  0  0
    4.5558  -10.6914    4.5349 C   0  0  0  0  0  0  0  0  0  0  0  0
    4.4543  -11.3031    5.6102 O   0  0  0  0  0  0  0  0  0  0  0  0
    5.8946   -9.9287    4.2950 C   0  0  1  0  0  0  0  0  0  0  0  0
    6.7702  -11.0448    4.2893 O   0  0  0  0  0  0  0  0  0  0  0  0
    6.0965   -9.2985    2.8938 C   0  0  0  0  0  0  0  0  0  0  0  0
    5.6673   -9.8750    1.8960 O   0  0  0  0  0  0  0  0  0  0  0  0
    7.0013   -8.0403    2.6998 C   0  0  2  0  0  0  0  0  0  0  0  0
    7.3913   -8.0876    1.3202 O   0  0  0  0  0  0  0  0  0  0  0  0
    8.4545   -8.1721    3.3578 C   0  0  0  0  0  0  0  0  0  0  0  0
    8.7444   -9.0412    4.6258 C   0  0  0  0  0  0  0  0  0  0  0  0
    7.6802   -8.8806    5.6935 C   0  0  0  0  0  0  0  0  0  0  0  0
    6.3687   -8.9152    5.3802 C   0  0  0  0  0  0  0  0  0  0  0  0
    5.4175   -7.8502    6.0272 C   0  0  2  0  0  0  0  0  0  0  0  0
    4.0140   -8.4297    5.9743 O   0  0  0  0  0  0  0  0  0  0  0  0
    2.6134   -8.3030    6.5018 C   0  0  2  0  0  0  0  0  0  0  0  0
    2.4536   -9.5551    7.1499 O   0  0  0  0  0  0  0  0  0  0  0  0
    1.5245   -8.3469    5.1584 C   0  0  2  0  0  0  0  0  0  0  0  0
    0.2605   -9.0559    5.7890 C   0  0  0  0  0  0  0  0  0  0  0  0
    1.8636   -7.0873    5.1956 O   0  0  0  0  0  0  0  0  0  0  0  0
    2.9708   -6.7197    4.4528 C   0  0  1  0  0  0  0  0  0  0  0  0
    3.5405   -7.6592    3.5216 O   0  0  0  0  0  0  0  0  0  0  0  0
    2.9754   -8.1332    2.2945 C   0  0  0  0  0  0  0  0  0  0  0  0
    2.6047   -5.4229    4.0077 C   0  0  2  0  0  0  0  0  0  0  0  0
    4.0609   -5.1068    3.3960 C   0  0  0  0  0  0  0  0  0  0  0  0
    5.4883   -5.8183    3.9234 C   0  0  2  0  0  0  0  0  0  0  0  0
    6.2366   -6.6047    2.7030 C   0  0  1  0  0  0  0  0  0  0  0  0
    7.1242   -5.6531    2.1042 O   0  0  0  0  0  0  0  0  0  0  0  0
    5.8673   -6.3165    5.4723 C   0  0  2  0  0  0  0  0  0  0  0  0
    7.2452   -6.2935    5.1556 O   0  0  0  0  0  0  0  0  0  0  0  0
    6.2799   -5.1814    6.5781 C   0  0  2  0  0  0  0  0  0  0  0  0
    7.3986   -5.4971    7.6302 C   0  0  1  0  0  0  0  0  0  0  0  0
    8.5643   -4.6790    7.6294 O   0  0  0  0  0  0  0  0  0  0  0  0
    6.3928   -5.3215    8.7491 C   0  0  1  0  0  0  0  0  0  0  0  0
    6.9416   -4.6019    9.8512 O   0  0  0  0  0  0  0  0  0  0  0  0
    6.0503   -4.4557   10.9441 C   0  0  0  0  0  0  0  0  0  0  0  0
    5.4747   -4.5273    7.7751 C   0  0  1  0  0  0  0  0  0  0  0  0
    5.7498   -3.1346    7.8911 O   0  0  0  0  0  0  0  0  0  0  0  0
    3.9153   -4.6253    7.7857 C   0  0  2  0  0  0  0  0  0  0  0  0
    3.3449   -3.8277    8.8330 O   0  0  0  0  0  0  0  0  0  0  0  0
    3.5269   -6.1731    8.0989 C   0  0  1  0  0  0  0  0  0  0  0  0
    3.6709   -6.2242    9.5210 O   0  0  0  0  0  0  0  0  0  0  0  0
    2.2806   -7.1030    7.6640 C   0  0  2  0  0  0  0  0  0  0  0  0
    1.9399   -7.8070    8.8674 O   0  0  0  0  0  0  0  0  0  0  0  0
    0.8593   -6.4213    7.6200 C   0  0  1  0  0  0  0  0  0  0  0  0
    0.8015   -5.1246    8.2050 O   0  0  0  0  0  0  0  0  0  0  0  0
    0.2284   -5.1971    6.8999 C   0  0  2  0  0  0  0  0  0  0  0  0
   -1.2801   -5.0833    6.9018 C   0  0  0  0  0  0  0  0  0  0  0  0
    0.8588   -4.2099    5.8943 C   0  0  0  0  0  0  0  0  0  0  0  0
    2.2457   -4.6245    5.3578 C   0  0  2  0  0  0  0  0  0  0  0  0
    3.6374   -3.7590    6.1186 S   0  0  0  0  0  0  0  0  0  0  0  0
    3.1937   -2.3078    6.3545 O   0  0  0  0  0  0  0  0  0  0  0  0
    1.2437   -5.9214    3.3190 C   0  0  1  0  0  0  0  0  0  0  0  0
    1.1814   -5.8693    1.9047 O   0  0  0  0  0  0  0  0  0  0  0  0
    0.6068   -7.2563    4.1423 C   0  0  1  0  0  0  0  0  0  0  0  0
   -0.1397   -7.9511    3.1617 O   0  0  0  0  0  0  0  0  0  0  0  0
    2.2619  -12.2728    3.1246 H   0  0  0  0  0  0  0  0  0  0  0  0
    1.4811  -10.7389    3.3962 H   0  0  0  0  0  0  0  0  0  0  0  0
    2.0408  -11.6695    4.7779 H   0  0  0  0  0  0  0  0  0  0  0  0
    3.7671  -10.2616    2.7415 H   0  0  0  0  0  0  0  0  0  0  0  0
    6.5945  -11.5313    5.0894 H   0  0  0  0  0  0  0  0  0  0  0  0
    8.0347   -7.3973    1.1827 H   0  0  0  0  0  0  0  0  0  0  0  0
    9.1407   -8.6078    2.6293 H   0  0  0  0  0  0  0  0  0  0  0  0
    8.8831   -7.1786    3.5112 H   0  0  0  0  0  0  0  0  0  0  0  0
    8.9249  -10.0807    4.3582 H   0  0  0  0  0  0  0  0  0  0  0  0
    9.6851   -8.7244    5.0685 H   0  0  0  0  0  0  0  0  0  0  0  0
    8.0187   -8.2557    6.4994 H   0  0  0  0  0  0  0  0  0  0  0  0
    5.7505   -7.9325    7.0563 H   0  0  0  0  0  0  0  0  0  0  0  0
    3.1793   -9.7068    7.7384 H   0  0  0  0  0  0  0  0  0  0  0  0
    0.3440  -10.1351    5.6426 H   0  0  0  0  0  0  0  0  0  0  0  0
   -0.7041   -8.8012    5.3554 H   0  0  0  0  0  0  0  0  0  0  0  0
    0.1231   -8.9115    6.8606 H   0  0  0  0  0  0  0  0  0  0  0  0
    3.6316   -6.4915    5.2332 H   0  0  0  0  0  0  0  0  0  0  0  0
    2.0582   -8.6809    2.4511 H   0  0  0  0  0  0  0  0  0  0  0  0
    3.6072   -8.8706    1.8347 H   0  0  0  0  0  0  0  0  0  0  0  0
    2.9098   -7.4003    1.5021 H   0  0  0  0  0  0  0  0  0  0  0  0
    3.9826   -5.2738    2.3250 H   0  0  0  0  0  0  0  0  0  0  0  0
    4.1996   -4.0235    3.4320 H   0  0  0  0  0  0  0  0  0  0  0  0
    6.0300   -4.8677    3.9237 H   0  0  0  0  0  0  0  0  0  0  0  0
    5.4679   -6.7388    1.9476 H   0  0  0  0  0  0  0  0  0  0  0  0
    7.8334   -5.4662    2.7133 H   0  0  0  0  0  0  0  0  0  0  0  0
    7.4388   -7.0223    4.5849 H   0  0  0  0  0  0  0  0  0  0  0  0
    6.6438   -4.3108    6.0323 H   0  0  0  0  0  0  0  0  0  0  0  0
    7.7363   -6.5306    7.6241 H   0  0  0  0  0  0  0  0  0  0  0  0
    8.3099   -3.7829    7.7928 H   0  0  0  0  0  0  0  0  0  0  0  0
    6.0744   -6.3257    9.0288 H   0  0  0  0  0  0  0  0  0  0  0  0
    6.5505   -3.9603   11.7731 H   0  0  0  0  0  0  0  0  0  0  0  0
    5.6750   -5.4145   11.3036 H   0  0  0  0  0  0  0  0  0  0  0  0
    5.2067   -3.8348   10.6579 H   0  0  0  0  0  0  0  0  0  0  0  0
    6.6607   -3.0686    8.1246 H   0  0  0  0  0  0  0  0  0  0  0  0
    3.9994   -3.7637    9.5235 H   0  0  0  0  0  0  0  0  0  0  0  0
    4.3632   -6.7478    7.8175 H   0  0  0  0  0  0  0  0  0  0  0  0
    2.9483   -5.7005    9.8648 H   0  0  0  0  0  0  0  0  0  0  0  0
    2.6623   -8.3840    9.0761 H   0  0  0  0  0  0  0  0  0  0  0  0
    0.0679   -7.0825    7.9510 H   0  0  0  0  0  0  0  0  0  0  0  0
   -1.6945   -5.4687    5.9692 H   0  0  0  0  0  0  0  0  0  0  0  0
   -1.6018   -4.0517    7.0442 H   0  0  0  0  0  0  0  0  0  0  0  0
   -1.6964   -5.6771    7.7118 H   0  0  0  0  0  0  0  0  0  0  0  0
    0.1480   -4.0096    5.0924 H   0  0  0  0  0  0  0  0  0  0  0  0
    0.9303   -3.2495    6.4078 H   0  0  0  0  0  0  0  0  0  0  0  0
    2.4198   -5.2673    6.1680 H   0  0  0  0  0  0  0  0  0  0  0  0
    0.5152   -5.1375    3.4724 H   0  0  0  0  0  0  0  0  0  0  0  0
    1.8346   -6.4518    1.5381 H   0  0  0  0  0  0  0  0  0  0  0  0
   -0.2072   -6.8105    4.7323 H   0  0  0  0  0  0  0  0  0  0  0  0
    0.4479   -8.5253    2.6888 H   0  0  0  0  0  0  0  0  0  0  0  0
  1  2  1  0
  1 58  1  0
  1 59  1  0
  1 60  1  0
  2  3  1  0
  2 61  1  0
  3  4  2  0
  3  5  1  0
  5 14  1  0
  5  6  1  6
  5  7  1  0
  6 62  1  0
  7  8  2  0
  7  9  1  0
  9 28  1  0
  9 10  1  6
  9 11  1  0
 10 63  1  0
 11 12  1  0
 11 64  1  0
 11 65  1  0
 12 13  1  0
 12 66  1  0
 12 67  1  0
 13 14  2  0
 13 68  1  0
 14 15  1  0
 15 30  1  0
 15 16  1  0
 15 69  1  1
 16 17  1  0
 17 44  1  0
 17 18  1  1
 17 19  1  0
 18 70  1  0
 19 56  1  0
 19 20  1  6
 19 21  1  0
 20 71  1  0
 20 72  1  0
 20 73  1  0
 21 22  1  0
 22 23  1  0
 22 25  1  0
 22 74  1  1
 23 24  1  0
 24 75  1  0
 24 76  1  0
 24 77  1  0
 25 51  1  0
 25 26  1  6
 25 54  1  0
 26 27  1  0
 26 78  1  0
 26 79  1  0
 27 28  1  0
 27 30  1  0
 27 80  1  1
 28 29  1  0
 28 81  1  6
 29 82  1  0
 30 31  1  6
 30 32  1  0
 31 83  1  0
 32 38  1  0
 32 33  1  0
 32 84  1  6
 33 34  1  0
 33 35  1  0
 33 85  1  6
 34 86  1  0
 35 36  1  0
 35 38  1  0
 35 87  1  1
 36 37  1  0
 37 88  1  0
 37 89  1  0
 37 90  1  0
 38 39  1  1
 38 40  1  0
 39 91  1  0
 52 40  1  1
 40 41  1  1
 40 42  1  0
 41 92  1  0
 42 43  1  0
 42 44  1  0
 42 93  1  6
 43 94  1  0
 44 45  1  1
 44 46  1  0
 45 95  1  0
 46 48  1  0
 46 47  1  0
 46 96  1  1
 47 48  1  0
 48 49  1  1
 48 50  1  0
 49 97  1  0
 49 98  1  0
 49 99  1  0
 50 51  1  0
 50100  1  0
 50101  1  0
 51 52  1  0
 51102  1  1
 52 53  2  0
 54 55  1  0
 54 56  1  0
 54103  1  1
 55104  1  0
 56 57  1  0
 56105  1  1
 57106  1  0
M  END
>  <i_m_ct_stereo_status>  (26) 
1

>  <s_m_source_file>  (26) 
/var/tmp/pbs.5075288.sched01/tmpzl_yb0kw/0ymjshsm9.sdf

>  <i_m_source_file_index>  (26) 
54

>  <i_lp_mmshare_version>  (26) 
48012

>  <i_f3d_flags>  (26) 
0

>  <s_epik_input>  (26) 
W09IXVtDQEhdMVtDQEBIXShPW0NIM10pW0NAXShbT0hdKShbQ0BAXShbT0hdKShbUytdMltPLV0pW0NASF0zW09IXSlbQ0BIXTFbQ0BdNChbT0hdKVtDQEhdKFtDSDJdNSlbQ0BASF0oW09IXSlbQ0BdKFtPSF0pKEMoPU8pW0NAXTYoW09IXSlDKD1PKVtOSF1bQ0gzXSlbQ0gyXVtDSDJdW0NIXT1DNltDQEBIXTRPW0NAXShbT0hdKShbQ0BdKFtDSDNdKShbQ0BIXShbT0hdKVtDQEBIXTdbT0hdKU9bQ0BIXThPW0NIM10pW0NAXTMoW09IXSlbQ0BASF0oTzkpW0NAXTkoW0NIM10pW0NIMl1bQ0BASF0yQzU3OA==

>  <s_epik_cmdline>  (26) 
J2VwaWtfcHl0aG9uJywgJy1waHQnLCAnMi4wJywgJy1waCcsICc3LjAnLCAnLXRuJywgJzgnLCAnLW1hJywgJzIwMCcsICctaW1hZScsICc8aW5maWxlLm1hZT4nLCAnLW9tYWUnLCAnPG91dGZpbGUubWFlPic=

>  <r_lp_tautomer_probability>  (26) 
1

>  <r_epik_Ionization_Penalty>  (26) 
1.40957e-05

>  <r_epik_Ionization_Penalty_Charging>  (26) 
0

>  <r_epik_Ionization_Penalty_Neutral>  (26) 
1.40957e-05

>  <r_epik_State_Penalty>  (26) 
0

>  <r_epik_Charging_Adjusted_Penalty>  (26) 
0

>  <i_epik_Tot_Q>  (26) 
0

>  <i_epik_Tot_abs_Q>  (26) 
2

>  <s_epik_Chemistry_Notes>  (26) 
This compound contains an acetal/aminal-like group ( X-CH(R)-Y where X, Y are N, S, or O) that may be acid/base labile, releasing an aldehyde.

>  <s_lp_Force_Field>  (26) 
OPLS3e

>  <r_lp_Energy>  (26) 
634.907

>  <b_lp_Chiralities_Consistent>  (26) 
1

>  <s_lp_Variant>  (26) 
14:0-7

>  <s_i_glide_gridfile>  (26) 
pfpi4k_grid

>  <i_i_glide_lignum>  (26) 
54

>  <i_i_glide_rotatable_bonds>  (26) 
16

>  <r_i_docking_score>  (26) 
-2.72467

>  <r_i_glide_ligand_efficiency>  (26) 
-0.0478012

>  <r_i_glide_ligand_efficiency_sa>  (26) 
-0.183963

>  <r_i_glide_ligand_efficiency_ln>  (26) 
-0.540282

>  <r_i_glide_gscore>  (26) 
-2.72467

>  <r_i_glide_lipo>  (26) 
-0.133763

>  <r_i_glide_hbond>  (26) 
0

>  <r_i_glide_metal>  (26) 
-0

>  <r_i_glide_rewards>  (26) 
-0.5

>  <r_i_glide_evdw>  (26) 
-27.2836

>  <r_i_glide_ecoul>  (26) 
-4.78471

>  <r_i_glide_erotb>  (26) 
0.0313225

>  <r_i_glide_esite>  (26) 
-0.0403446

>  <r_i_glide_emodel>  (26) 
-40.7561

>  <r_i_glide_energy>  (26) 
-32.0683

>  <r_i_glide_einternal>  (26) 
1.92879

>  <r_i_glide_intrahb_reward>  (26) 
-0.5

>  <i_i_glide_confnum>  (26) 
2

>  <i_i_glide_posenum>  (26) 
5

>  <r_i_glide_eff_state_penalty>  (26) 
0

>  <ligand_id>  (26) 
14

>  <original_smiles>  (26) 
CNC(=O)C1(O)C(=O)C2(O)CCC=C1C1OC3(O)C4(C)OC(OC)C5(CC(C2O)C1(O)C1C(O)C(OC)C1(O)C1(O)C(O)C3(O)C2OC2(C)CC5[S+]1[O-])C(O)C4O

>  <smiles>  (26) 
[H]OC1(C(=O)N([H])C([H])([H])[H])C(=O)C2(O[H])C([H])([H])C([H])([H])C([H])=C1C1([H])OC3(O[H])C4(C([H])([H])[H])OC([H])(OC([H])([H])[H])C5(C([H])([H])C([H])(C2([H])O[H])C1(O[H])C1([H])C([H])(O[H])C([H])(OC([H])([H])[H])C1(O[H])C1(O[H])S(=O)C5([H])C([H])([H])C2(C([H])([H])[H])OC2([H])C3(O[H])C1([H])O[H])C([H])(O[H])C4([H])O[H]

$$$$
14:7:0
     RDKit          3D

106114  0  0  1  0  0  0  0  0999 V2000
    5.6033  -11.2764    4.9415 C   0  0  0  0  0  0  0  0  0  0  0  0
    5.5407  -10.1354    4.0313 N   0  0  0  0  0  0  0  0  0  0  0  0
    5.8334   -8.8767    4.3459 C   0  0  0  0  0  0  0  0  0  0  0  0
    6.1886   -8.5672    5.4958 O   0  0  0  0  0  0  0  0  0  0  0  0
    5.9342   -7.7946    3.2570 C   0  0  1  0  0  0  0  0  0  0  0  0
    7.2725   -8.0460    2.8445 O   0  0  0  0  0  0  0  0  0  0  0  0
    5.1276   -8.0461    1.9479 C   0  0  0  0  0  0  0  0  0  0  0  0
    4.8553   -9.1836    1.5738 O   0  0  0  0  0  0  0  0  0  0  0  0
    4.7131   -6.8385    1.0491 C   0  0  2  0  0  0  0  0  0  0  0  0
    4.5901   -7.4112   -0.2143 O   0  0  0  0  0  0  0  0  0  0  0  0
    5.9156   -5.8462    0.6778 C   0  0  0  0  0  0  0  0  0  0  0  0
    7.0759   -5.5117    1.6772 C   0  0  0  0  0  0  0  0  0  0  0  0
    6.6147   -5.4464    3.1196 C   0  0  0  0  0  0  0  0  0  0  0  0
    5.7569   -6.3161    3.6793 C   0  0  0  0  0  0  0  0  0  0  0  0
    4.5522   -5.6495    4.4764 C   0  0  2  0  0  0  0  0  0  0  0  0
    3.6304   -6.4993    5.2552 O   0  0  0  0  0  0  0  0  0  0  0  0
    3.2950   -6.7746    6.6757 C   0  0  2  0  0  0  0  0  0  0  0  0
    4.4165   -7.4615    7.1883 O   0  0  0  0  0  0  0  0  0  0  0  0
    1.9902   -7.9223    6.7652 C   0  0  1  0  0  0  0  0  0  0  0  0
    2.0130   -8.6826    8.1232 C   0  0  0  0  0  0  0  0  0  0  0  0
    0.5241   -7.5913    6.5642 O   0  0  0  0  0  0  0  0  0  0  0  0
   -0.0738   -7.4558    5.2240 C   0  0  1  0  0  0  0  0  0  0  0  0
   -1.2648   -6.7687    5.0657 O   0  0  0  0  0  0  0  0  0  0  0  0
   -2.0349   -7.2184    3.9781 C   0  0  0  0  0  0  0  0  0  0  0  0
    1.0308   -6.6910    4.5237 C   0  0  1  0  0  0  0  0  0  0  0  0
    1.1261   -6.1320    3.0597 C   0  0  0  0  0  0  0  0  0  0  0  0
    2.5567   -5.4863    2.5628 C   0  0  2  0  0  0  0  0  0  0  0  0
    3.1858   -6.2701    1.2656 C   0  0  1  0  0  0  0  0  0  0  0  0
    2.8362   -5.3934    0.1803 O   0  0  0  0  0  0  0  0  0  0  0  0
    3.6499   -4.6932    3.4842 C   0  0  2  0  0  0  0  0  0  0  0  0
    4.3668   -4.2408    2.3716 O   0  0  0  0  0  0  0  0  0  0  0  0
    3.5197   -3.0777    3.7572 C   0  0  2  0  0  0  0  0  0  0  0  0
    4.7695   -2.1233    3.7761 C   0  0  1  0  0  0  0  0  0  0  0  0
    4.8527   -1.1372    2.7519 O   0  0  0  0  0  0  0  0  0  0  0  0
    4.4315   -1.6954    5.1925 C   0  0  1  0  0  0  0  0  0  0  0  0
    4.5181   -0.2941    5.4392 O   0  0  0  0  0  0  0  0  0  0  0  0
    5.8587    0.1629    5.6098 C   0  0  0  0  0  0  0  0  0  0  0  0
    2.9891   -2.2530    5.0031 C   0  0  1  0  0  0  0  0  0  0  0  0
    2.0969   -1.2224    4.6011 O   0  0  0  0  0  0  0  0  0  0  0  0
    2.2053   -3.0104    6.0877 C   0  0  2  0  0  0  0  0  0  0  0  0
    1.5772   -2.0901    6.9754 O   0  0  0  0  0  0  0  0  0  0  0  0
    3.2697   -3.9258    6.9323 C   0  0  1  0  0  0  0  0  0  0  0  0
    3.7047   -3.0157    7.9529 O   0  0  0  0  0  0  0  0  0  0  0  0
    3.1410   -5.4008    7.6102 C   0  0  2  0  0  0  0  0  0  0  0  0
    4.2426   -5.3806    8.5289 O   0  0  0  0  0  0  0  0  0  0  0  0
    2.0208   -5.5091    8.6108 C   0  0  1  0  0  0  0  0  0  0  0  0
    1.2764   -4.3293    8.8611 O   0  0  0  0  0  0  0  0  0  0  0  0
    0.5847   -5.4316    8.2655 C   0  0  2  0  0  0  0  0  0  0  0  0
   -0.4022   -6.0755    9.1776 C   0  0  0  0  0  0  0  0  0  0  0  0
    0.0062   -5.1141    6.8958 C   0  0  0  0  0  0  0  0  0  0  0  0
    0.9078   -5.4032    5.5746 C   0  0  2  0  0  0  0  0  0  0  0  0
    0.9648   -3.7573    4.8600 S   0  0  0  0  0  0  0  0  0  0  0  0
   -0.3836   -3.0393    4.9540 O   0  0  0  0  0  0  0  0  0  0  0  0
    1.8102   -8.1179    4.3795 C   0  0  1  0  0  0  0  0  0  0  0  0
    2.8506   -8.2273    3.5021 O   0  0  0  0  0  0  0  0  0  0  0  0
    2.0863   -8.9078    5.6543 C   0  0  1  0  0  0  0  0  0  0  0  0
    3.2354   -9.6624    5.7352 O   0  0  0  0  0  0  0  0  0  0  0  0
    6.4395  -11.9435    4.7191 H   0  0  0  0  0  0  0  0  0  0  0  0
    4.6762  -11.8491    4.8735 H   0  0  0  0  0  0  0  0  0  0  0  0
    5.6991  -10.9580    5.9832 H   0  0  0  0  0  0  0  0  0  0  0  0
    5.2128  -10.3039    3.0777 H   0  0  0  0  0  0  0  0  0  0  0  0
    7.4830   -7.4350    2.1502 H   0  0  0  0  0  0  0  0  0  0  0  0
    4.4397   -6.7339   -0.8404 H   0  0  0  0  0  0  0  0  0  0  0  0
    6.4729   -6.2468   -0.1662 H   0  0  0  0  0  0  0  0  0  0  0  0
    5.5001   -4.9099    0.2787 H   0  0  0  0  0  0  0  0  0  0  0  0
    7.9603   -6.1320    1.4952 H   0  0  0  0  0  0  0  0  0  0  0  0
    7.4190   -4.5093    1.4471 H   0  0  0  0  0  0  0  0  0  0  0  0
    6.4649   -4.4478    3.4178 H   0  0  0  0  0  0  0  0  0  0  0  0
    5.1548   -5.0584    5.1357 H   0  0  0  0  0  0  0  0  0  0  0  0
    4.5075   -8.2636    6.6852 H   0  0  0  0  0  0  0  0  0  0  0  0
    2.9797   -9.1196    8.3583 H   0  0  0  0  0  0  0  0  0  0  0  0
    1.3151   -9.5172    8.0797 H   0  0  0  0  0  0  0  0  0  0  0  0
    1.7055   -8.0815    8.9674 H   0  0  0  0  0  0  0  0  0  0  0  0
   -0.3476   -8.4751    4.9332 H   0  0  0  0  0  0  0  0  0  0  0  0
   -2.9630   -6.7112    4.1421 H   0  0  0  0  0  0  0  0  0  0  0  0
   -2.2339   -8.2959    3.9783 H   0  0  0  0  0  0  0  0  0  0  0  0
   -1.6306   -6.9011    3.0154 H   0  0  0  0  0  0  0  0  0  0  0  0
    0.8238   -6.9339    2.3744 H   0  0  0  0  0  0  0  0  0  0  0  0
    0.3132   -5.4105    2.9044 H   0  0  0  0  0  0  0  0  0  0  0  0
    2.0799   -4.6164    2.0984 H   0  0  0  0  0  0  0  0  0  0  0  0
    2.5704   -7.1590    1.1412 H   0  0  0  0  0  0  0  0  0  0  0  0
    2.8574   -5.8527   -0.6561 H   0  0  0  0  0  0  0  0  0  0  0  0
    3.7852   -3.7768    1.7810 H   0  0  0  0  0  0  0  0  0  0  0  0
    2.9123   -2.6612    2.9431 H   0  0  0  0  0  0  0  0  0  0  0  0
    5.7295   -2.6357    3.8179 H   0  0  0  0  0  0  0  0  0  0  0  0
    4.0772   -0.5935    2.7832 H   0  0  0  0  0  0  0  0  0  0  0  0
    5.0765   -2.2669    5.8552 H   0  0  0  0  0  0  0  0  0  0  0  0
    5.8649    1.2224    5.8565 H   0  0  0  0  0  0  0  0  0  0  0  0
    6.4449    0.0432    4.7004 H   0  0  0  0  0  0  0  0  0  0  0  0
    6.3729   -0.3599    6.4169 H   0  0  0  0  0  0  0  0  0  0  0  0
    2.6075   -0.6552    4.0546 H   0  0  0  0  0  0  0  0  0  0  0  0
    2.0708   -1.2763    6.9070 H   0  0  0  0  0  0  0  0  0  0  0  0
    4.1396   -4.0103    6.3323 H   0  0  0  0  0  0  0  0  0  0  0  0
    2.9351   -2.9234    8.5125 H   0  0  0  0  0  0  0  0  0  0  0  0
    5.0321   -5.4028    7.9990 H   0  0  0  0  0  0  0  0  0  0  0  0
    2.2682   -6.0651    9.5059 H   0  0  0  0  0  0  0  0  0  0  0  0
   -0.6453   -7.0563    8.7787 H   0  0  0  0  0  0  0  0  0  0  0  0
   -1.2795   -5.4393    9.2665 H   0  0  0  0  0  0  0  0  0  0  0  0
    0.0193   -6.2154   10.1724 H   0  0  0  0  0  0  0  0  0  0  0  0
   -1.0001   -5.5233    6.8661 H   0  0  0  0  0  0  0  0  0  0  0  0
   -0.2282   -4.0602    6.9997 H   0  0  0  0  0  0  0  0  0  0  0  0
    1.9010   -5.2651    5.6912 H   0  0  0  0  0  0  0  0  0  0  0  0
    1.2065   -8.7781    3.7467 H   0  0  0  0  0  0  0  0  0  0  0  0
    3.0876   -9.1471    3.4736 H   0  0  0  0  0  0  0  0  0  0  0  0
    1.3073   -9.6504    5.7812 H   0  0  0  0  0  0  0  0  0  0  0  0
    3.0698  -10.3862    6.3300 H   0  0  0  0  0  0  0  0  0  0  0  0
  1  2  1  0
  1 58  1  0
  1 59  1  0
  1 60  1  0
  2  3  1  0
  2 61  1  0
  3  4  2  0
  3  5  1  0
  5 14  1  0
  5  6  1  6
  5  7  1  0
  6 62  1  0
  7  8  2  0
  7  9  1  0
  9 28  1  0
  9 10  1  6
  9 11  1  0
 10 63  1  0
 11 12  1  0
 11 64  1  0
 11 65  1  0
 12 13  1  0
 12 66  1  0
 12 67  1  0
 13 14  2  0
 13 68  1  0
 14 15  1  0
 15 30  1  0
 15 16  1  0
 15 69  1  1
 16 17  1  0
 17 44  1  0
 17 18  1  1
 17 19  1  0
 18 70  1  0
 19 56  1  0
 19 20  1  1
 19 21  1  0
 20 71  1  0
 20 72  1  0
 20 73  1  0
 21 22  1  0
 22 23  1  0
 22 25  1  0
 22 74  1  6
 23 24  1  0
 24 75  1  0
 24 76  1  0
 24 77  1  0
 25 51  1  0
 25 26  1  6
 25 54  1  0
 26 27  1  0
 26 78  1  0
 26 79  1  0
 27 28  1  0
 27 30  1  0
 27 80  1  6
 28 29  1  0
 28 81  1  6
 29 82  1  0
 30 31  1  6
 30 32  1  0
 31 83  1  0
 32 38  1  0
 32 33  1  0
 32 84  1  6
 33 34  1  0
 33 35  1  0
 33 85  1  1
 34 86  1  0
 35 36  1  0
 35 38  1  0
 35 87  1  1
 36 37  1  0
 37 88  1  0
 37 89  1  0
 37 90  1  0
 38 39  1  6
 38 40  1  0
 39 91  1  0
 52 40  1  1
 40 41  1  1
 40 42  1  0
 41 92  1  0
 42 43  1  0
 42 44  1  0
 42 93  1  6
 43 94  1  0
 44 45  1  1
 44 46  1  0
 45 95  1  0
 46 48  1  0
 46 47  1  0
 46 96  1  1
 47 48  1  0
 48 49  1  1
 48 50  1  0
 49 97  1  0
 49 98  1  0
 49 99  1  0
 50 51  1  0
 50100  1  0
 50101  1  0
 51 52  1  0
 51102  1  1
 52 53  2  0
 54 55  1  0
 54 56  1  0
 54103  1  6
 55104  1  0
 56 57  1  0
 56105  1  1
 57106  1  0
M  END
>  <i_m_ct_stereo_status>  (27) 
1

>  <s_m_source_file>  (27) 
/var/tmp/pbs.5075288.sched01/tmpzl_yb0kw/0ymjshsm9.sdf

>  <i_m_source_file_index>  (27) 
55

>  <i_lp_mmshare_version>  (27) 
48012

>  <i_f3d_flags>  (27) 
0

>  <s_epik_input>  (27) 
W09IXVtDQEhdMVtDQEBIXShPW0NIM10pW0NAXShbT0hdKShbQ0BAXShbT0hdKShbUytdMltPLV0pW0NASF0zW09IXSlbQ0BIXTFbQ0BdNChbT0hdKVtDQEhdKFtDSDJdNSlbQ0BASF0oW09IXSlbQ0BdKFtPSF0pKEMoPU8pW0NAXTYoW09IXSlDKD1PKVtOSF1bQ0gzXSlbQ0gyXVtDSDJdW0NIXT1DNltDQEBIXTRPW0NAXShbT0hdKShbQ0BdKFtDSDNdKShbQ0BIXShbT0hdKVtDQEBIXTdbT0hdKU9bQ0BIXThPW0NIM10pW0NAXTMoW09IXSlbQ0BASF0oTzkpW0NAXTkoW0NIM10pW0NIMl1bQ0BASF0yQzU3OA==

>  <s_epik_cmdline>  (27) 
J2VwaWtfcHl0aG9uJywgJy1waHQnLCAnMi4wJywgJy1waCcsICc3LjAnLCAnLXRuJywgJzgnLCAnLW1hJywgJzIwMCcsICctaW1hZScsICc8aW5maWxlLm1hZT4nLCAnLW9tYWUnLCAnPG91dGZpbGUubWFlPic=

>  <r_lp_tautomer_probability>  (27) 
1

>  <r_epik_Ionization_Penalty>  (27) 
1.40957e-05

>  <r_epik_Ionization_Penalty_Charging>  (27) 
0

>  <r_epik_Ionization_Penalty_Neutral>  (27) 
1.40957e-05

>  <r_epik_State_Penalty>  (27) 
0

>  <r_epik_Charging_Adjusted_Penalty>  (27) 
0

>  <i_epik_Tot_Q>  (27) 
0

>  <i_epik_Tot_abs_Q>  (27) 
2

>  <s_epik_Chemistry_Notes>  (27) 
This compound contains an acetal/aminal-like group ( X-CH(R)-Y where X, Y are N, S, or O) that may be acid/base labile, releasing an aldehyde.

>  <s_lp_Force_Field>  (27) 
OPLS3e

>  <r_lp_Energy>  (27) 
509.891

>  <b_lp_Chiralities_Consistent>  (27) 
1

>  <s_lp_Variant>  (27) 
14:0-8

>  <s_i_glide_gridfile>  (27) 
pfpi4k_grid

>  <i_i_glide_lignum>  (27) 
55

>  <i_i_glide_rotatable_bonds>  (27) 
16

>  <r_i_docking_score>  (27) 
-4.37288

>  <r_i_glide_ligand_efficiency>  (27) 
-0.0767172

>  <r_i_glide_ligand_efficiency_sa>  (27) 
-0.295246

>  <r_i_glide_ligand_efficiency_ln>  (27) 
-0.86711

>  <r_i_glide_gscore>  (27) 
-4.37288

>  <r_i_glide_lipo>  (27) 
-0.44131

>  <r_i_glide_hbond>  (27) 
0

>  <r_i_glide_metal>  (27) 
-0

>  <r_i_glide_rewards>  (27) 
-2.05552

>  <r_i_glide_evdw>  (27) 
-19.5576

>  <r_i_glide_ecoul>  (27) 
-6.01076

>  <r_i_glide_erotb>  (27) 
0.0313225

>  <r_i_glide_esite>  (27) 
-0.0278777

>  <r_i_glide_emodel>  (27) 
-45.6855

>  <r_i_glide_energy>  (27) 
-25.5684

>  <r_i_glide_einternal>  (27) 
5.23053

>  <r_i_glide_intrahb_reward>  (27) 
-2

>  <i_i_glide_confnum>  (27) 
2

>  <i_i_glide_posenum>  (27) 
14

>  <r_i_glide_eff_state_penalty>  (27) 
0

>  <ligand_id>  (27) 
14

>  <original_smiles>  (27) 
CNC(=O)C1(O)C(=O)C2(O)CCC=C1C1OC3(O)C4(C)OC(OC)C5(CC(C2O)C1(O)C1C(O)C(OC)C1(O)C1(O)C(O)C3(O)C2OC2(C)CC5[S+]1[O-])C(O)C4O

>  <smiles>  (27) 
[H]OC1(C(=O)N([H])C([H])([H])[H])C(=O)C2(O[H])C([H])([H])C([H])([H])C([H])=C1C1([H])OC3(O[H])C4(C([H])([H])[H])OC([H])(OC([H])([H])[H])C5(C([H])([H])C([H])(C2([H])O[H])C1(O[H])C1([H])C([H])(O[H])C([H])(OC([H])([H])[H])C1(O[H])C1(O[H])S(=O)C5([H])C([H])([H])C2(C([H])([H])[H])OC2([H])C3(O[H])C1([H])O[H])C([H])(O[H])C4([H])O[H]

$$$$
14:7:1
     RDKit          3D

106114  0  0  1  0  0  0  0  0999 V2000
    5.5687  -11.6268    4.2332 C   0  0  0  0  0  0  0  0  0  0  0  0
    5.5628  -10.3682    3.4837 N   0  0  0  0  0  0  0  0  0  0  0  0
    5.9349   -9.1826    3.9566 C   0  0  0  0  0  0  0  0  0  0  0  0
    6.3567   -9.0591    5.1205 O   0  0  0  0  0  0  0  0  0  0  0  0
    6.0462   -7.9603    3.0256 C   0  0  1  0  0  0  0  0  0  0  0  0
    7.3708   -8.2087    2.5557 O   0  0  0  0  0  0  0  0  0  0  0  0
    5.2079   -7.9662    1.7201 C   0  0  0  0  0  0  0  0  0  0  0  0
    4.8949   -9.0314    1.1823 O   0  0  0  0  0  0  0  0  0  0  0  0
    4.8283   -6.6210    1.0189 C   0  0  2  0  0  0  0  0  0  0  0  0
    4.5404   -6.9919   -0.3169 O   0  0  0  0  0  0  0  0  0  0  0  0
    6.0921   -5.6772    0.7671 C   0  0  0  0  0  0  0  0  0  0  0  0
    7.2862   -5.5263    1.7835 C   0  0  0  0  0  0  0  0  0  0  0  0
    6.8651   -5.6797    3.2425 C   0  0  0  0  0  0  0  0  0  0  0  0
    5.9512   -6.5559    3.6668 C   0  0  0  0  0  0  0  0  0  0  0  0
    4.8145   -5.9389    4.5984 C   0  0  2  0  0  0  0  0  0  0  0  0
    3.8629   -6.8534    5.2706 O   0  0  0  0  0  0  0  0  0  0  0  0
    3.5427   -7.3011    6.6397 C   0  0  2  0  0  0  0  0  0  0  0  0
    4.6236   -8.1291    7.0209 O   0  0  0  0  0  0  0  0  0  0  0  0
    2.1834   -8.3801    6.5940 C   0  0  1  0  0  0  0  0  0  0  0  0
    2.1728   -9.3343    7.8208 C   0  0  0  0  0  0  0  0  0  0  0  0
    0.7325   -7.9547    6.4726 O   0  0  0  0  0  0  0  0  0  0  0  0
    0.1021   -7.6173    5.1845 C   0  0  1  0  0  0  0  0  0  0  0  0
   -1.0664   -6.8765    5.2065 O   0  0  0  0  0  0  0  0  0  0  0  0
   -1.9537   -7.1309    4.1291 C   0  0  0  0  0  0  0  0  0  0  0  0
    1.2235   -6.7980    4.5813 C   0  0  1  0  0  0  0  0  0  0  0  0
    1.3324   -6.0297    3.2067 C   0  0  0  0  0  0  0  0  0  0  0  0
    2.7975   -5.3930    2.7666 C   0  0  2  0  0  0  0  0  0  0  0  0
    3.3556   -6.0217    1.3735 C   0  0  1  0  0  0  0  0  0  0  0  0
    2.9941   -5.0585    0.3748 O   0  0  0  0  0  0  0  0  0  0  0  0
    3.9536   -4.8010    3.7691 C   0  0  2  0  0  0  0  0  0  0  0  0
    4.6894   -4.2393    2.7103 O   0  0  0  0  0  0  0  0  0  0  0  0
    3.9219   -3.2297    4.2601 C   0  0  2  0  0  0  0  0  0  0  0  0
    5.2212   -2.3580    4.4054 C   0  0  1  0  0  0  0  0  0  0  0  0
    5.3616   -1.2175    3.5626 O   0  0  0  0  0  0  0  0  0  0  0  0
    4.9359   -2.1399    5.8774 C   0  0  1  0  0  0  0  0  0  0  0  0
    5.1203   -0.8054    6.3517 O   0  0  0  0  0  0  0  0  0  0  0  0
    6.4552   -0.5326    6.7745 C   0  0  0  0  0  0  0  0  0  0  0  0
    3.4611   -2.5694    5.6244 C   0  0  1  0  0  0  0  0  0  0  0  0
    2.6486   -1.4223    5.3919 O   0  0  0  0  0  0  0  0  0  0  0  0
    2.6345   -3.4457    6.5970 C   0  0  2  0  0  0  0  0  0  0  0  0
    2.0512   -2.6477    7.6325 O   0  0  0  0  0  0  0  0  0  0  0  0
    3.6553   -4.5157    7.3012 C   0  0  1  0  0  0  0  0  0  0  0  0
    4.1657   -3.7773    8.4147 O   0  0  0  0  0  0  0  0  0  0  0  0
    3.4795   -6.0723    7.7679 C   0  0  2  0  0  0  0  0  0  0  0  0
    4.6025   -6.2360    8.6462 O   0  0  0  0  0  0  0  0  0  0  0  0
    2.3757   -6.2835    8.7678 C   0  0  1  0  0  0  0  0  0  0  0  0
    1.6839   -5.1271    9.2192 O   0  0  0  0  0  0  0  0  0  0  0  0
    0.9236   -6.0996    8.4733 C   0  0  2  0  0  0  0  0  0  0  0  0
   -0.1094   -6.8013    9.3234 C   0  0  0  0  0  0  0  0  0  0  0  0
    0.3533   -5.5337    7.1788 C   0  0  0  0  0  0  0  0  0  0  0  0
    1.2113   -5.6730    5.8036 C   0  0  2  0  0  0  0  0  0  0  0  0
    1.3463   -3.9501    5.3016 S   0  0  0  0  0  0  0  0  0  0  0  0
    0.0138   -3.2248    5.5224 O   0  0  0  0  0  0  0  0  0  0  0  0
    1.9453   -8.2148    4.2105 C   0  0  1  0  0  0  0  0  0  0  0  0
    2.9539   -8.2510    3.2868 O   0  0  0  0  0  0  0  0  0  0  0  0
    2.2102   -9.2025    5.3476 C   0  0  1  0  0  0  0  0  0  0  0  0
    3.3149  -10.0374    5.2860 O   0  0  0  0  0  0  0  0  0  0  0  0
    6.3834  -12.2730    3.9085 H   0  0  0  0  0  0  0  0  0  0  0  0
    4.6267  -12.1506    4.0760 H   0  0  0  0  0  0  0  0  0  0  0  0
    5.6702  -11.4698    5.3107 H   0  0  0  0  0  0  0  0  0  0  0  0
    5.2244  -10.3953    2.5200 H   0  0  0  0  0  0  0  0  0  0  0  0
    7.6286   -7.4918    1.9974 H   0  0  0  0  0  0  0  0  0  0  0  0
    4.6250   -6.2212   -0.8725 H   0  0  0  0  0  0  0  0  0  0  0  0
    6.5848   -5.9917   -0.1476 H   0  0  0  0  0  0  0  0  0  0  0  0
    5.7364   -4.6778    0.4995 H   0  0  0  0  0  0  0  0  0  0  0  0
    8.1368   -6.1565    1.5180 H   0  0  0  0  0  0  0  0  0  0  0  0
    7.6981   -4.5217    1.6807 H   0  0  0  0  0  0  0  0  0  0  0  0
    6.7725   -4.7706    3.7664 H   0  0  0  0  0  0  0  0  0  0  0  0
    5.4647   -5.4775    5.3244 H   0  0  0  0  0  0  0  0  0  0  0  0
    4.6164   -8.8744    6.4382 H   0  0  0  0  0  0  0  0  0  0  0  0
    3.1104   -9.8702    7.9768 H   0  0  0  0  0  0  0  0  0  0  0  0
    1.4113  -10.0950    7.6710 H   0  0  0  0  0  0  0  0  0  0  0  0
    1.9084   -8.8521    8.7544 H   0  0  0  0  0  0  0  0  0  0  0  0
   -0.2148   -8.5775    4.7576 H   0  0  0  0  0  0  0  0  0  0  0  0
   -2.8987   -6.6574    4.3741 H   0  0  0  0  0  0  0  0  0  0  0  0
   -2.1782   -8.1907    3.9681 H   0  0  0  0  0  0  0  0  0  0  0  0
   -1.5605   -6.7055    3.2051 H   0  0  0  0  0  0  0  0  0  0  0  0
    0.9769   -6.6992    2.4183 H   0  0  0  0  0  0  0  0  0  0  0  0
    0.5678   -5.2483    3.1610 H   0  0  0  0  0  0  0  0  0  0  0  0
    2.3702   -4.4396    2.4263 H   0  0  0  0  0  0  0  0  0  0  0  0
    2.6789   -6.8447    1.1514 H   0  0  0  0  0  0  0  0  0  0  0  0
    3.0596   -5.4766   -0.4751 H   0  0  0  0  0  0  0  0  0  0  0  0
    4.1432   -3.6551    2.2029 H   0  0  0  0  0  0  0  0  0  0  0  0
    3.3269   -2.6719    3.5274 H   0  0  0  0  0  0  0  0  0  0  0  0
    6.1255   -2.9430    4.3405 H   0  0  0  0  0  0  0  0  0  0  0  0
    4.6345   -0.6342    3.7103 H   0  0  0  0  0  0  0  0  0  0  0  0
    5.5451   -2.8440    6.4370 H   0  0  0  0  0  0  0  0  0  0  0  0
    6.5333    0.4917    7.1353 H   0  0  0  0  0  0  0  0  0  0  0  0
    7.1682   -0.6366    5.9619 H   0  0  0  0  0  0  0  0  0  0  0  0
    6.7786   -1.1910    7.5819 H   0  0  0  0  0  0  0  0  0  0  0  0
    3.1522   -0.8418    4.8508 H   0  0  0  0  0  0  0  0  0  0  0  0
    2.6066   -1.8878    7.7475 H   0  0  0  0  0  0  0  0  0  0  0  0
    4.5262   -4.5638    6.7037 H   0  0  0  0  0  0  0  0  0  0  0  0
    3.4556   -3.7352    9.0447 H   0  0  0  0  0  0  0  0  0  0  0  0
    5.3861   -6.2451    8.1146 H   0  0  0  0  0  0  0  0  0  0  0  0
    2.6107   -6.9835    9.5650 H   0  0  0  0  0  0  0  0  0  0  0  0
   -0.4813   -7.7012    8.8188 H   0  0  0  0  0  0  0  0  0  0  0  0
   -0.9088   -6.0981    9.5324 H   0  0  0  0  0  0  0  0  0  0  0  0
    0.3322   -7.1249   10.2734 H   0  0  0  0  0  0  0  0  0  0  0  0
   -0.6817   -5.8706    7.1134 H   0  0  0  0  0  0  0  0  0  0  0  0
    0.1807   -4.4931    7.4379 H   0  0  0  0  0  0  0  0  0  0  0  0
    2.2130   -5.6033    5.9257 H   0  0  0  0  0  0  0  0  0  0  0  0
    1.2949   -8.7482    3.5110 H   0  0  0  0  0  0  0  0  0  0  0  0
    3.1245   -9.1614    3.0930 H   0  0  0  0  0  0  0  0  0  0  0  0
    1.3888   -9.9160    5.3768 H   0  0  0  0  0  0  0  0  0  0  0  0
    3.1371  -10.7969    5.8270 H   0  0  0  0  0  0  0  0  0  0  0  0
  1  2  1  0
  1 58  1  0
  1 59  1  0
  1 60  1  0
  2  3  1  0
  2 61  1  0
  3  4  2  0
  3  5  1  0
  5 14  1  0
  5  6  1  6
  5  7  1  0
  6 62  1  0
  7  8  2  0
  7  9  1  0
  9 28  1  0
  9 10  1  6
  9 11  1  0
 10 63  1  0
 11 12  1  0
 11 64  1  0
 11 65  1  0
 12 13  1  0
 12 66  1  0
 12 67  1  0
 13 14  2  0
 13 68  1  0
 14 15  1  0
 15 30  1  0
 15 16  1  0
 15 69  1  1
 16 17  1  0
 17 44  1  0
 17 18  1  1
 17 19  1  0
 18 70  1  0
 19 56  1  0
 19 20  1  1
 19 21  1  0
 20 71  1  0
 20 72  1  0
 20 73  1  0
 21 22  1  0
 22 23  1  0
 22 25  1  0
 22 74  1  6
 23 24  1  0
 24 75  1  0
 24 76  1  0
 24 77  1  0
 25 51  1  0
 25 26  1  6
 25 54  1  0
 26 27  1  0
 26 78  1  0
 26 79  1  0
 27 28  1  0
 27 30  1  0
 27 80  1  6
 28 29  1  0
 28 81  1  6
 29 82  1  0
 30 31  1  6
 30 32  1  0
 31 83  1  0
 32 38  1  0
 32 33  1  0
 32 84  1  6
 33 34  1  0
 33 35  1  0
 33 85  1  1
 34 86  1  0
 35 36  1  0
 35 38  1  0
 35 87  1  1
 36 37  1  0
 37 88  1  0
 37 89  1  0
 37 90  1  0
 38 39  1  6
 38 40  1  0
 39 91  1  0
 52 40  1  1
 40 41  1  1
 40 42  1  0
 41 92  1  0
 42 43  1  0
 42 44  1  0
 42 93  1  6
 43 94  1  0
 44 45  1  1
 44 46  1  0
 45 95  1  0
 46 48  1  0
 46 47  1  0
 46 96  1  1
 47 48  1  0
 48 49  1  1
 48 50  1  0
 49 97  1  0
 49 98  1  0
 49 99  1  0
 50 51  1  0
 50100  1  0
 50101  1  0
 51 52  1  0
 51102  1  1
 52 53  2  0
 54 55  1  0
 54 56  1  0
 54103  1  6
 55104  1  0
 56 57  1  0
 56105  1  1
 57106  1  0
M  END
>  <i_m_ct_stereo_status>  (28) 
1

>  <s_m_source_file>  (28) 
/var/tmp/pbs.5075288.sched01/tmpzl_yb0kw/0ymjshsm9.sdf

>  <i_m_source_file_index>  (28) 
55

>  <i_lp_mmshare_version>  (28) 
48012

>  <i_f3d_flags>  (28) 
0

>  <s_epik_input>  (28) 
W09IXVtDQEhdMVtDQEBIXShPW0NIM10pW0NAXShbT0hdKShbQ0BAXShbT0hdKShbUytdMltPLV0pW0NASF0zW09IXSlbQ0BIXTFbQ0BdNChbT0hdKVtDQEhdKFtDSDJdNSlbQ0BASF0oW09IXSlbQ0BdKFtPSF0pKEMoPU8pW0NAXTYoW09IXSlDKD1PKVtOSF1bQ0gzXSlbQ0gyXVtDSDJdW0NIXT1DNltDQEBIXTRPW0NAXShbT0hdKShbQ0BdKFtDSDNdKShbQ0BIXShbT0hdKVtDQEBIXTdbT0hdKU9bQ0BIXThPW0NIM10pW0NAXTMoW09IXSlbQ0BASF0oTzkpW0NAXTkoW0NIM10pW0NIMl1bQ0BASF0yQzU3OA==

>  <s_epik_cmdline>  (28) 
J2VwaWtfcHl0aG9uJywgJy1waHQnLCAnMi4wJywgJy1waCcsICc3LjAnLCAnLXRuJywgJzgnLCAnLW1hJywgJzIwMCcsICctaW1hZScsICc8aW5maWxlLm1hZT4nLCAnLW9tYWUnLCAnPG91dGZpbGUubWFlPic=

>  <r_lp_tautomer_probability>  (28) 
1

>  <r_epik_Ionization_Penalty>  (28) 
1.40957e-05

>  <r_epik_Ionization_Penalty_Charging>  (28) 
0

>  <r_epik_Ionization_Penalty_Neutral>  (28) 
1.40957e-05

>  <r_epik_State_Penalty>  (28) 
0

>  <r_epik_Charging_Adjusted_Penalty>  (28) 
0

>  <i_epik_Tot_Q>  (28) 
0

>  <i_epik_Tot_abs_Q>  (28) 
2

>  <s_epik_Chemistry_Notes>  (28) 
This compound contains an acetal/aminal-like group ( X-CH(R)-Y where X, Y are N, S, or O) that may be acid/base labile, releasing an aldehyde.

>  <s_lp_Force_Field>  (28) 
OPLS3e

>  <r_lp_Energy>  (28) 
509.891

>  <b_lp_Chiralities_Consistent>  (28) 
1

>  <s_lp_Variant>  (28) 
14:0-8

>  <s_i_glide_gridfile>  (28) 
pfpi4k_grid

>  <i_i_glide_lignum>  (28) 
55

>  <i_i_glide_rotatable_bonds>  (28) 
16

>  <r_i_docking_score>  (28) 
-3.90903

>  <r_i_glide_ligand_efficiency>  (28) 
-0.0685795

>  <r_i_glide_ligand_efficiency_sa>  (28) 
-0.263928

>  <r_i_glide_ligand_efficiency_ln>  (28) 
-0.775132

>  <r_i_glide_gscore>  (28) 
-3.90903

>  <r_i_glide_lipo>  (28) 
-0.423758

>  <r_i_glide_hbond>  (28) 
0

>  <r_i_glide_metal>  (28) 
-0

>  <r_i_glide_rewards>  (28) 
-1.57761

>  <r_i_glide_evdw>  (28) 
-18.9329

>  <r_i_glide_ecoul>  (28) 
-6.36869

>  <r_i_glide_erotb>  (28) 
0.0313225

>  <r_i_glide_esite>  (28) 
-0.0370388

>  <r_i_glide_emodel>  (28) 
-40.3415

>  <r_i_glide_energy>  (28) 
-25.3016

>  <r_i_glide_einternal>  (28) 
5.63802

>  <r_i_glide_intrahb_reward>  (28) 
-1.5

>  <i_i_glide_confnum>  (28) 
3

>  <i_i_glide_posenum>  (28) 
36

>  <r_i_glide_eff_state_penalty>  (28) 
0

>  <ligand_id>  (28) 
14

>  <original_smiles>  (28) 
CNC(=O)C1(O)C(=O)C2(O)CCC=C1C1OC3(O)C4(C)OC(OC)C5(CC(C2O)C1(O)C1C(O)C(OC)C1(O)C1(O)C(O)C3(O)C2OC2(C)CC5[S+]1[O-])C(O)C4O

>  <smiles>  (28) 
[H]OC1(C(=O)N([H])C([H])([H])[H])C(=O)C2(O[H])C([H])([H])C([H])([H])C([H])=C1C1([H])OC3(O[H])C4(C([H])([H])[H])OC([H])(OC([H])([H])[H])C5(C([H])([H])C([H])(C2([H])O[H])C1(O[H])C1([H])C([H])(O[H])C([H])(OC([H])([H])[H])C1(O[H])C1(O[H])S(=O)C5([H])C([H])([H])C2(C([H])([H])[H])OC2([H])C3(O[H])C1([H])O[H])C([H])(O[H])C4([H])O[H]

$$$$
14:7:2
     RDKit          3D

106114  0  0  1  0  0  0  0  0999 V2000
    5.6047  -11.5896    4.4183 C   0  0  0  0  0  0  0  0  0  0  0  0
    5.5709  -10.3649    3.6304 N   0  0  0  0  0  0  0  0  0  0  0  0
    5.9140   -9.1625    4.0871 C   0  0  0  0  0  0  0  0  0  0  0  0
    6.2981   -8.9792    5.2514 O   0  0  0  0  0  0  0  0  0  0  0  0
    6.0437   -7.9790    3.1008 C   0  0  1  0  0  0  0  0  0  0  0  0
    7.3711   -8.2422    2.6420 O   0  0  0  0  0  0  0  0  0  0  0  0
    5.2064   -8.0242    1.7937 C   0  0  0  0  0  0  0  0  0  0  0  0
    4.9224   -9.1051    1.2807 O   0  0  0  0  0  0  0  0  0  0  0  0
    4.8161   -6.6794    1.0811 C   0  0  2  0  0  0  0  0  0  0  0  0
    4.5348   -7.0242   -0.2562 O   0  0  0  0  0  0  0  0  0  0  0  0
    6.0899   -5.7738    0.7627 C   0  0  0  0  0  0  0  0  0  0  0  0
    7.2837   -5.5842    1.7702 C   0  0  0  0  0  0  0  0  0  0  0  0
    6.8471   -5.6694    3.2273 C   0  0  0  0  0  0  0  0  0  0  0  0
    5.9482   -6.5673    3.7050 C   0  0  0  0  0  0  0  0  0  0  0  0
    4.8016   -5.8915    4.5839 C   0  0  2  0  0  0  0  0  0  0  0  0
    3.8515   -6.7775    5.2885 O   0  0  0  0  0  0  0  0  0  0  0  0
    3.5184   -7.1590    6.6684 C   0  0  2  0  0  0  0  0  0  0  0  0
    4.5839   -7.9756    7.0983 O   0  0  0  0  0  0  0  0  0  0  0  0
    2.1609   -8.2340    6.6634 C   0  0  1  0  0  0  0  0  0  0  0  0
    2.1416   -9.1420    7.9191 C   0  0  0  0  0  0  0  0  0  0  0  0
    0.7036   -7.8407    6.5263 O   0  0  0  0  0  0  0  0  0  0  0  0
    0.0870   -7.5317    5.2175 C   0  0  1  0  0  0  0  0  0  0  0  0
   -1.0705   -6.7835    5.1811 O   0  0  0  0  0  0  0  0  0  0  0  0
   -1.9890   -7.1565    4.1689 C   0  0  0  0  0  0  0  0  0  0  0  0
    1.2051   -6.7353    4.5750 C   0  0  1  0  0  0  0  0  0  0  0  0
    1.3202   -6.0244    3.1832 C   0  0  0  0  0  0  0  0  0  0  0  0
    2.7825   -5.4013    2.7552 C   0  0  2  0  0  0  0  0  0  0  0  0
    3.3253   -6.0749    1.3923 C   0  0  1  0  0  0  0  0  0  0  0  0
    2.9203   -5.1467    0.3773 O   0  0  0  0  0  0  0  0  0  0  0  0
    3.9425   -4.7654    3.7214 C   0  0  2  0  0  0  0  0  0  0  0  0
    4.6707   -4.2544    2.6325 O   0  0  0  0  0  0  0  0  0  0  0  0
    3.9075   -3.1828    4.1506 C   0  0  2  0  0  0  0  0  0  0  0  0
    5.2068   -2.3168    4.2658 C   0  0  1  0  0  0  0  0  0  0  0  0
    5.3504   -1.2227    3.3666 O   0  0  0  0  0  0  0  0  0  0  0  0
    4.9060   -2.0546    5.7248 C   0  0  1  0  0  0  0  0  0  0  0  0
    5.1024   -0.7064    6.1369 O   0  0  0  0  0  0  0  0  0  0  0  0
    6.2514   -0.5202    6.9649 C   0  0  0  0  0  0  0  0  0  0  0  0
    3.4329   -2.4791    5.4802 C   0  0  1  0  0  0  0  0  0  0  0  0
    2.6283   -1.3465    5.1859 O   0  0  0  0  0  0  0  0  0  0  0  0
    2.6184   -3.3155    6.4880 C   0  0  2  0  0  0  0  0  0  0  0  0
    2.0428   -2.4680    7.4810 O   0  0  0  0  0  0  0  0  0  0  0  0
    3.6382   -4.3641    7.2232 C   0  0  1  0  0  0  0  0  0  0  0  0
    4.1370   -3.5697    8.3071 O   0  0  0  0  0  0  0  0  0  0  0  0
    3.4516   -5.8943    7.7426 C   0  0  2  0  0  0  0  0  0  0  0  0
    4.5686   -6.0122    8.6296 O   0  0  0  0  0  0  0  0  0  0  0  0
    2.3407   -6.0629    8.7481 C   0  0  1  0  0  0  0  0  0  0  0  0
    1.6462   -4.8857    9.1385 O   0  0  0  0  0  0  0  0  0  0  0  0
    0.8818   -5.8750    8.4418 C   0  0  2  0  0  0  0  0  0  0  0  0
   -0.1594   -6.5337    9.3146 C   0  0  0  0  0  0  0  0  0  0  0  0
    0.3302   -5.3714    7.1157 C   0  0  0  0  0  0  0  0  0  0  0  0
    1.1950   -5.5691    5.7496 C   0  0  2  0  0  0  0  0  0  0  0  0
    1.3208   -3.8539    5.2131 S   0  0  0  0  0  0  0  0  0  0  0  0
   -0.0154   -3.1349    5.3710 O   0  0  0  0  0  0  0  0  0  0  0  0
    1.9256   -8.1655    4.2649 C   0  0  1  0  0  0  0  0  0  0  0  0
    2.9516   -8.2479    3.3611 O   0  0  0  0  0  0  0  0  0  0  0  0
    2.1913   -9.1116    5.4492 C   0  0  1  0  0  0  0  0  0  0  0  0
    3.3016   -9.9539    5.4050 O   0  0  0  0  0  0  0  0  0  0  0  0
    6.4435  -12.2213    4.1305 H   0  0  0  0  0  0  0  0  0  0  0  0
    4.6815  -12.1476    4.2709 H   0  0  0  0  0  0  0  0  0  0  0  0
    5.6907  -11.3931    5.4887 H   0  0  0  0  0  0  0  0  0  0  0  0
    5.2606  -10.4268    2.6612 H   0  0  0  0  0  0  0  0  0  0  0  0
    7.6161   -7.5478    2.0426 H   0  0  0  0  0  0  0  0  0  0  0  0
    5.2450   -7.5910   -0.5559 H   0  0  0  0  0  0  0  0  0  0  0  0
    6.5676   -6.1441   -0.1443 H   0  0  0  0  0  0  0  0  0  0  0  0
    5.7336   -4.7944    0.4456 H   0  0  0  0  0  0  0  0  0  0  0  0
    8.1369   -6.2250    1.5169 H   0  0  0  0  0  0  0  0  0  0  0  0
    7.6973   -4.5823    1.6229 H   0  0  0  0  0  0  0  0  0  0  0  0
    6.7178   -4.7312    3.6970 H   0  0  0  0  0  0  0  0  0  0  0  0
    5.4481   -5.4049    5.2902 H   0  0  0  0  0  0  0  0  0  0  0  0
    4.5967   -8.7437    6.5387 H   0  0  0  0  0  0  0  0  0  0  0  0
    3.0731   -9.6716    8.0957 H   0  0  0  0  0  0  0  0  0  0  0  0
    1.3764   -9.9135    7.7988 H   0  0  0  0  0  0  0  0  0  0  0  0
    1.8787   -8.6209    8.8277 H   0  0  0  0  0  0  0  0  0  0  0  0
   -0.2254   -8.5019    4.8268 H   0  0  0  0  0  0  0  0  0  0  0  0
   -2.9313   -6.6731    4.4200 H   0  0  0  0  0  0  0  0  0  0  0  0
   -2.2248   -8.2234    4.1476 H   0  0  0  0  0  0  0  0  0  0  0  0
   -1.6328   -6.8466    3.1832 H   0  0  0  0  0  0  0  0  0  0  0  0
    0.9722   -6.7252    2.4211 H   0  0  0  0  0  0  0  0  0  0  0  0
    0.5603   -5.2482    3.1075 H   0  0  0  0  0  0  0  0  0  0  0  0
    2.3595   -4.4660    2.3825 H   0  0  0  0  0  0  0  0  0  0  0  0
    2.6663   -6.9189    1.1979 H   0  0  0  0  0  0  0  0  0  0  0  0
    3.6175   -4.5237    0.2372 H   0  0  0  0  0  0  0  0  0  0  0  0
    4.1205   -3.6642    2.1423 H   0  0  0  0  0  0  0  0  0  0  0  0
    3.3192   -2.6663    3.3803 H   0  0  0  0  0  0  0  0  0  0  0  0
    6.1102   -2.9112    4.2271 H   0  0  0  0  0  0  0  0  0  0  0  0
    4.5784   -0.6792    3.3965 H   0  0  0  0  0  0  0  0  0  0  0  0
    5.5365   -2.7473    6.2734 H   0  0  0  0  0  0  0  0  0  0  0  0
    6.3557    0.5220    7.2663 H   0  0  0  0  0  0  0  0  0  0  0  0
    7.1712   -0.8090    6.4595 H   0  0  0  0  0  0  0  0  0  0  0  0
    6.1728   -1.1113    7.8763 H   0  0  0  0  0  0  0  0  0  0  0  0
    3.2114   -0.7371    4.7722 H   0  0  0  0  0  0  0  0  0  0  0  0
    2.6511   -1.7554    7.6193 H   0  0  0  0  0  0  0  0  0  0  0  0
    4.4929   -4.4415    6.6152 H   0  0  0  0  0  0  0  0  0  0  0  0
    3.3972   -3.4855    8.8991 H   0  0  0  0  0  0  0  0  0  0  0  0
    5.3414   -6.1066    8.0930 H   0  0  0  0  0  0  0  0  0  0  0  0
    2.5778   -6.7264    9.5770 H   0  0  0  0  0  0  0  0  0  0  0  0
   -0.5253   -7.4457    8.8381 H   0  0  0  0  0  0  0  0  0  0  0  0
   -0.9919   -5.8431    9.5010 H   0  0  0  0  0  0  0  0  0  0  0  0
    0.3047   -6.8389   10.2571 H   0  0  0  0  0  0  0  0  0  0  0  0
   -0.6962   -5.7104    7.0696 H   0  0  0  0  0  0  0  0  0  0  0  0
    0.1618   -4.3242    7.3438 H   0  0  0  0  0  0  0  0  0  0  0  0
    2.1973   -5.4932    5.8712 H   0  0  0  0  0  0  0  0  0  0  0  0
    1.2860   -8.7309    3.5783 H   0  0  0  0  0  0  0  0  0  0  0  0
    3.1494   -9.1684    3.2549 H   0  0  0  0  0  0  0  0  0  0  0  0
    1.3604   -9.8310    5.4991 H   0  0  0  0  0  0  0  0  0  0  0  0
    3.1174  -10.6981    5.9640 H   0  0  0  0  0  0  0  0  0  0  0  0
  1  2  1  0
  1 58  1  0
  1 59  1  0
  1 60  1  0
  2  3  1  0
  2 61  1  0
  3  4  2  0
  3  5  1  0
  5 14  1  0
  5  6  1  6
  5  7  1  0
  6 62  1  0
  7  8  2  0
  7  9  1  0
  9 28  1  0
  9 10  1  6
  9 11  1  0
 10 63  1  0
 11 12  1  0
 11 64  1  0
 11 65  1  0
 12 13  1  0
 12 66  1  0
 12 67  1  0
 13 14  2  0
 13 68  1  0
 14 15  1  0
 15 30  1  0
 15 16  1  0
 15 69  1  1
 16 17  1  0
 17 44  1  0
 17 18  1  1
 17 19  1  0
 18 70  1  0
 19 56  1  0
 19 20  1  1
 19 21  1  0
 20 71  1  0
 20 72  1  0
 20 73  1  0
 21 22  1  0
 22 23  1  0
 22 25  1  0
 22 74  1  6
 23 24  1  0
 24 75  1  0
 24 76  1  0
 24 77  1  0
 25 51  1  0
 25 26  1  6
 25 54  1  0
 26 27  1  0
 26 78  1  0
 26 79  1  0
 27 28  1  0
 27 30  1  0
 27 80  1  6
 28 29  1  0
 28 81  1  6
 29 82  1  0
 30 31  1  6
 30 32  1  0
 31 83  1  0
 32 38  1  0
 32 33  1  0
 32 84  1  6
 33 34  1  0
 33 35  1  0
 33 85  1  1
 34 86  1  0
 35 36  1  0
 35 38  1  0
 35 87  1  1
 36 37  1  0
 37 88  1  0
 37 89  1  0
 37 90  1  0
 38 39  1  6
 38 40  1  0
 39 91  1  0
 52 40  1  1
 40 41  1  1
 40 42  1  0
 41 92  1  0
 42 43  1  0
 42 44  1  0
 42 93  1  6
 43 94  1  0
 44 45  1  1
 44 46  1  0
 45 95  1  0
 46 48  1  0
 46 47  1  0
 46 96  1  1
 47 48  1  0
 48 49  1  1
 48 50  1  0
 49 97  1  0
 49 98  1  0
 49 99  1  0
 50 51  1  0
 50100  1  0
 50101  1  0
 51 52  1  0
 51102  1  1
 52 53  2  0
 54 55  1  0
 54 56  1  0
 54103  1  6
 55104  1  0
 56 57  1  0
 56105  1  1
 57106  1  0
M  END
>  <i_m_ct_stereo_status>  (29) 
1

>  <s_m_source_file>  (29) 
/var/tmp/pbs.5075288.sched01/tmpzl_yb0kw/0ymjshsm9.sdf

>  <i_m_source_file_index>  (29) 
55

>  <i_lp_mmshare_version>  (29) 
48012

>  <i_f3d_flags>  (29) 
0

>  <s_epik_input>  (29) 
W09IXVtDQEhdMVtDQEBIXShPW0NIM10pW0NAXShbT0hdKShbQ0BAXShbT0hdKShbUytdMltPLV0pW0NASF0zW09IXSlbQ0BIXTFbQ0BdNChbT0hdKVtDQEhdKFtDSDJdNSlbQ0BASF0oW09IXSlbQ0BdKFtPSF0pKEMoPU8pW0NAXTYoW09IXSlDKD1PKVtOSF1bQ0gzXSlbQ0gyXVtDSDJdW0NIXT1DNltDQEBIXTRPW0NAXShbT0hdKShbQ0BdKFtDSDNdKShbQ0BIXShbT0hdKVtDQEBIXTdbT0hdKU9bQ0BIXThPW0NIM10pW0NAXTMoW09IXSlbQ0BASF0oTzkpW0NAXTkoW0NIM10pW0NIMl1bQ0BASF0yQzU3OA==

>  <s_epik_cmdline>  (29) 
J2VwaWtfcHl0aG9uJywgJy1waHQnLCAnMi4wJywgJy1waCcsICc3LjAnLCAnLXRuJywgJzgnLCAnLW1hJywgJzIwMCcsICctaW1hZScsICc8aW5maWxlLm1hZT4nLCAnLW9tYWUnLCAnPG91dGZpbGUubWFlPic=

>  <r_lp_tautomer_probability>  (29) 
1

>  <r_epik_Ionization_Penalty>  (29) 
1.40957e-05

>  <r_epik_Ionization_Penalty_Charging>  (29) 
0

>  <r_epik_Ionization_Penalty_Neutral>  (29) 
1.40957e-05

>  <r_epik_State_Penalty>  (29) 
0

>  <r_epik_Charging_Adjusted_Penalty>  (29) 
0

>  <i_epik_Tot_Q>  (29) 
0

>  <i_epik_Tot_abs_Q>  (29) 
2

>  <s_epik_Chemistry_Notes>  (29) 
This compound contains an acetal/aminal-like group ( X-CH(R)-Y where X, Y are N, S, or O) that may be acid/base labile, releasing an aldehyde.

>  <s_lp_Force_Field>  (29) 
OPLS3e

>  <r_lp_Energy>  (29) 
509.891

>  <b_lp_Chiralities_Consistent>  (29) 
1

>  <s_lp_Variant>  (29) 
14:0-8

>  <s_i_glide_gridfile>  (29) 
pfpi4k_grid

>  <i_i_glide_lignum>  (29) 
55

>  <i_i_glide_rotatable_bonds>  (29) 
16

>  <r_i_docking_score>  (29) 
-3.13971

>  <r_i_glide_ligand_efficiency>  (29) 
-0.0550826

>  <r_i_glide_ligand_efficiency_sa>  (29) 
-0.211985

>  <r_i_glide_ligand_efficiency_ln>  (29) 
-0.622581

>  <r_i_glide_gscore>  (29) 
-3.13971

>  <r_i_glide_lipo>  (29) 
-0.398236

>  <r_i_glide_hbond>  (29) 
0

>  <r_i_glide_metal>  (29) 
-0

>  <r_i_glide_rewards>  (29) 
-1.57015

>  <r_i_glide_evdw>  (29) 
-20.7238

>  <r_i_glide_ecoul>  (29) 
-0.885784

>  <r_i_glide_erotb>  (29) 
0.0313225

>  <r_i_glide_esite>  (29) 
-0.0335792

>  <r_i_glide_emodel>  (29) 
-34.3261

>  <r_i_glide_energy>  (29) 
-21.6096

>  <r_i_glide_einternal>  (29) 
8.53238

>  <r_i_glide_intrahb_reward>  (29) 
-1.5

>  <i_i_glide_confnum>  (29) 
4

>  <i_i_glide_posenum>  (29) 
34

>  <r_i_glide_eff_state_penalty>  (29) 
0

>  <ligand_id>  (29) 
14

>  <original_smiles>  (29) 
CNC(=O)C1(O)C(=O)C2(O)CCC=C1C1OC3(O)C4(C)OC(OC)C5(CC(C2O)C1(O)C1C(O)C(OC)C1(O)C1(O)C(O)C3(O)C2OC2(C)CC5[S+]1[O-])C(O)C4O

>  <smiles>  (29) 
[H]OC1(C(=O)N([H])C([H])([H])[H])C(=O)C2(O[H])C([H])([H])C([H])([H])C([H])=C1C1([H])OC3(O[H])C4(C([H])([H])[H])OC([H])(OC([H])([H])[H])C5(C([H])([H])C([H])(C2([H])O[H])C1(O[H])C1([H])C([H])(O[H])C([H])(OC([H])([H])[H])C1(O[H])C1(O[H])S(=O)C5([H])C([H])([H])C2(C([H])([H])[H])OC2([H])C3(O[H])C1([H])O[H])C([H])(O[H])C4([H])O[H]

$$$$
14:9:0
     RDKit          3D

106114  0  0  1  0  0  0  0  0999 V2000
   -3.3075    3.7497    2.4632 C   0  0  0  0  0  0  0  0  0  0  0  0
   -1.9295    3.7632    2.9395 N   0  0  0  0  0  0  0  0  0  0  0  0
   -1.4655    3.0296    3.9775 C   0  0  0  0  0  0  0  0  0  0  0  0
   -2.1865    2.2299    4.5699 O   0  0  0  0  0  0  0  0  0  0  0  0
    0.0180    3.1970    4.4357 C   0  0  1  0  0  0  0  0  0  0  0  0
    0.7019    2.6364    3.3381 O   0  0  0  0  0  0  0  0  0  0  0  0
    0.4543    4.7249    4.4118 C   0  0  0  0  0  0  0  0  0  0  0  0
    0.3045    5.3652    3.3666 O   0  0  0  0  0  0  0  0  0  0  0  0
    1.1544    5.5291    5.6001 C   0  0  2  0  0  0  0  0  0  0  0  0
    1.3182    5.2023    6.9706 O   0  0  0  0  0  0  0  0  0  0  0  0
   -0.2305    5.7904    6.3847 C   0  0  0  0  0  0  0  0  0  0  0  0
   -1.1581    4.5316    6.7282 C   0  0  0  0  0  0  0  0  0  0  0  0
   -0.3767    3.2109    6.8305 C   0  0  0  0  0  0  0  0  0  0  0  0
    0.3311    2.5246    5.8657 C   0  0  0  0  0  0  0  0  0  0  0  0
    1.7923    1.7017    6.2338 C   0  0  2  0  0  0  0  0  0  0  0  0
    2.2425    0.1422    6.3028 O   0  0  0  0  0  0  0  0  0  0  0  0
    3.1939   -1.0632    6.3313 C   0  0  2  0  0  0  0  0  0  0  0  0
    3.7266   -1.0763    7.6313 O   0  0  0  0  0  0  0  0  0  0  0  0
    4.5369   -1.3197    5.2942 C   0  0  1  0  0  0  0  0  0  0  0  0
    5.1402   -2.7472    5.3789 C   0  0  0  0  0  0  0  0  0  0  0  0
    4.4826   -1.0662    3.8276 O   0  0  0  0  0  0  0  0  0  0  0  0
    4.5406    0.2832    3.3220 C   0  0  1  0  0  0  0  0  0  0  0  0
    4.0871    0.4841    2.0191 O   0  0  0  0  0  0  0  0  0  0  0  0
    4.8492   -0.1839    1.0218 C   0  0  0  0  0  0  0  0  0  0  0  0
    3.6278    0.9469    4.3339 C   0  0  1  0  0  0  0  0  0  0  0  0
    3.6173    2.5845    4.4953 C   0  0  0  0  0  0  0  0  0  0  0  0
    2.9415    3.3682    5.8402 C   0  0  2  0  0  0  0  0  0  0  0  0
    2.7083    4.9706    5.7598 C   0  0  1  0  0  0  0  0  0  0  0  0
    3.3744    5.4562    4.6029 O   0  0  0  0  0  0  0  0  0  0  0  0
    2.2094    2.6811    7.2718 C   0  0  1  0  0  0  0  0  0  0  0  0
    3.3058    2.9541    8.1230 O   0  0  0  0  0  0  0  0  0  0  0  0
    1.5493    1.3843    8.1302 C   0  0  1  0  0  0  0  0  0  0  0  0
    1.1221    1.3538    9.6112 C   0  0  1  0  0  0  0  0  0  0  0  0
    0.2102    2.3306   10.0640 O   0  0  0  0  0  0  0  0  0  0  0  0
    0.5730   -0.0678    9.3007 C   0  0  1  0  0  0  0  0  0  0  0  0
   -0.4819   -0.4766   10.1675 O   0  0  0  0  0  0  0  0  0  0  0  0
   -0.0532   -0.7779   11.4946 C   0  0  0  0  0  0  0  0  0  0  0  0
    0.2097    0.3561    7.8236 C   0  0  1  0  0  0  0  0  0  0  0  0
   -1.0852    0.9196    7.9375 O   0  0  0  0  0  0  0  0  0  0  0  0
    0.0224   -0.7483    6.5261 C   0  0  2  0  0  0  0  0  0  0  0  0
   -1.3372   -1.1061    6.4711 O   0  0  0  0  0  0  0  0  0  0  0  0
    0.7822   -2.0972    6.8286 C   0  0  1  0  0  0  0  0  0  0  0  0
   -0.0315   -3.2581    6.6408 O   0  0  0  0  0  0  0  0  0  0  0  0
    2.2125   -2.3402    6.2307 C   0  0  2  0  0  0  0  0  0  0  0  0
    2.6795   -3.3534    7.1255 O   0  0  0  0  0  0  0  0  0  0  0  0
    2.1896   -3.1549    4.9113 C   0  0  1  0  0  0  0  0  0  0  0  0
    0.9798   -3.1182    4.1530 O   0  0  0  0  0  0  0  0  0  0  0  0
    2.1571   -2.7068    3.4661 C   0  0  2  0  0  0  0  0  0  0  0  0
    2.6483   -3.6879    2.4069 C   0  0  0  0  0  0  0  0  0  0  0  0
    2.0733   -1.2950    2.8953 C   0  0  0  0  0  0  0  0  0  0  0  0
    2.1283   -0.0277    3.8507 C   0  0  1  0  0  0  0  0  0  0  0  0
    0.3194   -0.2037    4.6725 S   0  0  0  0  0  0  0  0  0  0  0  0
   -0.6664   -0.9768    3.8198 O   0  0  0  0  0  0  0  0  0  0  0  0
    4.8546    0.8760    5.4724 C   0  0  1  0  0  0  0  0  0  0  0  0
    4.7547    1.4348    6.7321 O   0  0  0  0  0  0  0  0  0  0  0  0
    5.6262   -0.3909    5.6754 C   0  0  1  0  0  0  0  0  0  0  0  0
    6.3719   -0.6042    6.8734 O   0  0  0  0  0  0  0  0  0  0  0  0
   -3.5170    4.6746    1.9283 H   0  0  0  0  0  0  0  0  0  0  0  0
   -4.0302    3.6821    3.2727 H   0  0  0  0  0  0  0  0  0  0  0  0
   -3.4849    2.9146    1.7836 H   0  0  0  0  0  0  0  0  0  0  0  0
   -1.2541    4.3181    2.4131 H   0  0  0  0  0  0  0  0  0  0  0  0
    0.4785    3.1478    2.5649 H   0  0  0  0  0  0  0  0  0  0  0  0
    1.9382    4.4947    7.0636 H   0  0  0  0  0  0  0  0  0  0  0  0
   -0.2527    6.5450    7.1975 H   0  0  0  0  0  0  0  0  0  0  0  0
   -0.8393    6.3620    5.6851 H   0  0  0  0  0  0  0  0  0  0  0  0
   -1.6403    4.7024    7.6919 H   0  0  0  0  0  0  0  0  0  0  0  0
   -1.9831    4.4272    6.0331 H   0  0  0  0  0  0  0  0  0  0  0  0
   -0.1531    3.1135    7.8714 H   0  0  0  0  0  0  0  0  0  0  0  0
    1.6726    1.7581    5.2046 H   0  0  0  0  0  0  0  0  0  0  0  0
    4.1722   -0.2395    7.7167 H   0  0  0  0  0  0  0  0  0  0  0  0
    5.2353   -3.1117    6.3967 H   0  0  0  0  0  0  0  0  0  0  0  0
    6.1385   -2.7559    4.9620 H   0  0  0  0  0  0  0  0  0  0  0  0
    4.6235   -3.4815    4.7739 H   0  0  0  0  0  0  0  0  0  0  0  0
    5.5741    0.6450    3.2817 H   0  0  0  0  0  0  0  0  0  0  0  0
    4.3995    0.0088    0.0500 H   0  0  0  0  0  0  0  0  0  0  0  0
    4.8491   -1.2623    1.1745 H   0  0  0  0  0  0  0  0  0  0  0  0
    5.8827    0.1543    0.9829 H   0  0  0  0  0  0  0  0  0  0  0  0
    4.6010    3.0291    4.4029 H   0  0  0  0  0  0  0  0  0  0  0  0
    3.1823    2.9322    3.5462 H   0  0  0  0  0  0  0  0  0  0  0  0
    2.2847    3.5142    5.0664 H   0  0  0  0  0  0  0  0  0  0  0  0
    3.3389    5.4717    6.5171 H   0  0  0  0  0  0  0  0  0  0  0  0
    4.2933    5.2442    4.6612 H   0  0  0  0  0  0  0  0  0  0  0  0
    3.9517    2.2633    7.9978 H   0  0  0  0  0  0  0  0  0  0  0  0
    2.4348    0.7904    8.3629 H   0  0  0  0  0  0  0  0  0  0  0  0
    1.9760    1.3241   10.2912 H   0  0  0  0  0  0  0  0  0  0  0  0
   -0.0135    2.1124   10.9595 H   0  0  0  0  0  0  0  0  0  0  0  0
    1.3927   -0.7840    9.3620 H   0  0  0  0  0  0  0  0  0  0  0  0
   -0.9068   -1.0425   12.1147 H   0  0  0  0  0  0  0  0  0  0  0  0
    0.4567    0.0565   11.9806 H   0  0  0  0  0  0  0  0  0  0  0  0
    0.6160   -1.6365   11.5050 H   0  0  0  0  0  0  0  0  0  0  0  0
   -0.9965    1.5761    8.6180 H   0  0  0  0  0  0  0  0  0  0  0  0
   -1.5435   -1.1240    5.5541 H   0  0  0  0  0  0  0  0  0  0  0  0
    0.8812   -2.1381    7.9034 H   0  0  0  0  0  0  0  0  0  0  0  0
   -0.0129   -3.4732    5.7171 H   0  0  0  0  0  0  0  0  0  0  0  0
    3.5526   -3.5989    6.8620 H   0  0  0  0  0  0  0  0  0  0  0  0
    2.5223   -4.1870    5.0410 H   0  0  0  0  0  0  0  0  0  0  0  0
    3.6884   -3.4838    2.1480 H   0  0  0  0  0  0  0  0  0  0  0  0
    2.0429   -3.6201    1.5031 H   0  0  0  0  0  0  0  0  0  0  0  0
    2.5952   -4.7125    2.7799 H   0  0  0  0  0  0  0  0  0  0  0  0
    2.7745   -1.2897    2.0785 H   0  0  0  0  0  0  0  0  0  0  0  0
    1.1514   -1.2594    2.3128 H   0  0  0  0  0  0  0  0  0  0  0  0
    1.8704    0.6450    3.0460 H   0  0  0  0  0  0  0  0  0  0  0  0
    5.6801    1.5196    5.1577 H   0  0  0  0  0  0  0  0  0  0  0  0
    4.6795    2.3674    6.5573 H   0  0  0  0  0  0  0  0  0  0  0  0
    6.4129   -0.4199    4.9336 H   0  0  0  0  0  0  0  0  0  0  0  0
    5.7909   -0.6791    7.6164 H   0  0  0  0  0  0  0  0  0  0  0  0
  1  2  1  0
  1 58  1  0
  1 59  1  0
  1 60  1  0
  2  3  1  0
  2 61  1  0
  3  4  2  0
  3  5  1  0
  5 14  1  0
  5  6  1  6
  5  7  1  0
  6 62  1  0
  7  8  2  0
  7  9  1  0
  9 28  1  0
  9 10  1  1
  9 11  1  0
 10 63  1  0
 11 12  1  0
 11 64  1  0
 11 65  1  0
 12 13  1  0
 12 66  1  0
 12 67  1  0
 13 14  2  0
 13 68  1  0
 14 15  1  0
 15 30  1  0
 15 16  1  0
 15 69  1  6
 16 17  1  0
 17 44  1  0
 17 18  1  1
 17 19  1  0
 18 70  1  0
 19 56  1  0
 19 20  1  6
 19 21  1  0
 20 71  1  0
 20 72  1  0
 20 73  1  0
 21 22  1  0
 22 23  1  0
 22 25  1  0
 22 74  1  6
 23 24  1  0
 24 75  1  0
 24 76  1  0
 24 77  1  0
 25 51  1  0
 25 26  1  6
 25 54  1  0
 26 27  1  0
 26 78  1  0
 26 79  1  0
 27 28  1  0
 27 30  1  0
 27 80  1  1
 28 29  1  0
 28 81  1  1
 29 82  1  0
 30 31  1  1
 30 32  1  0
 31 83  1  0
 32 38  1  0
 32 33  1  0
 32 84  1  1
 33 34  1  0
 33 35  1  0
 33 85  1  1
 34 86  1  0
 35 36  1  0
 35 38  1  0
 35 87  1  6
 36 37  1  0
 37 88  1  0
 37 89  1  0
 37 90  1  0
 38 39  1  1
 38 40  1  0
 39 91  1  0
 52 40  1  1
 40 41  1  6
 40 42  1  0
 41 92  1  0
 42 43  1  0
 42 44  1  0
 42 93  1  1
 43 94  1  0
 44 45  1  1
 44 46  1  0
 45 95  1  0
 46 48  1  0
 46 47  1  0
 46 96  1  6
 47 48  1  0
 48 49  1  6
 48 50  1  0
 49 97  1  0
 49 98  1  0
 49 99  1  0
 50 51  1  0
 50100  1  0
 50101  1  0
 51 52  1  0
 51102  1  6
 52 53  2  0
 54 55  1  0
 54 56  1  0
 54103  1  6
 55104  1  0
 56 57  1  0
 56105  1  6
 57106  1  0
M  END
>  <i_m_ct_stereo_status>  (30) 
1

>  <s_m_source_file>  (30) 
/var/tmp/pbs.5075288.sched01/tmpzl_yb0kw/0ymjshsm9.sdf

>  <i_m_source_file_index>  (30) 
57

>  <i_lp_mmshare_version>  (30) 
48012

>  <i_f3d_flags>  (30) 
0

>  <s_epik_input>  (30) 
W09IXVtDQEhdMVtDQEBIXShPW0NIM10pW0NAXShbT0hdKShbQ0BAXShbT0hdKShbUytdMltPLV0pW0NASF0zW09IXSlbQ0BIXTFbQ0BdNChbT0hdKVtDQEhdKFtDSDJdNSlbQ0BASF0oW09IXSlbQ0BdKFtPSF0pKEMoPU8pW0NAXTYoW09IXSlDKD1PKVtOSF1bQ0gzXSlbQ0gyXVtDSDJdW0NIXT1DNltDQEBIXTRPW0NAXShbT0hdKShbQ0BdKFtDSDNdKShbQ0BIXShbT0hdKVtDQEBIXTdbT0hdKU9bQ0BIXThPW0NIM10pW0NAXTMoW09IXSlbQ0BASF0oTzkpW0NAXTkoW0NIM10pW0NIMl1bQ0BASF0yQzU3OA==

>  <s_epik_cmdline>  (30) 
J2VwaWtfcHl0aG9uJywgJy1waHQnLCAnMi4wJywgJy1waCcsICc3LjAnLCAnLXRuJywgJzgnLCAnLW1hJywgJzIwMCcsICctaW1hZScsICc8aW5maWxlLm1hZT4nLCAnLW9tYWUnLCAnPG91dGZpbGUubWFlPic=

>  <r_lp_tautomer_probability>  (30) 
1

>  <r_epik_Ionization_Penalty>  (30) 
1.40957e-05

>  <r_epik_Ionization_Penalty_Charging>  (30) 
0

>  <r_epik_Ionization_Penalty_Neutral>  (30) 
1.40957e-05

>  <r_epik_State_Penalty>  (30) 
0

>  <r_epik_Charging_Adjusted_Penalty>  (30) 
0

>  <i_epik_Tot_Q>  (30) 
0

>  <i_epik_Tot_abs_Q>  (30) 
2

>  <s_epik_Chemistry_Notes>  (30) 
This compound contains an acetal/aminal-like group ( X-CH(R)-Y where X, Y are N, S, or O) that may be acid/base labile, releasing an aldehyde.

>  <s_lp_Force_Field>  (30) 
OPLS3e

>  <r_lp_Energy>  (30) 
987.519

>  <b_lp_Chiralities_Consistent>  (30) 
1

>  <s_lp_Variant>  (30) 
14:0-10

>  <s_i_glide_gridfile>  (30) 
pfpi4k_grid

>  <i_i_glide_lignum>  (30) 
57

>  <i_i_glide_rotatable_bonds>  (30) 
16

>  <r_i_docking_score>  (30) 
-3.99007

>  <r_i_glide_ligand_efficiency>  (30) 
-0.0700012

>  <r_i_glide_ligand_efficiency_sa>  (30) 
-0.2694

>  <r_i_glide_ligand_efficiency_ln>  (30) 
-0.791202

>  <r_i_glide_gscore>  (30) 
-3.99007

>  <r_i_glide_lipo>  (30) 
-0.245599

>  <r_i_glide_hbond>  (30) 
-0.135491

>  <r_i_glide_metal>  (30) 
-0

>  <r_i_glide_rewards>  (30) 
-1.52022

>  <r_i_glide_evdw>  (30) 
-20.1694

>  <r_i_glide_ecoul>  (30) 
-6.12853

>  <r_i_glide_erotb>  (30) 
0.0313225

>  <r_i_glide_esite>  (30) 
-0.192331

>  <r_i_glide_emodel>  (30) 
-45.055

>  <r_i_glide_energy>  (30) 
-26.298

>  <r_i_glide_einternal>  (30) 
7.676

>  <r_i_glide_intrahb_reward>  (30) 
-1.5

>  <i_i_glide_confnum>  (30) 
4

>  <i_i_glide_posenum>  (30) 
31

>  <r_i_glide_eff_state_penalty>  (30) 
0

>  <ligand_id>  (30) 
14

>  <original_smiles>  (30) 
CNC(=O)C1(O)C(=O)C2(O)CCC=C1C1OC3(O)C4(C)OC(OC)C5(CC(C2O)C1(O)C1C(O)C(OC)C1(O)C1(O)C(O)C3(O)C2OC2(C)CC5[S+]1[O-])C(O)C4O

>  <smiles>  (30) 
[H]OC1(C(=O)N([H])C([H])([H])[H])C(=O)C2(O[H])C([H])([H])C([H])([H])C([H])=C1C1([H])OC3(O[H])C4(C([H])([H])[H])OC([H])(OC([H])([H])[H])C5(C([H])([H])C([H])(C2([H])O[H])C1(O[H])C1([H])C([H])(O[H])C([H])(OC([H])([H])[H])C1(O[H])C1(O[H])S(=O)C5([H])C([H])([H])C2(C([H])([H])[H])OC2([H])C3(O[H])C1([H])O[H])C([H])(O[H])C4([H])O[H]

$$$$
14:9:1
     RDKit          3D

106114  0  0  1  0  0  0  0  0999 V2000
   -2.8711    3.0977    2.4924 C   0  0  0  0  0  0  0  0  0  0  0  0
   -1.4881    3.1225    2.9430 N   0  0  0  0  0  0  0  0  0  0  0  0
   -0.9675    2.2590    3.8643 C   0  0  0  0  0  0  0  0  0  0  0  0
   -1.5898    1.2993    4.2615 O   0  0  0  0  0  0  0  0  0  0  0  0
    0.4473    2.5715    4.4529 C   0  0  1  0  0  0  0  0  0  0  0  0
    1.2838    1.9976    3.4731 O   0  0  0  0  0  0  0  0  0  0  0  0
    0.7973    4.1183    4.4212 C   0  0  0  0  0  0  0  0  0  0  0  0
    0.7819    4.7203    3.3457 O   0  0  0  0  0  0  0  0  0  0  0  0
    1.2661    5.0073    5.6562 C   0  0  2  0  0  0  0  0  0  0  0  0
    1.2930    4.7197    7.0398 O   0  0  0  0  0  0  0  0  0  0  0  0
   -0.2280    5.1986    6.2394 C   0  0  0  0  0  0  0  0  0  0  0  0
   -1.1077    3.8937    6.5115 C   0  0  0  0  0  0  0  0  0  0  0  0
   -0.2478    2.6543    6.7702 C   0  0  0  0  0  0  0  0  0  0  0  0
    0.6278    1.9725    5.9289 C   0  0  0  0  0  0  0  0  0  0  0  0
    2.0721    1.2609    6.5235 C   0  0  2  0  0  0  0  0  0  0  0  0
    2.6378   -0.2549    6.6903 O   0  0  0  0  0  0  0  0  0  0  0  0
    3.6465   -1.3788    6.9057 C   0  0  2  0  0  0  0  0  0  0  0  0
    3.9914   -1.3254    8.2642 O   0  0  0  0  0  0  0  0  0  0  0  0
    5.1160   -1.5621    6.0508 C   0  0  1  0  0  0  0  0  0  0  0  0
    5.8197   -2.9374    6.2666 C   0  0  0  0  0  0  0  0  0  0  0  0
    5.2269   -1.3820    4.5716 O   0  0  0  0  0  0  0  0  0  0  0  0
    5.2650   -0.0540    4.0090 C   0  0  1  0  0  0  0  0  0  0  0  0
    4.9845    0.0343    2.6511 O   0  0  0  0  0  0  0  0  0  0  0  0
    5.8018   -0.7640    1.7801 C   0  0  0  0  0  0  0  0  0  0  0  0
    4.1820    0.5873    4.8774 C   0  0  1  0  0  0  0  0  0  0  0  0
    4.0394    2.2142    4.9707 C   0  0  0  0  0  0  0  0  0  0  0  0
    3.1726    2.9936    6.1984 C   0  0  2  0  0  0  0  0  0  0  0  0
    2.8237    4.5673    6.0271 C   0  0  1  0  0  0  0  0  0  0  0  0
    3.5917    5.0657    4.9438 O   0  0  0  0  0  0  0  0  0  0  0  0
    2.3114    2.3012    7.5535 C   0  0  1  0  0  0  0  0  0  0  0  0
    3.2797    2.6058    8.5252 O   0  0  0  0  0  0  0  0  0  0  0  0
    1.6334    0.9852    8.3783 C   0  0  1  0  0  0  0  0  0  0  0  0
    1.0278    0.9778    9.7872 C   0  0  1  0  0  0  0  0  0  0  0  0
   -0.0026    1.8898   10.0872 O   0  0  0  0  0  0  0  0  0  0  0  0
    0.6191   -0.4942    9.4600 C   0  0  1  0  0  0  0  0  0  0  0  0
   -0.4947   -0.9770   10.2064 O   0  0  0  0  0  0  0  0  0  0  0  0
   -0.1785   -1.2948   11.5641 C   0  0  0  0  0  0  0  0  0  0  0  0
    0.4241   -0.1578    7.9446 C   0  0  1  0  0  0  0  0  0  0  0  0
   -0.8794    0.3469    7.8131 O   0  0  0  0  0  0  0  0  0  0  0  0
    0.4692   -1.3223    6.7026 C   0  0  2  0  0  0  0  0  0  0  0  0
   -0.8516   -1.8423    6.5512 O   0  0  0  0  0  0  0  0  0  0  0  0
    1.2921   -2.5901    7.1414 C   0  0  1  0  0  0  0  0  0  0  0  0
    0.6027   -3.8269    6.9232 O   0  0  0  0  0  0  0  0  0  0  0  0
    2.7833   -2.7332    6.7327 C   0  0  2  0  0  0  0  0  0  0  0  0
    3.2068   -3.6747    7.7196 O   0  0  0  0  0  0  0  0  0  0  0  0
    2.9841   -3.6009    5.4631 C   0  0  1  0  0  0  0  0  0  0  0  0
    1.8910   -3.6963    4.5493 O   0  0  0  0  0  0  0  0  0  0  0  0
    3.0991   -3.1967    3.9993 C   0  0  2  0  0  0  0  0  0  0  0  0
    3.7887   -4.1518    3.0521 C   0  0  0  0  0  0  0  0  0  0  0  0
    2.9516   -1.8104    3.3567 C   0  0  0  0  0  0  0  0  0  0  0  0
    2.8140   -0.5165    4.2676 C   0  0  1  0  0  0  0  0  0  0  0  0
    0.9173   -0.8042    4.8703 S   0  0  0  0  0  0  0  0  0  0  0  0
    0.1258   -1.6956    3.9245 O   0  0  0  0  0  0  0  0  0  0  0  0
    5.2764    0.6675    6.1578 C   0  0  1  0  0  0  0  0  0  0  0  0
    5.0142    1.2288    7.4112 O   0  0  0  0  0  0  0  0  0  0  0  0
    6.1047   -0.5368    6.5077 C   0  0  1  0  0  0  0  0  0  0  0  0
    6.6013   -0.6306    7.8438 O   0  0  0  0  0  0  0  0  0  0  0  0
   -3.1322    4.0752    2.0807 H   0  0  0  0  0  0  0  0  0  0  0  0
   -3.5683    2.8947    3.3101 H   0  0  0  0  0  0  0  0  0  0  0  0
   -3.0318    2.3501    1.7180 H   0  0  0  0  0  0  0  0  0  0  0  0
   -0.8567    3.8035    2.5403 H   0  0  0  0  0  0  0  0  0  0  0  0
    2.1787    2.2393    3.6670 H   0  0  0  0  0  0  0  0  0  0  0  0
    1.6054    5.4918    7.4952 H   0  0  0  0  0  0  0  0  0  0  0  0
   -0.3933    5.9653    7.0223 H   0  0  0  0  0  0  0  0  0  0  0  0
   -0.7819    5.6963    5.4407 H   0  0  0  0  0  0  0  0  0  0  0  0
   -1.6931    4.0494    7.4167 H   0  0  0  0  0  0  0  0  0  0  0  0
   -1.8650    3.7344    5.7462 H   0  0  0  0  0  0  0  0  0  0  0  0
   -0.1189    2.6221    7.8267 H   0  0  0  0  0  0  0  0  0  0  0  0
    2.0875    1.2750    5.4797 H   0  0  0  0  0  0  0  0  0  0  0  0
    4.6093   -0.6017    8.3531 H   0  0  0  0  0  0  0  0  0  0  0  0
    5.8088   -3.2648    7.3007 H   0  0  0  0  0  0  0  0  0  0  0  0
    6.8732   -2.8958    5.9927 H   0  0  0  0  0  0  0  0  0  0  0  0
    5.4406   -3.7296    5.6289 H   0  0  0  0  0  0  0  0  0  0  0  0
    6.2589    0.3990    4.0616 H   0  0  0  0  0  0  0  0  0  0  0  0
    5.4267   -0.5990    0.7672 H   0  0  0  0  0  0  0  0  0  0  0  0
    5.7286   -1.8270    1.9757 H   0  0  0  0  0  0  0  0  0  0  0  0
    6.8709   -0.5836    1.8101 H   0  0  0  0  0  0  0  0  0  0  0  0
    5.0122    2.7263    4.9768 H   0  0  0  0  0  0  0  0  0  0  0  0
    3.7240    2.5112    3.9700 H   0  0  0  0  0  0  0  0  0  0  0  0
    2.6024    3.0640    5.3456 H   0  0  0  0  0  0  0  0  0  0  0  0
    3.3244    5.1281    6.8370 H   0  0  0  0  0  0  0  0  0  0  0  0
    4.5097    4.9699    5.1520 H   0  0  0  0  0  0  0  0  0  0  0  0
    4.0546    2.1088    8.2499 H   0  0  0  0  0  0  0  0  0  0  0  0
    2.5268    0.4722    8.7385 H   0  0  0  0  0  0  0  0  0  0  0  0
    1.7919    1.0282   10.5650 H   0  0  0  0  0  0  0  0  0  0  0  0
   -0.2761    1.7206   10.9813 H   0  0  0  0  0  0  0  0  0  0  0  0
    1.4851   -1.1264    9.6532 H   0  0  0  0  0  0  0  0  0  0  0  0
   -1.0695   -1.6014   12.1032 H   0  0  0  0  0  0  0  0  0  0  0  0
    0.2615   -0.4615   12.1151 H   0  0  0  0  0  0  0  0  0  0  0  0
    0.5041   -2.1383   11.6147 H   0  0  0  0  0  0  0  0  0  0  0  0
   -0.8758    1.1015    8.3951 H   0  0  0  0  0  0  0  0  0  0  0  0
   -0.9242   -2.0350    5.6234 H   0  0  0  0  0  0  0  0  0  0  0  0
    1.2674   -2.5768    8.2202 H   0  0  0  0  0  0  0  0  0  0  0  0
   -0.1563   -3.8193    7.4892 H   0  0  0  0  0  0  0  0  0  0  0  0
    4.1183   -3.8697    7.5645 H   0  0  0  0  0  0  0  0  0  0  0  0
    3.3743   -4.5985    5.6777 H   0  0  0  0  0  0  0  0  0  0  0  0
    4.8408   -3.8872    2.9078 H   0  0  0  0  0  0  0  0  0  0  0  0
    3.2882   -4.1615    2.0830 H   0  0  0  0  0  0  0  0  0  0  0  0
    3.7640   -5.1657    3.4489 H   0  0  0  0  0  0  0  0  0  0  0  0
    3.6855   -1.7492    2.6013 H   0  0  0  0  0  0  0  0  0  0  0  0
    2.0494   -1.8926    2.7243 H   0  0  0  0  0  0  0  0  0  0  0  0
    2.6285    0.0969    3.4082 H   0  0  0  0  0  0  0  0  0  0  0  0
    6.0883    1.3528    5.8965 H   0  0  0  0  0  0  0  0  0  0  0  0
    5.8430    1.2929    7.8734 H   0  0  0  0  0  0  0  0  0  0  0  0
    7.0056   -0.5801    5.8870 H   0  0  0  0  0  0  0  0  0  0  0  0
    7.3596   -0.0684    7.9355 H   0  0  0  0  0  0  0  0  0  0  0  0
  1  2  1  0
  1 58  1  0
  1 59  1  0
  1 60  1  0
  2  3  1  0
  2 61  1  0
  3  4  2  0
  3  5  1  0
  5 14  1  0
  5  6  1  6
  5  7  1  0
  6 62  1  0
  7  8  2  0
  7  9  1  0
  9 28  1  0
  9 10  1  1
  9 11  1  0
 10 63  1  0
 11 12  1  0
 11 64  1  0
 11 65  1  0
 12 13  1  0
 12 66  1  0
 12 67  1  0
 13 14  2  0
 13 68  1  0
 14 15  1  0
 15 30  1  0
 15 16  1  0
 15 69  1  6
 16 17  1  0
 17 44  1  0
 17 18  1  1
 17 19  1  0
 18 70  1  0
 19 56  1  0
 19 20  1  6
 19 21  1  0
 20 71  1  0
 20 72  1  0
 20 73  1  0
 21 22  1  0
 22 23  1  0
 22 25  1  0
 22 74  1  6
 23 24  1  0
 24 75  1  0
 24 76  1  0
 24 77  1  0
 25 51  1  0
 25 26  1  6
 25 54  1  0
 26 27  1  0
 26 78  1  0
 26 79  1  0
 27 28  1  0
 27 30  1  0
 27 80  1  1
 28 29  1  0
 28 81  1  1
 29 82  1  0
 30 31  1  1
 30 32  1  0
 31 83  1  0
 32 38  1  0
 32 33  1  0
 32 84  1  1
 33 34  1  0
 33 35  1  0
 33 85  1  1
 34 86  1  0
 35 36  1  0
 35 38  1  0
 35 87  1  6
 36 37  1  0
 37 88  1  0
 37 89  1  0
 37 90  1  0
 38 39  1  1
 38 40  1  0
 39 91  1  0
 52 40  1  1
 40 41  1  6
 40 42  1  0
 41 92  1  0
 42 43  1  0
 42 44  1  0
 42 93  1  1
 43 94  1  0
 44 45  1  1
 44 46  1  0
 45 95  1  0
 46 48  1  0
 46 47  1  0
 46 96  1  1
 47 48  1  0
 48 49  1  6
 48 50  1  0
 49 97  1  0
 49 98  1  0
 49 99  1  0
 50 51  1  0
 50100  1  0
 50101  1  0
 51 52  1  0
 51102  1  6
 52 53  2  0
 54 55  1  0
 54 56  1  0
 54103  1  6
 55104  1  0
 56 57  1  0
 56105  1  6
 57106  1  0
M  END
>  <i_m_ct_stereo_status>  (31) 
1

>  <s_m_source_file>  (31) 
/var/tmp/pbs.5075288.sched01/tmpzl_yb0kw/0ymjshsm9.sdf

>  <i_m_source_file_index>  (31) 
57

>  <i_lp_mmshare_version>  (31) 
48012

>  <i_f3d_flags>  (31) 
0

>  <s_epik_input>  (31) 
W09IXVtDQEhdMVtDQEBIXShPW0NIM10pW0NAXShbT0hdKShbQ0BAXShbT0hdKShbUytdMltPLV0pW0NASF0zW09IXSlbQ0BIXTFbQ0BdNChbT0hdKVtDQEhdKFtDSDJdNSlbQ0BASF0oW09IXSlbQ0BdKFtPSF0pKEMoPU8pW0NAXTYoW09IXSlDKD1PKVtOSF1bQ0gzXSlbQ0gyXVtDSDJdW0NIXT1DNltDQEBIXTRPW0NAXShbT0hdKShbQ0BdKFtDSDNdKShbQ0BIXShbT0hdKVtDQEBIXTdbT0hdKU9bQ0BIXThPW0NIM10pW0NAXTMoW09IXSlbQ0BASF0oTzkpW0NAXTkoW0NIM10pW0NIMl1bQ0BASF0yQzU3OA==

>  <s_epik_cmdline>  (31) 
J2VwaWtfcHl0aG9uJywgJy1waHQnLCAnMi4wJywgJy1waCcsICc3LjAnLCAnLXRuJywgJzgnLCAnLW1hJywgJzIwMCcsICctaW1hZScsICc8aW5maWxlLm1hZT4nLCAnLW9tYWUnLCAnPG91dGZpbGUubWFlPic=

>  <r_lp_tautomer_probability>  (31) 
1

>  <r_epik_Ionization_Penalty>  (31) 
1.40957e-05

>  <r_epik_Ionization_Penalty_Charging>  (31) 
0

>  <r_epik_Ionization_Penalty_Neutral>  (31) 
1.40957e-05

>  <r_epik_State_Penalty>  (31) 
0

>  <r_epik_Charging_Adjusted_Penalty>  (31) 
0

>  <i_epik_Tot_Q>  (31) 
0

>  <i_epik_Tot_abs_Q>  (31) 
2

>  <s_epik_Chemistry_Notes>  (31) 
This compound contains an acetal/aminal-like group ( X-CH(R)-Y where X, Y are N, S, or O) that may be acid/base labile, releasing an aldehyde.

>  <s_lp_Force_Field>  (31) 
OPLS3e

>  <r_lp_Energy>  (31) 
987.519

>  <b_lp_Chiralities_Consistent>  (31) 
1

>  <s_lp_Variant>  (31) 
14:0-10

>  <s_i_glide_gridfile>  (31) 
pfpi4k_grid

>  <i_i_glide_lignum>  (31) 
57

>  <i_i_glide_rotatable_bonds>  (31) 
16

>  <r_i_docking_score>  (31) 
-3.74009

>  <r_i_glide_ligand_efficiency>  (31) 
-0.0656157

>  <r_i_glide_ligand_efficiency_sa>  (31) 
-0.252522

>  <r_i_glide_ligand_efficiency_ln>  (31) 
-0.741633

>  <r_i_glide_gscore>  (31) 
-3.74009

>  <r_i_glide_lipo>  (31) 
-0.200826

>  <r_i_glide_hbond>  (31) 
-0.305584

>  <r_i_glide_metal>  (31) 
-0

>  <r_i_glide_rewards>  (31) 
-1.63018

>  <r_i_glide_evdw>  (31) 
-22.0725

>  <r_i_glide_ecoul>  (31) 
-2.56548

>  <r_i_glide_erotb>  (31) 
0.0313225

>  <r_i_glide_esite>  (31) 
-0.146374

>  <r_i_glide_emodel>  (31) 
-41.5432

>  <r_i_glide_energy>  (31) 
-24.638

>  <r_i_glide_einternal>  (31) 
7.18379

>  <r_i_glide_intrahb_reward>  (31) 
-1.5

>  <i_i_glide_confnum>  (31) 
4

>  <i_i_glide_posenum>  (31) 
39

>  <r_i_glide_eff_state_penalty>  (31) 
0

>  <ligand_id>  (31) 
14

>  <original_smiles>  (31) 
CNC(=O)C1(O)C(=O)C2(O)CCC=C1C1OC3(O)C4(C)OC(OC)C5(CC(C2O)C1(O)C1C(O)C(OC)C1(O)C1(O)C(O)C3(O)C2OC2(C)CC5[S+]1[O-])C(O)C4O

>  <smiles>  (31) 
[H]OC1(C(=O)N([H])C([H])([H])[H])C(=O)C2(O[H])C([H])([H])C([H])([H])C([H])=C1C1([H])OC3(O[H])C4(C([H])([H])[H])OC([H])(OC([H])([H])[H])C5(C([H])([H])C([H])(C2([H])O[H])C1(O[H])C1([H])C([H])(O[H])C([H])(OC([H])([H])[H])C1(O[H])C1(O[H])S(=O)C5([H])C([H])([H])C2(C([H])([H])[H])OC2([H])C3(O[H])C1([H])O[H])C([H])(O[H])C4([H])O[H]

$$$$
14:9:2
     RDKit          3D

106114  0  0  1  0  0  0  0  0999 V2000
   -3.2944    3.6354    2.5235 C   0  0  0  0  0  0  0  0  0  0  0  0
   -1.9497    3.7319    3.0937 N   0  0  0  0  0  0  0  0  0  0  0  0
   -1.4766    2.9875    4.1066 C   0  0  0  0  0  0  0  0  0  0  0  0
   -2.1893    2.1539    4.6745 O   0  0  0  0  0  0  0  0  0  0  0  0
    0.0162    3.1352    4.5475 C   0  0  1  0  0  0  0  0  0  0  0  0
    0.6707    2.5832    3.4310 O   0  0  0  0  0  0  0  0  0  0  0  0
    0.4625    4.6633    4.5521 C   0  0  0  0  0  0  0  0  0  0  0  0
    0.2992    5.3457    3.5372 O   0  0  0  0  0  0  0  0  0  0  0  0
    1.1858    5.4269    5.7385 C   0  0  2  0  0  0  0  0  0  0  0  0
    1.3935    5.0406    7.0840 O   0  0  0  0  0  0  0  0  0  0  0  0
   -0.1802    5.6735    6.5615 C   0  0  0  0  0  0  0  0  0  0  0  0
   -1.1045    4.4099    6.8980 C   0  0  0  0  0  0  0  0  0  0  0  0
   -0.3245    3.0795    6.9406 C   0  0  0  0  0  0  0  0  0  0  0  0
    0.3579    2.4236    5.9487 C   0  0  0  0  0  0  0  0  0  0  0  0
    1.8278    1.5838    6.2569 C   0  0  2  0  0  0  0  0  0  0  0  0
    2.2891    0.0237    6.2489 O   0  0  0  0  0  0  0  0  0  0  0  0
    3.2195   -1.1854    6.2327 C   0  0  2  0  0  0  0  0  0  0  0  0
    3.7584   -1.2574    7.5245 O   0  0  0  0  0  0  0  0  0  0  0  0
    4.5321   -1.4110    5.1596 C   0  0  1  0  0  0  0  0  0  0  0  0
    5.1394   -2.8438    5.1771 C   0  0  0  0  0  0  0  0  0  0  0  0
    4.4499   -1.1224    3.6943 O   0  0  0  0  0  0  0  0  0  0  0  0
    4.5037    0.2431    3.2255 C   0  0  1  0  0  0  0  0  0  0  0  0
    4.0257    0.4846    1.9397 O   0  0  0  0  0  0  0  0  0  0  0  0
    4.7588   -0.1594    0.9027 C   0  0  0  0  0  0  0  0  0  0  0  0
    3.6205    0.8857    4.2793 C   0  0  1  0  0  0  0  0  0  0  0  0
    3.6096    2.5120    4.4811 C   0  0  0  0  0  0  0  0  0  0  0  0
    2.9876    3.2576    5.8651 C   0  0  2  0  0  0  0  0  0  0  0  0
    2.7443    4.8578    5.8350 C   0  0  1  0  0  0  0  0  0  0  0  0
    3.4182    5.3908    4.7007 O   0  0  0  0  0  0  0  0  0  0  0  0
    2.2922    2.5364    7.2970 C   0  0  1  0  0  0  0  0  0  0  0  0
    3.4025    2.7048    8.1441 O   0  0  0  0  0  0  0  0  0  0  0  0
    1.6391    1.2112    8.1373 C   0  0  1  0  0  0  0  0  0  0  0  0
    1.2524    1.1431    9.6222 C   0  0  1  0  0  0  0  0  0  0  0  0
    0.3453    2.1033   10.1238 O   0  0  0  0  0  0  0  0  0  0  0  0
    0.6891   -0.2732    9.2857 C   0  0  1  0  0  0  0  0  0  0  0  0
   -0.3496   -0.6970   10.1676 O   0  0  0  0  0  0  0  0  0  0  0  0
    0.0987   -0.9952   11.4906 C   0  0  0  0  0  0  0  0  0  0  0  0
    0.3037    0.1830    7.8340 C   0  0  1  0  0  0  0  0  0  0  0  0
   -0.9867    0.7450    7.9858 O   0  0  0  0  0  0  0  0  0  0  0  0
    0.0735   -0.8760    6.5106 C   0  0  2  0  0  0  0  0  0  0  0  0
   -1.2925   -1.2309    6.4633 O   0  0  0  0  0  0  0  0  0  0  0  0
    0.8262   -2.2292    6.7500 C   0  0  1  0  0  0  0  0  0  0  0  0
    0.0114   -3.3913    6.5709 O   0  0  0  0  0  0  0  0  0  0  0  0
    2.2307   -2.4555    6.1011 C   0  0  2  0  0  0  0  0  0  0  0  0
    2.6993   -3.5136    6.9472 O   0  0  0  0  0  0  0  0  0  0  0  0
    2.1764   -3.2371    4.7604 C   0  0  1  0  0  0  0  0  0  0  0  0
    0.9625   -3.1631    4.0151 O   0  0  0  0  0  0  0  0  0  0  0  0
    2.1281   -2.7435    3.3245 C   0  0  2  0  0  0  0  0  0  0  0  0
    2.5833   -3.6980    2.2335 C   0  0  0  0  0  0  0  0  0  0  0  0
    2.0296   -1.3143    2.8076 C   0  0  0  0  0  0  0  0  0  0  0  0
    2.1152   -0.0753    3.8035 C   0  0  1  0  0  0  0  0  0  0  0  0
    0.3319   -0.2700    4.6677 S   0  0  0  0  0  0  0  0  0  0  0  0
   -0.7056   -0.9758    3.7942 O   0  0  0  0  0  0  0  0  0  0  0  0
    4.8708    0.7955    5.3924 C   0  0  1  0  0  0  0  0  0  0  0  0
    4.8493    1.2961    6.6968 O   0  0  0  0  0  0  0  0  0  0  0  0
    5.6329   -0.4843    5.5360 C   0  0  1  0  0  0  0  0  0  0  0  0
    6.3240   -0.7225    6.7650 O   0  0  0  0  0  0  0  0  0  0  0  0
   -3.5515    4.5649    2.0178 H   0  0  0  0  0  0  0  0  0  0  0  0
   -4.0621    3.4623    3.2779 H   0  0  0  0  0  0  0  0  0  0  0  0
   -3.3678    2.8205    1.8008 H   0  0  0  0  0  0  0  0  0  0  0  0
   -1.2667    4.3091    2.5954 H   0  0  0  0  0  0  0  0  0  0  0  0
    0.3005    1.7244    3.2792 H   0  0  0  0  0  0  0  0  0  0  0  0
    1.8265    5.7521    7.5320 H   0  0  0  0  0  0  0  0  0  0  0  0
   -0.1707    6.4019    7.3962 H   0  0  0  0  0  0  0  0  0  0  0  0
   -0.8028    6.2704    5.8923 H   0  0  0  0  0  0  0  0  0  0  0  0
   -1.5521    4.5540    7.8763 H   0  0  0  0  0  0  0  0  0  0  0  0
   -1.9563    4.3313    6.2314 H   0  0  0  0  0  0  0  0  0  0  0  0
   -0.0617    2.9538    7.9712 H   0  0  0  0  0  0  0  0  0  0  0  0
    1.7017    1.6638    5.2325 H   0  0  0  0  0  0  0  0  0  0  0  0
    4.4061   -0.5657    7.5749 H   0  0  0  0  0  0  0  0  0  0  0  0
    5.2603   -3.2448    6.1807 H   0  0  0  0  0  0  0  0  0  0  0  0
    6.1277   -2.8513    4.7346 H   0  0  0  0  0  0  0  0  0  0  0  0
    4.6073   -3.5626    4.5616 H   0  0  0  0  0  0  0  0  0  0  0  0
    5.5416    0.5772    3.1737 H   0  0  0  0  0  0  0  0  0  0  0  0
    4.2856    0.0624   -0.0533 H   0  0  0  0  0  0  0  0  0  0  0  0
    4.7513   -1.2405    1.0238 H   0  0  0  0  0  0  0  0  0  0  0  0
    5.7970    0.1666    0.8492 H   0  0  0  0  0  0  0  0  0  0  0  0
    4.5999    2.9604    4.3714 H   0  0  0  0  0  0  0  0  0  0  0  0
    3.1560    2.8839    3.5596 H   0  0  0  0  0  0  0  0  0  0  0  0
    2.3024    3.4247    5.1179 H   0  0  0  0  0  0  0  0  0  0  0  0
    3.3989    5.3229    6.5901 H   0  0  0  0  0  0  0  0  0  0  0  0
    2.9599    5.1428    3.9086 H   0  0  0  0  0  0  0  0  0  0  0  0
    4.1137    2.2392    7.7060 H   0  0  0  0  0  0  0  0  0  0  0  0
    2.5275    0.6059    8.3269 H   0  0  0  0  0  0  0  0  0  0  0  0
    2.1203    1.0875   10.2807 H   0  0  0  0  0  0  0  0  0  0  0  0
    0.1272    1.8441   11.0089 H   0  0  0  0  0  0  0  0  0  0  0  0
    1.5057   -0.9952    9.3143 H   0  0  0  0  0  0  0  0  0  0  0  0
   -0.7383   -1.2619   12.1327 H   0  0  0  0  0  0  0  0  0  0  0  0
    0.6055   -0.1532   11.9657 H   0  0  0  0  0  0  0  0  0  0  0  0
    0.7842   -1.8397   11.4889 H   0  0  0  0  0  0  0  0  0  0  0  0
   -0.8747    1.3784    8.6809 H   0  0  0  0  0  0  0  0  0  0  0  0
   -1.5117   -1.2643    5.5528 H   0  0  0  0  0  0  0  0  0  0  0  0
    0.9591   -2.3007    7.8179 H   0  0  0  0  0  0  0  0  0  0  0  0
    0.5475   -4.1296    6.8193 H   0  0  0  0  0  0  0  0  0  0  0  0
    3.5827   -3.7270    6.6862 H   0  0  0  0  0  0  0  0  0  0  0  0
    2.5076   -4.2714    4.8475 H   0  0  0  0  0  0  0  0  0  0  0  0
    3.6194   -3.4926    1.9511 H   0  0  0  0  0  0  0  0  0  0  0  0
    1.9534   -3.6016    1.3482 H   0  0  0  0  0  0  0  0  0  0  0  0
    2.5305   -4.7296    2.5782 H   0  0  0  0  0  0  0  0  0  0  0  0
    2.7088   -1.2839    1.9699 H   0  0  0  0  0  0  0  0  0  0  0  0
    1.0890   -1.2645    2.2480 H   0  0  0  0  0  0  0  0  0  0  0  0
    1.8394    0.6106    3.0148 H   0  0  0  0  0  0  0  0  0  0  0  0
    5.6862    1.4328    5.0467 H   0  0  0  0  0  0  0  0  0  0  0  0
    5.7439    1.2989    7.0101 H   0  0  0  0  0  0  0  0  0  0  0  0
    6.4104   -0.5085    4.7779 H   0  0  0  0  0  0  0  0  0  0  0  0
    7.0903   -0.1717    6.8054 H   0  0  0  0  0  0  0  0  0  0  0  0
  1  2  1  0
  1 58  1  0
  1 59  1  0
  1 60  1  0
  2  3  1  0
  2 61  1  0
  3  4  2  0
  3  5  1  0
  5 14  1  0
  5  6  1  6
  5  7  1  0
  6 62  1  0
  7  8  2  0
  7  9  1  0
  9 28  1  0
  9 10  1  1
  9 11  1  0
 10 63  1  0
 11 12  1  0
 11 64  1  0
 11 65  1  0
 12 13  1  0
 12 66  1  0
 12 67  1  0
 13 14  2  0
 13 68  1  0
 14 15  1  0
 15 30  1  0
 15 16  1  0
 15 69  1  6
 16 17  1  0
 17 44  1  0
 17 18  1  1
 17 19  1  0
 18 70  1  0
 19 56  1  0
 19 20  1  6
 19 21  1  0
 20 71  1  0
 20 72  1  0
 20 73  1  0
 21 22  1  0
 22 23  1  0
 22 25  1  0
 22 74  1  6
 23 24  1  0
 24 75  1  0
 24 76  1  0
 24 77  1  0
 25 51  1  0
 25 26  1  6
 25 54  1  0
 26 27  1  0
 26 78  1  0
 26 79  1  0
 27 28  1  0
 27 30  1  0
 27 80  1  1
 28 29  1  0
 28 81  1  1
 29 82  1  0
 30 31  1  1
 30 32  1  0
 31 83  1  0
 32 38  1  0
 32 33  1  0
 32 84  1  1
 33 34  1  0
 33 35  1  0
 33 85  1  1
 34 86  1  0
 35 36  1  0
 35 38  1  0
 35 87  1  6
 36 37  1  0
 37 88  1  0
 37 89  1  0
 37 90  1  0
 38 39  1  1
 38 40  1  0
 39 91  1  0
 52 40  1  1
 40 41  1  6
 40 42  1  0
 41 92  1  0
 42 43  1  0
 42 44  1  0
 42 93  1  1
 43 94  1  0
 44 45  1  1
 44 46  1  0
 45 95  1  0
 46 48  1  0
 46 47  1  0
 46 96  1  6
 47 48  1  0
 48 49  1  6
 48 50  1  0
 49 97  1  0
 49 98  1  0
 49 99  1  0
 50 51  1  0
 50100  1  0
 50101  1  0
 51 52  1  0
 51102  1  6
 52 53  2  0
 54 55  1  0
 54 56  1  0
 54103  1  6
 55104  1  0
 56 57  1  0
 56105  1  6
 57106  1  0
M  END
>  <i_m_ct_stereo_status>  (32) 
1

>  <s_m_source_file>  (32) 
/var/tmp/pbs.5075288.sched01/tmpzl_yb0kw/0ymjshsm9.sdf

>  <i_m_source_file_index>  (32) 
57

>  <i_lp_mmshare_version>  (32) 
48012

>  <i_f3d_flags>  (32) 
0

>  <s_epik_input>  (32) 
W09IXVtDQEhdMVtDQEBIXShPW0NIM10pW0NAXShbT0hdKShbQ0BAXShbT0hdKShbUytdMltPLV0pW0NASF0zW09IXSlbQ0BIXTFbQ0BdNChbT0hdKVtDQEhdKFtDSDJdNSlbQ0BASF0oW09IXSlbQ0BdKFtPSF0pKEMoPU8pW0NAXTYoW09IXSlDKD1PKVtOSF1bQ0gzXSlbQ0gyXVtDSDJdW0NIXT1DNltDQEBIXTRPW0NAXShbT0hdKShbQ0BdKFtDSDNdKShbQ0BIXShbT0hdKVtDQEBIXTdbT0hdKU9bQ0BIXThPW0NIM10pW0NAXTMoW09IXSlbQ0BASF0oTzkpW0NAXTkoW0NIM10pW0NIMl1bQ0BASF0yQzU3OA==

>  <s_epik_cmdline>  (32) 
J2VwaWtfcHl0aG9uJywgJy1waHQnLCAnMi4wJywgJy1waCcsICc3LjAnLCAnLXRuJywgJzgnLCAnLW1hJywgJzIwMCcsICctaW1hZScsICc8aW5maWxlLm1hZT4nLCAnLW9tYWUnLCAnPG91dGZpbGUubWFlPic=

>  <r_lp_tautomer_probability>  (32) 
1

>  <r_epik_Ionization_Penalty>  (32) 
1.40957e-05

>  <r_epik_Ionization_Penalty_Charging>  (32) 
0

>  <r_epik_Ionization_Penalty_Neutral>  (32) 
1.40957e-05

>  <r_epik_State_Penalty>  (32) 
0

>  <r_epik_Charging_Adjusted_Penalty>  (32) 
0

>  <i_epik_Tot_Q>  (32) 
0

>  <i_epik_Tot_abs_Q>  (32) 
2

>  <s_epik_Chemistry_Notes>  (32) 
This compound contains an acetal/aminal-like group ( X-CH(R)-Y where X, Y are N, S, or O) that may be acid/base labile, releasing an aldehyde.

>  <s_lp_Force_Field>  (32) 
OPLS3e

>  <r_lp_Energy>  (32) 
987.519

>  <b_lp_Chiralities_Consistent>  (32) 
1

>  <s_lp_Variant>  (32) 
14:0-10

>  <s_i_glide_gridfile>  (32) 
pfpi4k_grid

>  <i_i_glide_lignum>  (32) 
57

>  <i_i_glide_rotatable_bonds>  (32) 
16

>  <r_i_docking_score>  (32) 
-3.55785

>  <r_i_glide_ligand_efficiency>  (32) 
-0.0624184

>  <r_i_glide_ligand_efficiency_sa>  (32) 
-0.240217

>  <r_i_glide_ligand_efficiency_ln>  (32) 
-0.705495

>  <r_i_glide_gscore>  (32) 
-3.55785

>  <r_i_glide_lipo>  (32) 
-0.25484

>  <r_i_glide_hbond>  (32) 
-0.0866307

>  <r_i_glide_metal>  (32) 
-0

>  <r_i_glide_rewards>  (32) 
-1.52279

>  <r_i_glide_evdw>  (32) 
-20.9976

>  <r_i_glide_ecoul>  (32) 
-3.34663

>  <r_i_glide_erotb>  (32) 
0.0313225

>  <r_i_glide_esite>  (32) 
-0.17303

>  <r_i_glide_emodel>  (32) 
-42.913

>  <r_i_glide_energy>  (32) 
-24.3443

>  <r_i_glide_einternal>  (32) 
4.38504

>  <r_i_glide_intrahb_reward>  (32) 
-1.5

>  <i_i_glide_confnum>  (32) 
4

>  <i_i_glide_posenum>  (32) 
1

>  <r_i_glide_eff_state_penalty>  (32) 
0

>  <ligand_id>  (32) 
14

>  <original_smiles>  (32) 
CNC(=O)C1(O)C(=O)C2(O)CCC=C1C1OC3(O)C4(C)OC(OC)C5(CC(C2O)C1(O)C1C(O)C(OC)C1(O)C1(O)C(O)C3(O)C2OC2(C)CC5[S+]1[O-])C(O)C4O

>  <smiles>  (32) 
[H]OC1(C(=O)N([H])C([H])([H])[H])C(=O)C2(O[H])C([H])([H])C([H])([H])C([H])=C1C1([H])OC3(O[H])C4(C([H])([H])[H])OC([H])(OC([H])([H])[H])C5(C([H])([H])C([H])(C2([H])O[H])C1(O[H])C1([H])C([H])(O[H])C([H])(OC([H])([H])[H])C1(O[H])C1(O[H])S(=O)C5([H])C([H])([H])C2(C([H])([H])[H])OC2([H])C3(O[H])C1([H])O[H])C([H])(O[H])C4([H])O[H]

$$$$
14:10:0
     RDKit          3D

106114  0  0  1  0  0  0  0  0999 V2000
    1.5322   -5.4572    0.0039 C   0  0  0  0  0  0  0  0  0  0  0  0
    1.3717   -6.1977    1.2576 N   0  0  0  0  0  0  0  0  0  0  0  0
    2.3374   -6.2735    2.2061 C   0  0  0  0  0  0  0  0  0  0  0  0
    3.3337   -5.5581    2.1099 O   0  0  0  0  0  0  0  0  0  0  0  0
    2.2232   -7.2589    3.4149 C   0  0  1  0  0  0  0  0  0  0  0  0
    2.3750   -6.3675    4.4969 O   0  0  0  0  0  0  0  0  0  0  0  0
    0.7689   -7.8364    3.5670 C   0  0  0  0  0  0  0  0  0  0  0  0
   -0.1767   -7.0280    3.5591 O   0  0  0  0  0  0  0  0  0  0  0  0
    0.4409   -9.3811    3.7488 C   0  0  2  0  0  0  0  0  0  0  0  0
    1.3472  -10.4688    3.6548 O   0  0  0  0  0  0  0  0  0  0  0  0
    0.5200   -9.7947    2.2194 C   0  0  0  0  0  0  0  0  0  0  0  0
    1.8406   -9.3271    1.3896 C   0  0  0  0  0  0  0  0  0  0  0  0
    3.1307   -9.1551    2.2194 C   0  0  0  0  0  0  0  0  0  0  0  0
    3.3036   -8.4662    3.4121 C   0  0  0  0  0  0  0  0  0  0  0  0
    4.0822   -9.0337    4.8773 C   0  0  2  0  0  0  0  0  0  0  0  0
    5.5136   -8.9939    5.4920 O   0  0  0  0  0  0  0  0  0  0  0  0
    6.5221   -8.9726    6.5880 C   0  0  2  0  0  0  0  0  0  0  0  0
    6.8145  -10.3229    6.8187 O   0  0  0  0  0  0  0  0  0  0  0  0
    6.3278   -8.3537    8.1572 C   0  0  1  0  0  0  0  0  0  0  0  0
    7.6607   -8.3744    8.9542 C   0  0  0  0  0  0  0  0  0  0  0  0
    5.7746   -6.9895    8.4697 O   0  0  0  0  0  0  0  0  0  0  0  0
    4.3411   -6.7473    8.4534 C   0  0  1  0  0  0  0  0  0  0  0  0
    3.8891   -5.4469    8.2798 O   0  0  0  0  0  0  0  0  0  0  0  0
    4.2490   -4.5700    9.3429 C   0  0  0  0  0  0  0  0  0  0  0  0
    3.9724   -7.6200    7.2482 C   0  0  1  0  0  0  0  0  0  0  0  0
    2.4190   -8.1259    6.9149 C   0  0  0  0  0  0  0  0  0  0  0  0
    2.2028   -9.4741    5.8944 C   0  0  2  0  0  0  0  0  0  0  0  0
    0.7761   -9.8870    5.2763 C   0  0  1  0  0  0  0  0  0  0  0  0
   -0.2070   -9.2864    6.0818 O   0  0  0  0  0  0  0  0  0  0  0  0
    3.5824  -10.3066    5.3230 C   0  0  2  0  0  0  0  0  0  0  0  0
    4.0800  -11.1019    6.3741 O   0  0  0  0  0  0  0  0  0  0  0  0
    4.4801  -10.8299    4.0121 C   0  0  2  0  0  0  0  0  0  0  0  0
    5.3980  -12.0734    4.0878 C   0  0  1  0  0  0  0  0  0  0  0  0
    5.0941  -13.1498    3.2135 O   0  0  0  0  0  0  0  0  0  0  0  0
    6.6180  -11.2253    3.7524 C   0  0  1  0  0  0  0  0  0  0  0  0
    7.5595  -11.8172    2.8599 O   0  0  0  0  0  0  0  0  0  0  0  0
    8.3786  -12.8225    3.4569 C   0  0  0  0  0  0  0  0  0  0  0  0
    5.8001  -10.0241    3.2088 C   0  0  1  0  0  0  0  0  0  0  0  0
    5.8153  -10.2115    1.7977 O   0  0  0  0  0  0  0  0  0  0  0  0
    6.4771   -8.4051    3.3790 C   0  0  2  0  0  0  0  0  0  0  0  0
    6.9242   -8.0541    2.0578 O   0  0  0  0  0  0  0  0  0  0  0  0
    7.8132   -8.4712    4.2198 C   0  0  1  0  0  0  0  0  0  0  0  0
    8.7798   -7.6149    3.6175 O   0  0  0  0  0  0  0  0  0  0  0  0
    7.8059   -8.3426    5.8143 C   0  0  2  0  0  0  0  0  0  0  0  0
    8.9534   -9.1373    6.1226 O   0  0  0  0  0  0  0  0  0  0  0  0
    8.3064   -6.9770    6.3346 C   0  0  1  0  0  0  0  0  0  0  0  0
    8.2222   -5.8614    5.4581 O   0  0  0  0  0  0  0  0  0  0  0  0
    7.5077   -5.7204    6.6705 C   0  0  2  0  0  0  0  0  0  0  0  0
    8.1152   -4.7281    7.6397 C   0  0  0  0  0  0  0  0  0  0  0  0
    6.0360   -5.4158    6.4418 C   0  0  0  0  0  0  0  0  0  0  0  0
    5.0166   -6.5899    6.0609 C   0  0  1  0  0  0  0  0  0  0  0  0
    5.5696   -6.7873    4.1242 S   0  0  0  0  0  0  0  0  0  0  0  0
    6.2309   -5.5269    3.5982 O   0  0  0  0  0  0  0  0  0  0  0  0
    4.1364   -8.9793    8.2185 C   0  0  0  0  0  0  0  0  0  0  0  0
    3.2141  -10.0170    8.5050 O   0  0  0  0  0  0  0  0  0  0  0  0
    5.4058   -9.2225    8.9686 C   0  0  1  0  0  0  0  0  0  0  0  0
    5.7558  -10.5601    9.3298 O   0  0  0  0  0  0  0  0  0  0  0  0
    0.6210   -5.0964   -0.5090 H   0  0  0  0  0  0  0  0  0  0  0  0
    1.8432   -6.2180   -0.6825 H   0  0  0  0  0  0  0  0  0  0  0  0
    2.3311   -4.7160   -0.0513 H   0  0  0  0  0  0  0  0  0  0  0  0
    0.6750   -6.9406    1.2880 H   0  0  0  0  0  0  0  0  0  0  0  0
    2.3055   -6.8566    5.3049 H   0  0  0  0  0  0  0  0  0  0  0  0
    0.8444  -11.2715    3.7594 H   0  0  0  0  0  0  0  0  0  0  0  0
    0.1526  -10.8062    1.9499 H   0  0  0  0  0  0  0  0  0  0  0  0
   -0.2681   -9.2014    1.7632 H   0  0  0  0  0  0  0  0  0  0  0  0
    2.1272  -10.1687    0.7212 H   0  0  0  0  0  0  0  0  0  0  0  0
    1.6066   -8.5285    0.7332 H   0  0  0  0  0  0  0  0  0  0  0  0
    3.6439  -10.0374    1.9167 H   0  0  0  0  0  0  0  0  0  0  0  0
    3.7314   -8.1058    5.1167 H   0  0  0  0  0  0  0  0  0  0  0  0
    5.9679  -10.7579    6.8448 H   0  0  0  0  0  0  0  0  0  0  0  0
    8.2311   -9.2869    8.8086 H   0  0  0  0  0  0  0  0  0  0  0  0
    7.4733   -8.3014   10.0312 H   0  0  0  0  0  0  0  0  0  0  0  0
    8.2979   -7.5234    8.7541 H   0  0  0  0  0  0  0  0  0  0  0  0
    3.9185   -6.9428    9.4429 H   0  0  0  0  0  0  0  0  0  0  0  0
    3.9280   -3.5645    9.0782 H   0  0  0  0  0  0  0  0  0  0  0  0
    5.3275   -4.5392    9.4926 H   0  0  0  0  0  0  0  0  0  0  0  0
    3.7822   -4.8299   10.2931 H   0  0  0  0  0  0  0  0  0  0  0  0
    1.8256   -8.3034    7.8091 H   0  0  0  0  0  0  0  0  0  0  0  0
    1.8455   -7.2575    6.6086 H   0  0  0  0  0  0  0  0  0  0  0  0
    1.9536   -8.6691    5.3296 H   0  0  0  0  0  0  0  0  0  0  0  0
    0.5377  -10.9406    5.5272 H   0  0  0  0  0  0  0  0  0  0  0  0
   -1.0193   -9.7330    5.8504 H   0  0  0  0  0  0  0  0  0  0  0  0
    3.5310  -11.8833    6.4328 H   0  0  0  0  0  0  0  0  0  0  0  0
    3.7822  -11.3005    3.3294 H   0  0  0  0  0  0  0  0  0  0  0  0
    5.5590  -12.4731    5.0925 H   0  0  0  0  0  0  0  0  0  0  0  0
    4.9477  -12.7966    2.3425 H   0  0  0  0  0  0  0  0  0  0  0  0
    7.1249  -11.0113    4.6734 H   0  0  0  0  0  0  0  0  0  0  0  0
    9.0469  -13.2483    2.7108 H   0  0  0  0  0  0  0  0  0  0  0  0
    7.7831  -13.6410    3.8505 H   0  0  0  0  0  0  0  0  0  0  0  0
    8.9946  -12.4221    4.2614 H   0  0  0  0  0  0  0  0  0  0  0  0
    5.2590  -10.9443    1.5824 H   0  0  0  0  0  0  0  0  0  0  0  0
    7.8737   -8.1512    2.0507 H   0  0  0  0  0  0  0  0  0  0  0  0
    8.2660   -9.4114    3.9525 H   0  0  0  0  0  0  0  0  0  0  0  0
    8.5646   -6.7181    3.8628 H   0  0  0  0  0  0  0  0  0  0  0  0
    8.7306  -10.0352    5.9130 H   0  0  0  0  0  0  0  0  0  0  0  0
    9.2816   -7.0276    6.8176 H   0  0  0  0  0  0  0  0  0  0  0  0
    7.6936   -4.8556    8.6384 H   0  0  0  0  0  0  0  0  0  0  0  0
    7.9387   -3.7087    7.3027 H   0  0  0  0  0  0  0  0  0  0  0  0
    9.1929   -4.8904    7.7113 H   0  0  0  0  0  0  0  0  0  0  0  0
    5.7423   -4.7991    7.2714 H   0  0  0  0  0  0  0  0  0  0  0  0
    6.0130   -4.6455    5.6756 H   0  0  0  0  0  0  0  0  0  0  0  0
    4.2168   -5.8882    5.8857 H   0  0  0  0  0  0  0  0  0  0  0  0
    3.5136   -8.7379    9.0749 H   0  0  0  0  0  0  0  0  0  0  0  0
    3.2043  -10.5715    7.7282 H   0  0  0  0  0  0  0  0  0  0  0  0
    5.2966   -8.7688    9.9607 H   0  0  0  0  0  0  0  0  0  0  0  0
    5.6295  -11.1556    8.6031 H   0  0  0  0  0  0  0  0  0  0  0  0
  1  2  1  0
  1 58  1  0
  1 59  1  0
  1 60  1  0
  2  3  1  0
  2 61  1  0
  3  4  2  0
  3  5  1  0
  5 14  1  0
  5  6  1  1
  5  7  1  0
  6 62  1  0
  7  8  2  0
  7  9  1  0
  9 28  1  0
  9 10  1  6
  9 11  1  0
 10 63  1  0
 11 12  1  0
 11 64  1  0
 11 65  1  0
 12 13  1  0
 12 66  1  0
 12 67  1  0
 13 14  2  0
 13 68  1  0
 14 15  1  0
 15 30  1  0
 15 16  1  0
 15 69  1  1
 16 17  1  0
 17 44  1  0
 17 18  1  1
 17 19  1  0
 18 70  1  0
 19 56  1  0
 19 20  1  1
 19 21  1  0
 20 71  1  0
 20 72  1  0
 20 73  1  0
 21 22  1  0
 22 23  1  0
 22 25  1  0
 22 74  1  1
 23 24  1  0
 24 75  1  0
 24 76  1  0
 24 77  1  0
 25 51  1  0
 25 26  1  6
 25 54  1  0
 26 27  1  0
 26 78  1  0
 26 79  1  0
 27 28  1  0
 27 30  1  0
 27 80  1  1
 28 29  1  0
 28 81  1  6
 29 82  1  0
 30 31  1  1
 30 32  1  0
 31 83  1  0
 32 38  1  0
 32 33  1  0
 32 84  1  6
 33 34  1  0
 33 35  1  0
 33 85  1  1
 34 86  1  0
 35 36  1  0
 35 38  1  0
 35 87  1  1
 36 37  1  0
 37 88  1  0
 37 89  1  0
 37 90  1  0
 38 39  1  6
 38 40  1  0
 39 91  1  0
 52 40  1  1
 40 41  1  6
 40 42  1  0
 41 92  1  0
 42 43  1  0
 42 44  1  0
 42 93  1  1
 43 94  1  0
 44 45  1  1
 44 46  1  0
 45 95  1  0
 46 48  1  0
 46 47  1  0
 46 96  1  1
 47 48  1  0
 48 49  1  1
 48 50  1  0
 49 97  1  0
 49 98  1  0
 49 99  1  0
 50 51  1  0
 50100  1  0
 50101  1  0
 51 52  1  0
 51102  1  6
 52 53  2  0
 54 55  1  0
 54 56  1  0
 54103  1  0
 55104  1  0
 56 57  1  0
 56105  1  1
 57106  1  0
M  END
>  <i_m_ct_stereo_status>  (33) 
1

>  <s_m_source_file>  (33) 
/var/tmp/pbs.5075288.sched01/tmpzl_yb0kw/0ymjshsm9.sdf

>  <i_m_source_file_index>  (33) 
58

>  <i_lp_mmshare_version>  (33) 
48012

>  <i_f3d_flags>  (33) 
0

>  <s_epik_input>  (33) 
W09IXVtDQEhdMVtDQEBIXShPW0NIM10pW0NAXShbT0hdKShbQ0BAXShbT0hdKShbUytdMltPLV0pW0NASF0zW09IXSlbQ0BIXTFbQ0BdNChbT0hdKVtDQEhdKFtDSDJdNSlbQ0BASF0oW09IXSlbQ0BdKFtPSF0pKEMoPU8pW0NAXTYoW09IXSlDKD1PKVtOSF1bQ0gzXSlbQ0gyXVtDSDJdW0NIXT1DNltDQEBIXTRPW0NAXShbT0hdKShbQ0BdKFtDSDNdKShbQ0BIXShbT0hdKVtDQEBIXTdbT0hdKU9bQ0BIXThPW0NIM10pW0NAXTMoW09IXSlbQ0BASF0oTzkpW0NAXTkoW0NIM10pW0NIMl1bQ0BASF0yQzU3OA==

>  <s_epik_cmdline>  (33) 
J2VwaWtfcHl0aG9uJywgJy1waHQnLCAnMi4wJywgJy1waCcsICc3LjAnLCAnLXRuJywgJzgnLCAnLW1hJywgJzIwMCcsICctaW1hZScsICc8aW5maWxlLm1hZT4nLCAnLW9tYWUnLCAnPG91dGZpbGUubWFlPic=

>  <r_lp_tautomer_probability>  (33) 
1

>  <r_epik_Ionization_Penalty>  (33) 
1.40957e-05

>  <r_epik_Ionization_Penalty_Charging>  (33) 
0

>  <r_epik_Ionization_Penalty_Neutral>  (33) 
1.40957e-05

>  <r_epik_State_Penalty>  (33) 
0

>  <r_epik_Charging_Adjusted_Penalty>  (33) 
0

>  <i_epik_Tot_Q>  (33) 
0

>  <i_epik_Tot_abs_Q>  (33) 
2

>  <s_epik_Chemistry_Notes>  (33) 
This compound contains an acetal/aminal-like group ( X-CH(R)-Y where X, Y are N, S, or O) that may be acid/base labile, releasing an aldehyde.

>  <s_lp_Force_Field>  (33) 
OPLS3e

>  <r_lp_Energy>  (33) 
962.27

>  <b_lp_Chiralities_Consistent>  (33) 
1

>  <s_lp_Variant>  (33) 
14:0-11

>  <s_i_glide_gridfile>  (33) 
pfpi4k_grid

>  <i_i_glide_lignum>  (33) 
58

>  <i_i_glide_rotatable_bonds>  (33) 
16

>  <r_i_docking_score>  (33) 
-4.42044

>  <r_i_glide_ligand_efficiency>  (33) 
-0.0775516

>  <r_i_glide_ligand_efficiency_sa>  (33) 
-0.298458

>  <r_i_glide_ligand_efficiency_ln>  (33) 
-0.876541

>  <r_i_glide_gscore>  (33) 
-4.42044

>  <r_i_glide_lipo>  (33) 
-0.227329

>  <r_i_glide_hbond>  (33) 
0

>  <r_i_glide_metal>  (33) 
-0

>  <r_i_glide_rewards>  (33) 
-1

>  <r_i_glide_evdw>  (33) 
-28.2007

>  <r_i_glide_ecoul>  (33) 
-11.3634

>  <r_i_glide_erotb>  (33) 
0.0313225

>  <r_i_glide_esite>  (33) 
-0.109888

>  <r_i_glide_emodel>  (33) 
-58.0479

>  <r_i_glide_energy>  (33) 
-39.5641

>  <r_i_glide_einternal>  (33) 
3.15244

>  <r_i_glide_intrahb_reward>  (33) 
-1

>  <i_i_glide_confnum>  (33) 
4

>  <i_i_glide_posenum>  (33) 
2

>  <r_i_glide_eff_state_penalty>  (33) 
0

>  <ligand_id>  (33) 
14

>  <original_smiles>  (33) 
CNC(=O)C1(O)C(=O)C2(O)CCC=C1C1OC3(O)C4(C)OC(OC)C5(CC(C2O)C1(O)C1C(O)C(OC)C1(O)C1(O)C(O)C3(O)C2OC2(C)CC5[S+]1[O-])C(O)C4O

>  <smiles>  (33) 
[H]OC1(C(=O)N([H])C([H])([H])[H])C(=O)C2(O[H])C([H])([H])C([H])([H])C([H])=C1C1([H])OC3(O[H])C4(C([H])([H])[H])OC([H])(OC([H])([H])[H])C5(C([H])([H])C([H])(C2([H])O[H])C1(O[H])C1([H])C([H])(O[H])C([H])(OC([H])([H])[H])C1(O[H])C1(O[H])S(=O)C5([H])C([H])([H])C2(C([H])([H])[H])OC2([H])C3(O[H])C1([H])O[H])C([H])(O[H])C4([H])O[H]

$$$$
14:10:1
     RDKit          3D

106114  0  0  1  0  0  0  0  0999 V2000
   -1.9881   -9.4822    2.0654 C   0  0  0  0  0  0  0  0  0  0  0  0
   -1.4566   -9.1748    3.3627 N   0  0  0  0  0  0  0  0  0  0  0  0
   -0.6996   -8.1411    3.6431 C   0  0  0  0  0  0  0  0  0  0  0  0
   -0.8738   -7.0757    2.9957 O   0  0  0  0  0  0  0  0  0  0  0  0
    0.3873   -8.2230    4.7492 C   0  0  1  0  0  0  0  0  0  0  0  0
    0.1205   -7.0523    5.5055 O   0  0  0  0  0  0  0  0  0  0  0  0
    0.2242   -9.3846    5.7939 C   0  0  0  0  0  0  0  0  0  0  0  0
   -0.6990   -9.4154    6.6038 O   0  0  0  0  0  0  0  0  0  0  0  0
    1.3124  -10.4320    6.1624 C   0  0  2  0  0  0  0  0  0  0  0  0
    2.6036  -10.6316    5.6091 O   0  0  0  0  0  0  0  0  0  0  0  0
    1.1181  -11.4745    5.0013 C   0  0  0  0  0  0  0  0  0  0  0  0
    1.1009  -10.8567    3.5142 C   0  0  0  0  0  0  0  0  0  0  0  0
    1.8865   -9.5093    3.3454 C   0  0  0  0  0  0  0  0  0  0  0  0
    1.8666   -8.3713    4.1499 C   0  0  0  0  0  0  0  0  0  0  0  0
    3.2168   -7.5094    4.8576 C   0  0  2  0  0  0  0  0  0  0  0  0
    4.1879   -6.3392    4.4501 O   0  0  0  0  0  0  0  0  0  0  0  0
    4.9772   -5.0998    4.6506 C   0  0  2  0  0  0  0  0  0  0  0  0
    6.2781   -5.5751    4.7617 O   0  0  0  0  0  0  0  0  0  0  0  0
    4.9377   -4.0352    5.9906 C   0  0  1  0  0  0  0  0  0  0  0  0
    5.8676   -2.8198    5.8057 C   0  0  0  0  0  0  0  0  0  0  0  0
    3.6996   -3.3667    6.5291 O   0  0  0  0  0  0  0  0  0  0  0  0
    2.8007   -4.0995    7.4021 C   0  0  1  0  0  0  0  0  0  0  0  0
    1.4912   -3.6419    7.4978 O   0  0  0  0  0  0  0  0  0  0  0  0
    0.7488   -4.1344    8.6067 C   0  0  0  0  0  0  0  0  0  0  0  0
    2.9040   -5.4715    6.7328 C   0  0  1  0  0  0  0  0  0  0  0  0
    2.4193   -6.8979    7.4499 C   0  0  0  0  0  0  0  0  0  0  0  0
    3.0264   -8.3719    6.8528 C   0  0  2  0  0  0  0  0  0  0  0  0
    2.3703   -9.7788    7.2561 C   0  0  1  0  0  0  0  0  0  0  0  0
    1.6652   -9.4371    8.4595 O   0  0  0  0  0  0  0  0  0  0  0  0
    4.1407   -8.3390    5.5720 C   0  0  2  0  0  0  0  0  0  0  0  0
    5.4000   -7.9814    6.0888 O   0  0  0  0  0  0  0  0  0  0  0  0
    4.5316   -8.7994    4.0042 C   0  0  2  0  0  0  0  0  0  0  0  0
    6.0087   -8.9436    3.5809 C   0  0  1  0  0  0  0  0  0  0  0  0
    6.4155  -10.2235    3.1123 O   0  0  0  0  0  0  0  0  0  0  0  0
    5.8133   -7.8452    2.5368 C   0  0  1  0  0  0  0  0  0  0  0  0
    6.4528   -8.1477    1.2801 O   0  0  0  0  0  0  0  0  0  0  0  0
    7.8158   -7.7344    1.1998 C   0  0  0  0  0  0  0  0  0  0  0  0
    4.2682   -7.9039    2.5366 C   0  0  1  0  0  0  0  0  0  0  0  0
    3.9246   -8.7121    1.4318 O   0  0  0  0  0  0  0  0  0  0  0  0
    3.3672   -6.4250    2.1868 C   0  0  2  0  0  0  0  0  0  0  0  0
    2.7505   -6.6224    0.8884 O   0  0  0  0  0  0  0  0  0  0  0  0
    4.3600   -5.2562    1.9541 C   0  0  1  0  0  0  0  0  0  0  0  0
    4.0261   -4.3903    0.8587 O   0  0  0  0  0  0  0  0  0  0  0  0
    4.8169   -4.3726    3.1986 C   0  0  2  0  0  0  0  0  0  0  0  0
    6.0992   -4.1138    2.6020 O   0  0  0  0  0  0  0  0  0  0  0  0
    4.1959   -2.9499    3.2367 C   0  0  1  0  0  0  0  0  0  0  0  0
    2.9518   -2.7334    2.6028 O   0  0  0  0  0  0  0  0  0  0  0  0
    2.9525   -2.4646    3.9888 C   0  0  2  0  0  0  0  0  0  0  0  0
    2.8141   -0.9978    4.3013 C   0  0  0  0  0  0  0  0  0  0  0  0
    1.9092   -3.2846    4.7336 C   0  0  0  0  0  0  0  0  0  0  0  0
    2.2045   -4.8137    5.1315 C   0  0  1  0  0  0  0  0  0  0  0  0
    1.9454   -5.5856    3.3050 S   0  0  0  0  0  0  0  0  0  0  0  0
    1.0206   -4.7724    2.4563 O   0  0  0  0  0  0  0  0  0  0  0  0
    4.4017   -5.6857    7.4596 C   0  0  1  0  0  0  0  0  0  0  0  0
    4.8932   -6.7706    8.2210 O   0  0  0  0  0  0  0  0  0  0  0  0
    5.4729   -4.6938    7.2498 C   0  0  1  0  0  0  0  0  0  0  0  0
    6.8386   -5.1052    7.3724 O   0  0  0  0  0  0  0  0  0  0  0  0
   -3.0457   -9.7588    2.1361 H   0  0  0  0  0  0  0  0  0  0  0  0
   -1.4521  -10.3569    1.7234 H   0  0  0  0  0  0  0  0  0  0  0  0
   -1.8147   -8.6966    1.2984 H   0  0  0  0  0  0  0  0  0  0  0  0
   -1.5727   -9.9490    4.0396 H   0  0  0  0  0  0  0  0  0  0  0  0
    0.7612   -6.9961    6.1990 H   0  0  0  0  0  0  0  0  0  0  0  0
    2.8578  -11.4627    5.9952 H   0  0  0  0  0  0  0  0  0  0  0  0
    1.6483  -12.4353    5.0828 H   0  0  0  0  0  0  0  0  0  0  0  0
    0.1021  -11.8244    5.1404 H   0  0  0  0  0  0  0  0  0  0  0  0
    1.6556  -11.6079    2.9248 H   0  0  0  0  0  0  0  0  0  0  0  0
    0.0976  -10.8779    3.1214 H   0  0  0  0  0  0  0  0  0  0  0  0
    2.7288   -9.8860    2.8539 H   0  0  0  0  0  0  0  0  0  0  0  0
    2.3995   -7.0101    5.2394 H   0  0  0  0  0  0  0  0  0  0  0  0
    6.2039   -6.3692    5.2727 H   0  0  0  0  0  0  0  0  0  0  0  0
    6.8059   -3.2014    5.4274 H   0  0  0  0  0  0  0  0  0  0  0  0
    6.1117   -2.3246    6.7397 H   0  0  0  0  0  0  0  0  0  0  0  0
    5.4893   -2.0319    5.1633 H   0  0  0  0  0  0  0  0  0  0  0  0
    3.1697   -3.8917    8.4126 H   0  0  0  0  0  0  0  0  0  0  0  0
   -0.2100   -3.6235    8.6454 H   0  0  0  0  0  0  0  0  0  0  0  0
    1.2638   -3.9803    9.5575 H   0  0  0  0  0  0  0  0  0  0  0  0
    0.5286   -5.1983    8.4991 H   0  0  0  0  0  0  0  0  0  0  0  0
    2.5625   -6.8843    8.5320 H   0  0  0  0  0  0  0  0  0  0  0  0
    1.3290   -6.9017    7.5012 H   0  0  0  0  0  0  0  0  0  0  0  0
    2.0698   -8.3132    6.5154 H   0  0  0  0  0  0  0  0  0  0  0  0
    3.1326  -10.4622    7.6631 H   0  0  0  0  0  0  0  0  0  0  0  0
    0.7599   -9.6879    8.3486 H   0  0  0  0  0  0  0  0  0  0  0  0
    5.8372   -8.7885    6.3369 H   0  0  0  0  0  0  0  0  0  0  0  0
    4.3064   -9.8543    3.9269 H   0  0  0  0  0  0  0  0  0  0  0  0
    6.7628   -8.5753    4.2646 H   0  0  0  0  0  0  0  0  0  0  0  0
    5.8118  -10.4969    2.4314 H   0  0  0  0  0  0  0  0  0  0  0  0
    6.2234   -6.9281    2.9196 H   0  0  0  0  0  0  0  0  0  0  0  0
    8.2094   -8.0183    0.2317 H   0  0  0  0  0  0  0  0  0  0  0  0
    8.4222   -8.2116    1.9662 H   0  0  0  0  0  0  0  0  0  0  0  0
    7.9294   -6.6580    1.2946 H   0  0  0  0  0  0  0  0  0  0  0  0
    4.2905   -9.5654    1.5707 H   0  0  0  0  0  0  0  0  0  0  0  0
    3.3954   -6.4361    0.2199 H   0  0  0  0  0  0  0  0  0  0  0  0
    5.1895   -5.7714    1.4826 H   0  0  0  0  0  0  0  0  0  0  0  0
    4.0249   -4.8635    0.0415 H   0  0  0  0  0  0  0  0  0  0  0  0
    5.9170   -3.5702    1.8454 H   0  0  0  0  0  0  0  0  0  0  0  0
    4.9243   -2.1755    3.0333 H   0  0  0  0  0  0  0  0  0  0  0  0
    3.0489   -0.7979    5.3540 H   0  0  0  0  0  0  0  0  0  0  0  0
    1.7950   -0.6468    4.0891 H   0  0  0  0  0  0  0  0  0  0  0  0
    3.5006   -0.4150    3.6870 H   0  0  0  0  0  0  0  0  0  0  0  0
    1.5688   -2.6512    5.5513 H   0  0  0  0  0  0  0  0  0  0  0  0
    0.9977   -3.2077    4.1330 H   0  0  0  0  0  0  0  0  0  0  0  0
    1.1761   -4.9630    5.4484 H   0  0  0  0  0  0  0  0  0  0  0  0
    4.1923   -5.4801    8.5092 H   0  0  0  0  0  0  0  0  0  0  0  0
    5.1571   -7.4111    7.5672 H   0  0  0  0  0  0  0  0  0  0  0  0
    5.4180   -3.9650    8.0483 H   0  0  0  0  0  0  0  0  0  0  0  0
    7.0582   -5.7863    6.7554 H   0  0  0  0  0  0  0  0  0  0  0  0
  1  2  1  0
  1 58  1  0
  1 59  1  0
  1 60  1  0
  2  3  1  0
  2 61  1  0
  3  4  2  0
  3  5  1  0
  5 14  1  0
  5  6  1  1
  5  7  1  0
  6 62  1  0
  7  8  2  0
  7  9  1  0
  9 28  1  0
  9 10  1  6
  9 11  1  0
 10 63  1  0
 11 12  1  0
 11 64  1  0
 11 65  1  0
 12 13  1  0
 12 66  1  0
 12 67  1  0
 13 14  2  0
 13 68  1  0
 14 15  1  0
 15 30  1  0
 15 16  1  0
 15 69  1  1
 16 17  1  0
 17 44  1  0
 17 18  1  6
 17 19  1  0
 18 70  1  0
 19 56  1  0
 19 20  1  6
 19 21  1  0
 20 71  1  0
 20 72  1  0
 20 73  1  0
 21 22  1  0
 22 23  1  0
 22 25  1  0
 22 74  1  1
 23 24  1  0
 24 75  1  0
 24 76  1  0
 24 77  1  0
 25 51  1  0
 25 26  1  1
 25 54  1  0
 26 27  1  0
 26 78  1  0
 26 79  1  0
 27 28  1  0
 27 30  1  0
 27 80  1  1
 28 29  1  0
 28 81  1  1
 29 82  1  0
 30 31  1  1
 30 32  1  0
 31 83  1  0
 32 38  1  0
 32 33  1  0
 32 84  1  6
 33 34  1  0
 33 35  1  0
 33 85  1  1
 34 86  1  0
 35 36  1  0
 35 38  1  0
 35 87  1  1
 36 37  1  0
 37 88  1  0
 37 89  1  0
 37 90  1  0
 38 39  1  6
 38 40  1  0
 39 91  1  0
 52 40  1  6
 40 41  1  6
 40 42  1  0
 41 92  1  0
 42 43  1  0
 42 44  1  0
 42 93  1  6
 43 94  1  0
 44 45  1  6
 44 46  1  0
 45 95  1  0
 46 48  1  0
 46 47  1  0
 46 96  1  6
 47 48  1  0
 48 49  1  6
 48 50  1  0
 49 97  1  0
 49 98  1  0
 49 99  1  0
 50 51  1  0
 50100  1  0
 50101  1  0
 51 52  1  0
 51102  1  1
 52 53  2  0
 54 55  1  0
 54 56  1  0
 54103  1  1
 55104  1  0
 56 57  1  0
 56105  1  1
 57106  1  0
M  END
>  <i_m_ct_stereo_status>  (34) 
1

>  <s_m_source_file>  (34) 
/var/tmp/pbs.5075288.sched01/tmpzl_yb0kw/0ymjshsm9.sdf

>  <i_m_source_file_index>  (34) 
58

>  <i_lp_mmshare_version>  (34) 
48012

>  <i_f3d_flags>  (34) 
0

>  <s_epik_input>  (34) 
W09IXVtDQEhdMVtDQEBIXShPW0NIM10pW0NAXShbT0hdKShbQ0BAXShbT0hdKShbUytdMltPLV0pW0NASF0zW09IXSlbQ0BIXTFbQ0BdNChbT0hdKVtDQEhdKFtDSDJdNSlbQ0BASF0oW09IXSlbQ0BdKFtPSF0pKEMoPU8pW0NAXTYoW09IXSlDKD1PKVtOSF1bQ0gzXSlbQ0gyXVtDSDJdW0NIXT1DNltDQEBIXTRPW0NAXShbT0hdKShbQ0BdKFtDSDNdKShbQ0BIXShbT0hdKVtDQEBIXTdbT0hdKU9bQ0BIXThPW0NIM10pW0NAXTMoW09IXSlbQ0BASF0oTzkpW0NAXTkoW0NIM10pW0NIMl1bQ0BASF0yQzU3OA==

>  <s_epik_cmdline>  (34) 
J2VwaWtfcHl0aG9uJywgJy1waHQnLCAnMi4wJywgJy1waCcsICc3LjAnLCAnLXRuJywgJzgnLCAnLW1hJywgJzIwMCcsICctaW1hZScsICc8aW5maWxlLm1hZT4nLCAnLW9tYWUnLCAnPG91dGZpbGUubWFlPic=

>  <r_lp_tautomer_probability>  (34) 
1

>  <r_epik_Ionization_Penalty>  (34) 
1.40957e-05

>  <r_epik_Ionization_Penalty_Charging>  (34) 
0

>  <r_epik_Ionization_Penalty_Neutral>  (34) 
1.40957e-05

>  <r_epik_State_Penalty>  (34) 
0

>  <r_epik_Charging_Adjusted_Penalty>  (34) 
0

>  <i_epik_Tot_Q>  (34) 
0

>  <i_epik_Tot_abs_Q>  (34) 
2

>  <s_epik_Chemistry_Notes>  (34) 
This compound contains an acetal/aminal-like group ( X-CH(R)-Y where X, Y are N, S, or O) that may be acid/base labile, releasing an aldehyde.

>  <s_lp_Force_Field>  (34) 
OPLS3e

>  <r_lp_Energy>  (34) 
962.27

>  <b_lp_Chiralities_Consistent>  (34) 
1

>  <s_lp_Variant>  (34) 
14:0-11

>  <s_i_glide_gridfile>  (34) 
pfpi4k_grid

>  <i_i_glide_lignum>  (34) 
58

>  <i_i_glide_rotatable_bonds>  (34) 
16

>  <r_i_docking_score>  (34) 
-4.14831

>  <r_i_glide_ligand_efficiency>  (34) 
-0.0727773

>  <r_i_glide_ligand_efficiency_sa>  (34) 
-0.280083

>  <r_i_glide_ligand_efficiency_ln>  (34) 
-0.822578

>  <r_i_glide_gscore>  (34) 
-4.14831

>  <r_i_glide_lipo>  (34) 
-0.429026

>  <r_i_glide_hbond>  (34) 
-0.318616

>  <r_i_glide_metal>  (34) 
-0

>  <r_i_glide_rewards>  (34) 
-1.50019

>  <r_i_glide_evdw>  (34) 
-21.2484

>  <r_i_glide_ecoul>  (34) 
-10.7663

>  <r_i_glide_erotb>  (34) 
0.0313225

>  <r_i_glide_esite>  (34) 
-0.229285

>  <r_i_glide_emodel>  (34) 
-48.0753

>  <r_i_glide_energy>  (34) 
-32.0147

>  <r_i_glide_einternal>  (34) 
13.0106

>  <r_i_glide_intrahb_reward>  (34) 
-1.5

>  <i_i_glide_confnum>  (34) 
2

>  <i_i_glide_posenum>  (34) 
28

>  <r_i_glide_eff_state_penalty>  (34) 
0

>  <ligand_id>  (34) 
14

>  <original_smiles>  (34) 
CNC(=O)C1(O)C(=O)C2(O)CCC=C1C1OC3(O)C4(C)OC(OC)C5(CC(C2O)C1(O)C1C(O)C(OC)C1(O)C1(O)C(O)C3(O)C2OC2(C)CC5[S+]1[O-])C(O)C4O

>  <smiles>  (34) 
[H]OC1(C(=O)N([H])C([H])([H])[H])C(=O)C2(O[H])C([H])([H])C([H])([H])C([H])=C1C1([H])OC3(O[H])C4(C([H])([H])[H])OC([H])(OC([H])([H])[H])C5(C([H])([H])C([H])(C2([H])O[H])C1(O[H])C1([H])C([H])(O[H])C([H])(OC([H])([H])[H])C1(O[H])C1(O[H])S(=O)C5([H])C([H])([H])C2(C([H])([H])[H])OC2([H])C3(O[H])C1([H])O[H])C([H])(O[H])C4([H])O[H]

$$$$
14:10:2
     RDKit          3D

106114  0  0  1  0  0  0  0  0999 V2000
   -1.3704   -9.6220    2.2260 C   0  0  0  0  0  0  0  0  0  0  0  0
   -0.5058   -9.4972    3.3895 N   0  0  0  0  0  0  0  0  0  0  0  0
    0.6900   -8.8869    3.3729 C   0  0  0  0  0  0  0  0  0  0  0  0
    1.2423   -8.5977    2.2977 O   0  0  0  0  0  0  0  0  0  0  0  0
    1.3339   -8.3987    4.7015 C   0  0  1  0  0  0  0  0  0  0  0  0
    0.4246   -7.3651    4.9980 O   0  0  0  0  0  0  0  0  0  0  0  0
    1.1874   -9.4349    5.8751 C   0  0  0  0  0  0  0  0  0  0  0  0
    0.0574   -9.7890    6.2039 O   0  0  0  0  0  0  0  0  0  0  0  0
    2.3983   -9.9336    6.7743 C   0  0  2  0  0  0  0  0  0  0  0  0
    3.7744   -9.6048    6.6279 O   0  0  0  0  0  0  0  0  0  0  0  0
    3.0127  -10.9965    5.7605 C   0  0  0  0  0  0  0  0  0  0  0  0
    3.2444  -10.5042    4.2454 C   0  0  0  0  0  0  0  0  0  0  0  0
    3.5943   -9.0009    4.0873 C   0  0  0  0  0  0  0  0  0  0  0  0
    2.8669   -7.9219    4.5691 C   0  0  0  0  0  0  0  0  0  0  0  0
    3.4724   -6.5038    5.4269 C   0  0  2  0  0  0  0  0  0  0  0  0
    3.8803   -5.0434    5.0569 O   0  0  0  0  0  0  0  0  0  0  0  0
    4.1437   -3.5943    5.3033 C   0  0  2  0  0  0  0  0  0  0  0  0
    5.4249   -3.5532    5.8282 O   0  0  0  0  0  0  0  0  0  0  0  0
    3.2709   -2.5599    6.3050 C   0  0  1  0  0  0  0  0  0  0  0  0
    3.7313   -1.0771    6.1372 C   0  0  0  0  0  0  0  0  0  0  0  0
    1.7690   -2.4285    6.3332 O   0  0  0  0  0  0  0  0  0  0  0  0
    0.9588   -3.4331    7.0190 C   0  0  1  0  0  0  0  0  0  0  0  0
   -0.3834   -3.5548    6.6578 O   0  0  0  0  0  0  0  0  0  0  0  0
   -1.2090   -4.2820    7.5607 C   0  0  0  0  0  0  0  0  0  0  0  0
    1.7737   -4.6935    6.6748 C   0  0  1  0  0  0  0  0  0  0  0  0
    1.6492   -6.1416    7.5040 C   0  0  0  0  0  0  0  0  0  0  0  0
    2.9344   -7.2611    7.4203 C   0  0  2  0  0  0  0  0  0  0  0  0
    2.7594   -8.7870    7.9122 C   0  0  1  0  0  0  0  0  0  0  0  0
    1.6446   -8.7512    8.8040 O   0  0  0  0  0  0  0  0  0  0  0  0
    4.3297   -6.8326    6.5258 C   0  0  2  0  0  0  0  0  0  0  0  0
    5.1080   -5.9455    7.2813 O   0  0  0  0  0  0  0  0  0  0  0  0
    5.3549   -7.1535    5.2403 C   0  0  2  0  0  0  0  0  0  0  0  0
    6.8289   -6.7053    5.2474 C   0  0  1  0  0  0  0  0  0  0  0  0
    7.7837   -7.7364    5.1898 O   0  0  0  0  0  0  0  0  0  0  0  0
    6.6388   -5.8992    3.9763 C   0  0  1  0  0  0  0  0  0  0  0  0
    7.7356   -6.0223    3.0588 O   0  0  0  0  0  0  0  0  0  0  0  0
    7.6534   -5.2684    1.8529 C   0  0  0  0  0  0  0  0  0  0  0  0
    5.2930   -6.5799    3.5942 C   0  0  1  0  0  0  0  0  0  0  0  0
    5.6699   -7.5959    2.6709 O   0  0  0  0  0  0  0  0  0  0  0  0
    4.1160   -5.6041    2.7518 C   0  0  2  0  0  0  0  0  0  0  0  0
    4.1782   -6.0601    1.4011 O   0  0  0  0  0  0  0  0  0  0  0  0
    4.6206   -4.1075    2.6557 C   0  0  1  0  0  0  0  0  0  0  0  0
    4.4018   -3.5938    1.3457 O   0  0  0  0  0  0  0  0  0  0  0  0
    4.2280   -3.0296    3.7793 C   0  0  2  0  0  0  0  0  0  0  0  0
    5.3674   -2.1940    3.6386 O   0  0  0  0  0  0  0  0  0  0  0  0
    3.1206   -2.0241    3.3240 C   0  0  1  0  0  0  0  0  0  0  0  0
    2.2138   -2.4404    2.3325 O   0  0  0  0  0  0  0  0  0  0  0  0
    1.6225   -2.1043    3.5637 C   0  0  2  0  0  0  0  0  0  0  0  0
    0.8510   -0.8076    3.5143 C   0  0  0  0  0  0  0  0  0  0  0  0
    0.7912   -3.2525    4.0995 C   0  0  0  0  0  0  0  0  0  0  0  0
    1.4686   -4.5104    4.8210 C   0  0  1  0  0  0  0  0  0  0  0  0
    2.1741   -5.4580    3.1668 S   0  0  0  0  0  0  0  0  0  0  0  0
    1.3932   -5.1503    1.9155 O   0  0  0  0  0  0  0  0  0  0  0  0
    2.9085   -4.2176    7.8387 C   0  0  1  0  0  0  0  0  0  0  0  0
    3.4787   -4.9350    8.9175 O   0  0  0  0  0  0  0  0  0  0  0  0
    3.5434   -2.8688    7.7622 C   0  0  1  0  0  0  0  0  0  0  0  0
    4.8302   -2.6811    8.3571 O   0  0  0  0  0  0  0  0  0  0  0  0
   -2.3896   -9.3346    2.4933 H   0  0  0  0  0  0  0  0  0  0  0  0
   -1.3845  -10.6380    1.8138 H   0  0  0  0  0  0  0  0  0  0  0  0
   -1.0783   -8.9447    1.4185 H   0  0  0  0  0  0  0  0  0  0  0  0
   -0.9185   -9.7755    4.2894 H   0  0  0  0  0  0  0  0  0  0  0  0
    0.6509   -7.0091    5.8509 H   0  0  0  0  0  0  0  0  0  0  0  0
    4.2599  -10.2013    7.1899 H   0  0  0  0  0  0  0  0  0  0  0  0
    3.8324  -11.6505    6.1257 H   0  0  0  0  0  0  0  0  0  0  0  0
    2.2403  -11.7554    5.6533 H   0  0  0  0  0  0  0  0  0  0  0  0
    4.0916  -11.0611    3.8551 H   0  0  0  0  0  0  0  0  0  0  0  0
    2.4131  -10.8263    3.6140 H   0  0  0  0  0  0  0  0  0  0  0  0
    4.6475   -9.0791    3.9781 H   0  0  0  0  0  0  0  0  0  0  0  0
    2.4553   -6.3982    5.4539 H   0  0  0  0  0  0  0  0  0  0  0  0
    5.4601   -4.2646    6.4602 H   0  0  0  0  0  0  0  0  0  0  0  0
    4.8067   -0.9787    6.0523 H   0  0  0  0  0  0  0  0  0  0  0  0
    3.4276   -0.4686    6.9950 H   0  0  0  0  0  0  0  0  0  0  0  0
    3.2725   -0.5712    5.3002 H   0  0  0  0  0  0  0  0  0  0  0  0
    0.8489   -3.0455    8.0394 H   0  0  0  0  0  0  0  0  0  0  0  0
   -2.2500   -4.1997    7.2354 H   0  0  0  0  0  0  0  0  0  0  0  0
   -1.1419   -3.8962    8.5838 H   0  0  0  0  0  0  0  0  0  0  0  0
   -0.9623   -5.3455    7.5671 H   0  0  0  0  0  0  0  0  0  0  0  0
    1.4118   -5.9969    8.5591 H   0  0  0  0  0  0  0  0  0  0  0  0
    0.6948   -6.5994    7.2351 H   0  0  0  0  0  0  0  0  0  0  0  0
    2.2170   -7.6472    6.8178 H   0  0  0  0  0  0  0  0  0  0  0  0
    3.5509   -9.0395    8.6407 H   0  0  0  0  0  0  0  0  0  0  0  0
    1.9147   -8.2527    9.5719 H   0  0  0  0  0  0  0  0  0  0  0  0
    5.7586   -6.4642    7.7432 H   0  0  0  0  0  0  0  0  0  0  0  0
    5.5934   -8.2019    5.3484 H   0  0  0  0  0  0  0  0  0  0  0  0
    7.1118   -6.0208    6.0430 H   0  0  0  0  0  0  0  0  0  0  0  0
    7.7237   -8.1047    4.3126 H   0  0  0  0  0  0  0  0  0  0  0  0
    6.5445   -4.8801    4.3095 H   0  0  0  0  0  0  0  0  0  0  0  0
    8.5211   -5.4469    1.2130 H   0  0  0  0  0  0  0  0  0  0  0  0
    7.4462   -4.2138    2.0410 H   0  0  0  0  0  0  0  0  0  0  0  0
    6.7949   -5.5676    1.2691 H   0  0  0  0  0  0  0  0  0  0  0  0
    4.9817   -8.2556    2.6799 H   0  0  0  0  0  0  0  0  0  0  0  0
    4.2632   -7.0049    1.4253 H   0  0  0  0  0  0  0  0  0  0  0  0
    5.6895   -4.1746    2.6377 H   0  0  0  0  0  0  0  0  0  0  0  0
    4.5184   -4.3473    0.7681 H   0  0  0  0  0  0  0  0  0  0  0  0
    5.3727   -1.8913    2.7414 H   0  0  0  0  0  0  0  0  0  0  0  0
    3.4944   -1.0265    3.1308 H   0  0  0  0  0  0  0  0  0  0  0  0
    0.6363   -0.4633    4.5287 H   0  0  0  0  0  0  0  0  0  0  0  0
   -0.0705   -0.9333    2.9530 H   0  0  0  0  0  0  0  0  0  0  0  0
    1.4539   -0.0399    3.0066 H   0  0  0  0  0  0  0  0  0  0  0  0
   -0.0299   -2.7812    4.6275 H   0  0  0  0  0  0  0  0  0  0  0  0
    0.2390   -3.6197    3.2297 H   0  0  0  0  0  0  0  0  0  0  0  0
    0.5162   -5.0166    4.8915 H   0  0  0  0  0  0  0  0  0  0  0  0
    2.2962   -4.0505    8.7298 H   0  0  0  0  0  0  0  0  0  0  0  0
    4.2615   -5.3435    8.5454 H   0  0  0  0  0  0  0  0  0  0  0  0
    2.9440   -2.1762    8.3622 H   0  0  0  0  0  0  0  0  0  0  0  0
    5.4984   -3.1474    7.8612 H   0  0  0  0  0  0  0  0  0  0  0  0
  1  2  1  0
  1 58  1  0
  1 59  1  0
  1 60  1  0
  2  3  1  0
  2 61  1  0
  3  4  2  0
  3  5  1  0
  5 14  1  0
  5  6  1  1
  5  7  1  0
  6 62  1  0
  7  8  2  0
  7  9  1  0
  9 28  1  0
  9 10  1  6
  9 11  1  0
 10 63  1  0
 11 12  1  0
 11 64  1  0
 11 65  1  0
 12 13  1  0
 12 66  1  0
 12 67  1  0
 13 14  2  0
 13 68  1  0
 14 15  1  0
 15 30  1  0
 15 16  1  0
 15 69  1  1
 16 17  1  0
 17 44  1  0
 17 18  1  1
 17 19  1  0
 18 70  1  0
 19 56  1  0
 19 20  1  6
 19 21  1  0
 20 71  1  0
 20 72  1  0
 20 73  1  0
 21 22  1  0
 22 23  1  0
 22 25  1  0
 22 74  1  1
 23 24  1  0
 24 75  1  0
 24 76  1  0
 24 77  1  0
 25 51  1  0
 25 26  1  1
 25 54  1  0
 26 27  1  0
 26 78  1  0
 26 79  1  0
 27 28  1  0
 27 30  1  0
 27 80  1  1
 28 29  1  0
 28 81  1  1
 29 82  1  0
 30 31  1  1
 30 32  1  0
 31 83  1  0
 32 38  1  0
 32 33  1  0
 32 84  1  6
 33 34  1  0
 33 35  1  0
 33 85  1  1
 34 86  1  0
 35 36  1  0
 35 38  1  0
 35 87  1  1
 36 37  1  0
 37 88  1  0
 37 89  1  0
 37 90  1  0
 38 39  1  6
 38 40  1  0
 39 91  1  0
 52 40  1  6
 40 41  1  6
 40 42  1  0
 41 92  1  0
 42 43  1  0
 42 44  1  0
 42 93  1  6
 43 94  1  0
 44 45  1  1
 44 46  1  0
 45 95  1  0
 46 48  1  0
 46 47  1  0
 46 96  1  6
 47 48  1  0
 48 49  1  6
 48 50  1  0
 49 97  1  0
 49 98  1  0
 49 99  1  0
 50 51  1  0
 50100  1  0
 50101  1  0
 51 52  1  0
 51102  1  1
 52 53  2  0
 54 55  1  0
 54 56  1  0
 54103  1  1
 55104  1  0
 56 57  1  0
 56105  1  1
 57106  1  0
M  END
>  <i_m_ct_stereo_status>  (35) 
1

>  <s_m_source_file>  (35) 
/var/tmp/pbs.5075288.sched01/tmpzl_yb0kw/0ymjshsm9.sdf

>  <i_m_source_file_index>  (35) 
58

>  <i_lp_mmshare_version>  (35) 
48012

>  <i_f3d_flags>  (35) 
0

>  <s_epik_input>  (35) 
W09IXVtDQEhdMVtDQEBIXShPW0NIM10pW0NAXShbT0hdKShbQ0BAXShbT0hdKShbUytdMltPLV0pW0NASF0zW09IXSlbQ0BIXTFbQ0BdNChbT0hdKVtDQEhdKFtDSDJdNSlbQ0BASF0oW09IXSlbQ0BdKFtPSF0pKEMoPU8pW0NAXTYoW09IXSlDKD1PKVtOSF1bQ0gzXSlbQ0gyXVtDSDJdW0NIXT1DNltDQEBIXTRPW0NAXShbT0hdKShbQ0BdKFtDSDNdKShbQ0BIXShbT0hdKVtDQEBIXTdbT0hdKU9bQ0BIXThPW0NIM10pW0NAXTMoW09IXSlbQ0BASF0oTzkpW0NAXTkoW0NIM10pW0NIMl1bQ0BASF0yQzU3OA==

>  <s_epik_cmdline>  (35) 
J2VwaWtfcHl0aG9uJywgJy1waHQnLCAnMi4wJywgJy1waCcsICc3LjAnLCAnLXRuJywgJzgnLCAnLW1hJywgJzIwMCcsICctaW1hZScsICc8aW5maWxlLm1hZT4nLCAnLW9tYWUnLCAnPG91dGZpbGUubWFlPic=

>  <r_lp_tautomer_probability>  (35) 
1

>  <r_epik_Ionization_Penalty>  (35) 
1.40957e-05

>  <r_epik_Ionization_Penalty_Charging>  (35) 
0

>  <r_epik_Ionization_Penalty_Neutral>  (35) 
1.40957e-05

>  <r_epik_State_Penalty>  (35) 
0

>  <r_epik_Charging_Adjusted_Penalty>  (35) 
0

>  <i_epik_Tot_Q>  (35) 
0

>  <i_epik_Tot_abs_Q>  (35) 
2

>  <s_epik_Chemistry_Notes>  (35) 
This compound contains an acetal/aminal-like group ( X-CH(R)-Y where X, Y are N, S, or O) that may be acid/base labile, releasing an aldehyde.

>  <s_lp_Force_Field>  (35) 
OPLS3e

>  <r_lp_Energy>  (35) 
962.27

>  <b_lp_Chiralities_Consistent>  (35) 
1

>  <s_lp_Variant>  (35) 
14:0-11

>  <s_i_glide_gridfile>  (35) 
pfpi4k_grid

>  <i_i_glide_lignum>  (35) 
58

>  <i_i_glide_rotatable_bonds>  (35) 
16

>  <r_i_docking_score>  (35) 
-3.90009

>  <r_i_glide_ligand_efficiency>  (35) 
-0.0684227

>  <r_i_glide_ligand_efficiency_sa>  (35) 
-0.263325

>  <r_i_glide_ligand_efficiency_ln>  (35) 
-0.77336

>  <r_i_glide_gscore>  (35) 
-3.90009

>  <r_i_glide_lipo>  (35) 
-0.330253

>  <r_i_glide_hbond>  (35) 
-0.198652

>  <r_i_glide_metal>  (35) 
-0

>  <r_i_glide_rewards>  (35) 
-1.50051

>  <r_i_glide_evdw>  (35) 
-28.4064

>  <r_i_glide_ecoul>  (35) 
-2.23301

>  <r_i_glide_erotb>  (35) 
0.0313225

>  <r_i_glide_esite>  (35) 
-0.14673

>  <r_i_glide_emodel>  (35) 
-50.7206

>  <r_i_glide_energy>  (35) 
-30.6394

>  <r_i_glide_einternal>  (35) 
8.16658

>  <r_i_glide_intrahb_reward>  (35) 
-1.5

>  <i_i_glide_confnum>  (35) 
4

>  <i_i_glide_posenum>  (35) 
35

>  <r_i_glide_eff_state_penalty>  (35) 
0

>  <ligand_id>  (35) 
14

>  <original_smiles>  (35) 
CNC(=O)C1(O)C(=O)C2(O)CCC=C1C1OC3(O)C4(C)OC(OC)C5(CC(C2O)C1(O)C1C(O)C(OC)C1(O)C1(O)C(O)C3(O)C2OC2(C)CC5[S+]1[O-])C(O)C4O

>  <smiles>  (35) 
[H]OC1(C(=O)N([H])C([H])([H])[H])C(=O)C2(O[H])C([H])([H])C([H])([H])C([H])=C1C1([H])OC3(O[H])C4(C([H])([H])[H])OC([H])(OC([H])([H])[H])C5(C([H])([H])C([H])(C2([H])O[H])C1(O[H])C1([H])C([H])(O[H])C([H])(OC([H])([H])[H])C1(O[H])C1(O[H])S(=O)C5([H])C([H])([H])C2(C([H])([H])[H])OC2([H])C3(O[H])C1([H])O[H])C([H])(O[H])C4([H])O[H]

$$$$
14:11:0
     RDKit          3D

106114  0  0  1  0  0  0  0  0999 V2000
    7.9434   -6.7924    2.6273 C   0  0  0  0  0  0  0  0  0  0  0  0
    7.3780   -5.4582    2.4643 N   0  0  0  0  0  0  0  0  0  0  0  0
    6.1762   -5.1805    1.9345 C   0  0  0  0  0  0  0  0  0  0  0  0
    5.4866   -6.0932    1.4774 O   0  0  0  0  0  0  0  0  0  0  0  0
    5.7372   -3.6734    1.8886 C   0  0  1  0  0  0  0  0  0  0  0  0
    6.8898   -3.0878    1.2676 O   0  0  0  0  0  0  0  0  0  0  0  0
    4.6084   -3.3259    0.8886 C   0  0  0  0  0  0  0  0  0  0  0  0
    4.6643   -3.8623   -0.2290 O   0  0  0  0  0  0  0  0  0  0  0  0
    3.5644   -2.1770    1.1281 C   0  0  2  0  0  0  0  0  0  0  0  0
    3.0407   -1.9293   -0.2007 O   0  0  0  0  0  0  0  0  0  0  0  0
    4.2353   -0.7526    1.4315 C   0  0  0  0  0  0  0  0  0  0  0  0
    5.6310   -0.6523    2.1421 C   0  0  0  0  0  0  0  0  0  0  0  0
    5.7328   -1.6245    3.3014 C   0  0  0  0  0  0  0  0  0  0  0  0
    5.4136   -2.9158    3.2069 C   0  0  0  0  0  0  0  0  0  0  0  0
    4.5687   -3.5644    4.3794 C   0  0  2  0  0  0  0  0  0  0  0  0
    4.7317   -5.0447    4.2958 O   0  0  0  0  0  0  0  0  0  0  0  0
    4.5918   -6.2996    5.0841 C   0  0  2  0  0  0  0  0  0  0  0  0
    5.9342   -6.7085    5.2538 O   0  0  0  0  0  0  0  0  0  0  0  0
    3.8998   -7.4650    3.9917 C   0  0  2  0  0  0  0  0  0  0  0  0
    4.5523   -8.8211    4.4482 C   0  0  0  0  0  0  0  0  0  0  0  0
    2.8418   -6.9170    4.5349 O   0  0  0  0  0  0  0  0  0  0  0  0
    2.3636   -5.7597    3.9221 C   0  0  1  0  0  0  0  0  0  0  0  0
    2.8815   -5.3918    2.6117 O   0  0  0  0  0  0  0  0  0  0  0  0
    2.7230   -6.0283    1.3328 C   0  0  0  0  0  0  0  0  0  0  0  0
    0.9593   -5.8894    4.0824 C   0  0  2  0  0  0  0  0  0  0  0  0
    0.7372   -4.3504    3.5841 C   0  0  0  0  0  0  0  0  0  0  0  0
    1.8841   -3.0946    3.4277 C   0  0  2  0  0  0  0  0  0  0  0  0
    2.1670   -2.5607    1.8880 C   0  0  1  0  0  0  0  0  0  0  0  0
    1.2952   -1.4293    1.7298 O   0  0  0  0  0  0  0  0  0  0  0  0
    3.1006   -2.7527    4.4716 C   0  0  2  0  0  0  0  0  0  0  0  0
    3.2267   -1.4117    4.0785 O   0  0  0  0  0  0  0  0  0  0  0  0
    2.7629   -2.2222    5.9455 C   0  0  1  0  0  0  0  0  0  0  0  0
    2.3746   -0.7707    6.4292 C   0  0  1  0  0  0  0  0  0  0  0  0
    1.4742    0.0207    5.6643 O   0  0  0  0  0  0  0  0  0  0  0  0
    1.8013   -1.4630    7.6659 C   0  0  1  0  0  0  0  0  0  0  0  0
    0.6313   -0.8420    8.1958 O   0  0  0  0  0  0  0  0  0  0  0  0
    0.9135    0.3300    8.9537 C   0  0  0  0  0  0  0  0  0  0  0  0
    1.5699   -2.7370    6.8018 C   0  0  1  0  0  0  0  0  0  0  0  0
    0.3758   -2.5817    6.0657 O   0  0  0  0  0  0  0  0  0  0  0  0
    1.7350   -4.1781    7.4452 C   0  0  2  0  0  0  0  0  0  0  0  0
    1.6573   -3.9335    8.8402 O   0  0  0  0  0  0  0  0  0  0  0  0
    3.2747   -4.7886    7.2118 C   0  0  1  0  0  0  0  0  0  0  0  0
    4.1298   -4.1157    8.1540 O   0  0  0  0  0  0  0  0  0  0  0  0
    3.9303   -6.2076    6.6842 C   0  0  2  0  0  0  0  0  0  0  0  0
    5.0550   -6.3112    7.5677 O   0  0  0  0  0  0  0  0  0  0  0  0
    3.2764   -7.5241    7.2133 C   0  0  1  0  0  0  0  0  0  0  0  0
    2.2077   -7.3457    8.1502 O   0  0  0  0  0  0  0  0  0  0  0  0
    1.9077   -8.1972    7.0382 C   0  0  2  0  0  0  0  0  0  0  0  0
    1.8120   -9.6724    7.3759 C   0  0  0  0  0  0  0  0  0  0  0  0
    0.6725   -7.7708    6.2209 C   0  0  0  0  0  0  0  0  0  0  0  0
    0.7104   -6.3170    5.6456 C   0  0  2  0  0  0  0  0  0  0  0  0
    0.1980   -5.2136    7.0058 S   0  0  0  0  0  0  0  0  0  0  0  0
   -1.1616   -4.5442    6.7682 O   0  0  0  0  0  0  0  0  0  0  0  0
    0.9244   -7.2627    3.2594 C   0  0  1  0  0  0  0  0  0  0  0  0
    0.2091   -7.2820    2.0292 O   0  0  0  0  0  0  0  0  0  0  0  0
    2.3651   -8.1460    3.4703 C   0  0  1  0  0  0  0  0  0  0  0  0
    2.5289   -8.9442    2.3019 O   0  0  0  0  0  0  0  0  0  0  0  0
    7.9054   -7.0876    3.6772 H   0  0  0  0  0  0  0  0  0  0  0  0
    8.9886   -6.8131    2.3109 H   0  0  0  0  0  0  0  0  0  0  0  0
    7.4088   -7.5594    2.0550 H   0  0  0  0  0  0  0  0  0  0  0  0
    7.9730   -4.6608    2.6905 H   0  0  0  0  0  0  0  0  0  0  0  0
    6.7276   -2.1606    1.1868 H   0  0  0  0  0  0  0  0  0  0  0  0
    2.2095   -1.4465   -0.1894 H   0  0  0  0  0  0  0  0  0  0  0  0
    4.3740   -0.1991    0.5043 H   0  0  0  0  0  0  0  0  0  0  0  0
    3.5407   -0.1256    1.9932 H   0  0  0  0  0  0  0  0  0  0  0  0
    6.4671   -0.7211    1.4444 H   0  0  0  0  0  0  0  0  0  0  0  0
    5.7453    0.3377    2.5955 H   0  0  0  0  0  0  0  0  0  0  0  0
    5.6097   -1.1170    4.2402 H   0  0  0  0  0  0  0  0  0  0  0  0
    5.1589   -3.2615    5.2383 H   0  0  0  0  0  0  0  0  0  0  0  0
    6.3653   -6.0991    5.8277 H   0  0  0  0  0  0  0  0  0  0  0  0
    5.6032   -8.8664    4.1463 H   0  0  0  0  0  0  0  0  0  0  0  0
    4.1195   -9.7122    3.9933 H   0  0  0  0  0  0  0  0  0  0  0  0
    4.5114   -8.9985    5.5247 H   0  0  0  0  0  0  0  0  0  0  0  0
    2.6050   -5.0391    4.6635 H   0  0  0  0  0  0  0  0  0  0  0  0
    3.2334   -6.9725    1.3003 H   0  0  0  0  0  0  0  0  0  0  0  0
    3.2364   -5.4742    0.5747 H   0  0  0  0  0  0  0  0  0  0  0  0
    1.7351   -6.0658    0.9022 H   0  0  0  0  0  0  0  0  0  0  0  0
    0.3985   -4.5413    2.5735 H   0  0  0  0  0  0  0  0  0  0  0  0
   -0.1382   -3.9708    4.1190 H   0  0  0  0  0  0  0  0  0  0  0  0
    1.1693   -2.3316    3.7527 H   0  0  0  0  0  0  0  0  0  0  0  0
    1.8434   -3.4038    1.2718 H   0  0  0  0  0  0  0  0  0  0  0  0
    1.0388   -1.2668    0.7839 H   0  0  0  0  0  0  0  0  0  0  0  0
    3.9269   -1.0236    4.5729 H   0  0  0  0  0  0  0  0  0  0  0  0
    3.6932   -2.2985    6.5055 H   0  0  0  0  0  0  0  0  0  0  0  0
    3.2533   -0.1773    6.6790 H   0  0  0  0  0  0  0  0  0  0  0  0
    1.9848    0.4181    4.9711 H   0  0  0  0  0  0  0  0  0  0  0  0
    2.5776   -1.6090    8.4196 H   0  0  0  0  0  0  0  0  0  0  0  0
   -0.0146    0.8392    9.2222 H   0  0  0  0  0  0  0  0  0  0  0  0
    1.5301    1.0457    8.4035 H   0  0  0  0  0  0  0  0  0  0  0  0
    1.4340    0.0717    9.8777 H   0  0  0  0  0  0  0  0  0  0  0  0
    0.4708   -1.7264    5.6606 H   0  0  0  0  0  0  0  0  0  0  0  0
    2.2337   -4.5339    9.2763 H   0  0  0  0  0  0  0  0  0  0  0  0
    3.5947   -4.3203    6.3449 H   0  0  0  0  0  0  0  0  0  0  0  0
    4.0135   -4.5171    9.0014 H   0  0  0  0  0  0  0  0  0  0  0  0
    5.5512   -5.5086    7.5028 H   0  0  0  0  0  0  0  0  0  0  0  0
    4.0148   -8.2683    7.5208 H   0  0  0  0  0  0  0  0  0  0  0  0
    1.9098  -10.2749    6.4706 H   0  0  0  0  0  0  0  0  0  0  0  0
    0.8524   -9.9003    7.8448 H   0  0  0  0  0  0  0  0  0  0  0  0
    2.6041   -9.9772    8.0635 H   0  0  0  0  0  0  0  0  0  0  0  0
    0.4765   -8.5799    5.5263 H   0  0  0  0  0  0  0  0  0  0  0  0
   -0.1831   -7.8498    6.8957 H   0  0  0  0  0  0  0  0  0  0  0  0
    1.6311   -6.0690    6.0724 H   0  0  0  0  0  0  0  0  0  0  0  0
    0.1510   -7.8575    3.7235 H   0  0  0  0  0  0  0  0  0  0  0  0
    0.2095   -8.1697    1.6970 H   0  0  0  0  0  0  0  0  0  0  0  0
    2.0886   -8.9269    4.1984 H   0  0  0  0  0  0  0  0  0  0  0  0
    1.8225   -9.5660    2.2578 H   0  0  0  0  0  0  0  0  0  0  0  0
  1  2  1  0
  1 58  1  0
  1 59  1  0
  1 60  1  0
  2  3  1  0
  2 61  1  0
  3  4  2  0
  3  5  1  0
  5 14  1  0
  5  6  1  6
  5  7  1  0
  6 62  1  0
  7  8  2  0
  7  9  1  0
  9 28  1  0
  9 10  1  6
  9 11  1  0
 10 63  1  0
 11 12  1  0
 11 64  1  0
 11 65  1  0
 12 13  1  0
 12 66  1  0
 12 67  1  0
 13 14  2  0
 13 68  1  0
 14 15  1  0
 15 30  1  0
 15 16  1  0
 15 69  1  1
 16 17  1  0
 17 44  1  0
 17 18  1  1
 17 19  1  0
 18 70  1  0
 19 56  1  0
 19 20  1  6
 19 21  1  0
 20 71  1  0
 20 72  1  0
 20 73  1  0
 21 22  1  0
 22 23  1  0
 22 25  1  0
 22 74  1  1
 23 24  1  0
 24 75  1  0
 24 76  1  0
 24 77  1  0
 25 51  1  0
 25 26  1  6
 25 54  1  0
 26 27  1  0
 26 78  1  0
 26 79  1  0
 27 28  1  0
 27 30  1  0
 27 80  1  1
 28 29  1  0
 28 81  1  6
 29 82  1  0
 30 31  1  6
 30 32  1  0
 31 83  1  0
 32 38  1  0
 32 33  1  0
 32 84  1  1
 33 34  1  0
 33 35  1  0
 33 85  1  1
 34 86  1  0
 35 36  1  0
 35 38  1  0
 35 87  1  1
 36 37  1  0
 37 88  1  0
 37 89  1  0
 37 90  1  0
 38 39  1  6
 38 40  1  0
 39 91  1  0
 52 40  1  6
 40 41  1  1
 40 42  1  0
 41 92  1  0
 42 43  1  0
 42 44  1  0
 42 93  1  6
 43 94  1  0
 44 45  1  1
 44 46  1  0
 45 95  1  0
 46 48  1  0
 46 47  1  0
 46 96  1  1
 47 48  1  0
 48 49  1  1
 48 50  1  0
 49 97  1  0
 49 98  1  0
 49 99  1  0
 50 51  1  0
 50100  1  0
 50101  1  0
 51 52  1  0
 51102  1  1
 52 53  2  0
 54 55  1  0
 54 56  1  0
 54103  1  1
 55104  1  0
 56 57  1  0
 56105  1  1
 57106  1  0
M  END
>  <i_m_ct_stereo_status>  (36) 
1

>  <s_m_source_file>  (36) 
/var/tmp/pbs.5075288.sched01/tmpzl_yb0kw/0ymjshsm9.sdf

>  <i_m_source_file_index>  (36) 
59

>  <i_lp_mmshare_version>  (36) 
48012

>  <i_f3d_flags>  (36) 
0

>  <s_epik_input>  (36) 
W09IXVtDQEhdMVtDQEBIXShPW0NIM10pW0NAXShbT0hdKShbQ0BAXShbT0hdKShbUytdMltPLV0pW0NASF0zW09IXSlbQ0BIXTFbQ0BdNChbT0hdKVtDQEhdKFtDSDJdNSlbQ0BASF0oW09IXSlbQ0BdKFtPSF0pKEMoPU8pW0NAXTYoW09IXSlDKD1PKVtOSF1bQ0gzXSlbQ0gyXVtDSDJdW0NIXT1DNltDQEBIXTRPW0NAXShbT0hdKShbQ0BdKFtDSDNdKShbQ0BIXShbT0hdKVtDQEBIXTdbT0hdKU9bQ0BIXThPW0NIM10pW0NAXTMoW09IXSlbQ0BASF0oTzkpW0NAXTkoW0NIM10pW0NIMl1bQ0BASF0yQzU3OA==

>  <s_epik_cmdline>  (36) 
J2VwaWtfcHl0aG9uJywgJy1waHQnLCAnMi4wJywgJy1waCcsICc3LjAnLCAnLXRuJywgJzgnLCAnLW1hJywgJzIwMCcsICctaW1hZScsICc8aW5maWxlLm1hZT4nLCAnLW9tYWUnLCAnPG91dGZpbGUubWFlPic=

>  <r_lp_tautomer_probability>  (36) 
1

>  <r_epik_Ionization_Penalty>  (36) 
1.40957e-05

>  <r_epik_Ionization_Penalty_Charging>  (36) 
0

>  <r_epik_Ionization_Penalty_Neutral>  (36) 
1.40957e-05

>  <r_epik_State_Penalty>  (36) 
0

>  <r_epik_Charging_Adjusted_Penalty>  (36) 
0

>  <i_epik_Tot_Q>  (36) 
0

>  <i_epik_Tot_abs_Q>  (36) 
2

>  <s_epik_Chemistry_Notes>  (36) 
This compound contains an acetal/aminal-like group ( X-CH(R)-Y where X, Y are N, S, or O) that may be acid/base labile, releasing an aldehyde.

>  <s_lp_Force_Field>  (36) 
OPLS3e

>  <r_lp_Energy>  (36) 
651.933

>  <b_lp_Chiralities_Consistent>  (36) 
1

>  <s_lp_Variant>  (36) 
14:0-12

>  <s_i_glide_gridfile>  (36) 
pfpi4k_grid

>  <i_i_glide_lignum>  (36) 
59

>  <i_i_glide_rotatable_bonds>  (36) 
16

>  <r_i_docking_score>  (36) 
-2.92177

>  <r_i_glide_ligand_efficiency>  (36) 
-0.0512591

>  <r_i_glide_ligand_efficiency_sa>  (36) 
-0.197271

>  <r_i_glide_ligand_efficiency_ln>  (36) 
-0.579365

>  <r_i_glide_gscore>  (36) 
-2.92177

>  <r_i_glide_lipo>  (36) 
-0.296214

>  <r_i_glide_hbond>  (36) 
0

>  <r_i_glide_metal>  (36) 
-0

>  <r_i_glide_rewards>  (36) 
-0.105728

>  <r_i_glide_evdw>  (36) 
-17.6519

>  <r_i_glide_ecoul>  (36) 
-12.6152

>  <r_i_glide_erotb>  (36) 
0.0219258

>  <r_i_glide_esite>  (36) 
-0.00210983

>  <r_i_glide_emodel>  (36) 
-28.1416

>  <r_i_glide_energy>  (36) 
-30.2671

>  <r_i_glide_einternal>  (36) 
6.56099

>  <r_i_glide_intrahb_reward>  (36) 
-0

>  <i_i_glide_confnum>  (36) 
1

>  <i_i_glide_posenum>  (36) 
30

>  <r_i_glide_eff_state_penalty>  (36) 
0

>  <ligand_id>  (36) 
14

>  <original_smiles>  (36) 
CNC(=O)C1(O)C(=O)C2(O)CCC=C1C1OC3(O)C4(C)OC(OC)C5(CC(C2O)C1(O)C1C(O)C(OC)C1(O)C1(O)C(O)C3(O)C2OC2(C)CC5[S+]1[O-])C(O)C4O

>  <smiles>  (36) 
[H]OC1(C(=O)N([H])C([H])([H])[H])C(=O)C2(O[H])C([H])([H])C([H])([H])C([H])=C1C1([H])OC3(O[H])C4(C([H])([H])[H])OC([H])(OC([H])([H])[H])C5(C([H])([H])C([H])(C2([H])O[H])C1(O[H])C1([H])C([H])(O[H])C([H])(OC([H])([H])[H])C1(O[H])C1(O[H])S(=O)C5([H])C([H])([H])C2(C([H])([H])[H])OC2([H])C3(O[H])C1([H])O[H])C([H])(O[H])C4([H])O[H]

$$$$
14:11:1
     RDKit          3D

106114  0  0  1  0  0  0  0  0999 V2000
    6.2223  -10.4719    3.8915 C   0  0  0  0  0  0  0  0  0  0  0  0
    6.1834   -9.1380    3.3014 N   0  0  0  0  0  0  0  0  0  0  0  0
    5.1248   -8.5974    2.6513 C   0  0  0  0  0  0  0  0  0  0  0  0
    4.1276   -9.2463    2.3994 O   0  0  0  0  0  0  0  0  0  0  0  0
    5.2996   -7.1130    2.2079 C   0  0  1  0  0  0  0  0  0  0  0  0
    6.4677   -7.2225    1.3891 O   0  0  0  0  0  0  0  0  0  0  0  0
    4.2306   -6.5390    1.2345 C   0  0  0  0  0  0  0  0  0  0  0  0
    3.9504   -7.2193    0.2704 O   0  0  0  0  0  0  0  0  0  0  0  0
    3.7489   -5.0326    1.2563 C   0  0  2  0  0  0  0  0  0  0  0  0
    3.1014   -4.8338   -0.0054 O   0  0  0  0  0  0  0  0  0  0  0  0
    4.9652   -4.0158    1.0653 C   0  0  0  0  0  0  0  0  0  0  0  0
    6.3973   -4.3705    1.6062 C   0  0  0  0  0  0  0  0  0  0  0  0
    6.3725   -5.0565    2.9819 C   0  0  0  0  0  0  0  0  0  0  0  0
    5.5499   -6.0579    3.2887 C   0  0  0  0  0  0  0  0  0  0  0  0
    4.7333   -5.9556    4.6206 C   0  0  2  0  0  0  0  0  0  0  0  0
    4.3095   -7.3297    4.9911 O   0  0  0  0  0  0  0  0  0  0  0  0
    3.8526   -8.1776    6.1159 C   0  0  2  0  0  0  0  0  0  0  0  0
    4.9637   -9.0122    6.3140 O   0  0  0  0  0  0  0  0  0  0  0  0
    2.6006   -9.1723    5.4246 C   0  0  2  0  0  0  0  0  0  0  0  0
    2.7931  -10.5333    6.1786 C   0  0  0  0  0  0  0  0  0  0  0  0
    1.9534   -8.1252    5.8638 O   0  0  0  0  0  0  0  0  0  0  0  0
    1.8211   -7.0607    4.9675 C   0  0  1  0  0  0  0  0  0  0  0  0
    2.2069   -7.2651    3.5793 O   0  0  0  0  0  0  0  0  0  0  0  0
    1.5837   -8.0524    2.5515 C   0  0  0  0  0  0  0  0  0  0  0  0
    0.5225   -6.5666    5.2627 C   0  0  2  0  0  0  0  0  0  0  0  0
    0.7886   -5.2332    4.3427 C   0  0  0  0  0  0  0  0  0  0  0  0
    2.2870   -4.6363    3.7935 C   0  0  2  0  0  0  0  0  0  0  0  0
    2.4619   -4.6305    2.1797 C   0  0  1  0  0  0  0  0  0  0  0  0
    2.0806   -3.3033    1.7857 O   0  0  0  0  0  0  0  0  0  0  0  0
    3.7245   -4.6005    4.5822 C   0  0  2  0  0  0  0  0  0  0  0  0
    4.3054   -3.5929    3.7931 O   0  0  0  0  0  0  0  0  0  0  0  0
    3.9021   -3.6526    5.8596 C   0  0  1  0  0  0  0  0  0  0  0  0
    4.1812   -2.1072    5.9242 C   0  0  1  0  0  0  0  0  0  0  0  0
    3.5097   -1.2317    5.0330 O   0  0  0  0  0  0  0  0  0  0  0  0
    3.6402   -2.1927    7.3513 C   0  0  1  0  0  0  0  0  0  0  0  0
    2.9165   -1.0354    7.7632 O   0  0  0  0  0  0  0  0  0  0  0  0
    3.7492    0.0717    8.0950 C   0  0  0  0  0  0  0  0  0  0  0  0
    2.7827   -3.4129    6.9126 C   0  0  1  0  0  0  0  0  0  0  0  0
    1.6179   -2.9556    6.2692 O   0  0  0  0  0  0  0  0  0  0  0  0
    2.5072   -4.5833    7.9393 C   0  0  2  0  0  0  0  0  0  0  0  0
    2.7783   -4.0196    9.2167 O   0  0  0  0  0  0  0  0  0  0  0  0
    3.6350   -5.7945    7.7851 C   0  0  1  0  0  0  0  0  0  0  0  0
    4.8286   -5.3061    8.4187 O   0  0  0  0  0  0  0  0  0  0  0  0
    3.5875   -7.4298    7.6598 C   0  0  2  0  0  0  0  0  0  0  0  0
    4.7189   -7.7551    8.4747 O   0  0  0  0  0  0  0  0  0  0  0  0
    2.6201   -8.2057    8.5900 C   0  0  1  0  0  0  0  0  0  0  0  0
    1.9078   -7.3899    9.5284 O   0  0  0  0  0  0  0  0  0  0  0  0
    1.1096   -8.2611    8.7290 C   0  0  2  0  0  0  0  0  0  0  0  0
    0.5459   -9.4529    9.4615 C   0  0  0  0  0  0  0  0  0  0  0  0
    0.0051   -7.6190    7.8708 C   0  0  0  0  0  0  0  0  0  0  0  0
    0.4476   -6.4724    6.9013 C   0  0  2  0  0  0  0  0  0  0  0  0
    0.6380   -4.9787    7.9330 S   0  0  0  0  0  0  0  0  0  0  0  0
   -0.3982   -3.8926    7.6111 O   0  0  0  0  0  0  0  0  0  0  0  0
   -0.1722   -7.9642    4.8952 C   0  0  1  0  0  0  0  0  0  0  0  0
   -1.0603   -7.9960    3.7836 O   0  0  0  0  0  0  0  0  0  0  0  0
    0.8617   -9.2824    5.2311 C   0  0  1  0  0  0  0  0  0  0  0  0
    0.4756  -10.3174    4.3295 O   0  0  0  0  0  0  0  0  0  0  0  0
    6.2785  -10.3902    4.9936 H   0  0  0  0  0  0  0  0  0  0  0  0
    7.0893  -11.0409    3.5423 H   0  0  0  0  0  0  0  0  0  0  0  0
    5.3213  -11.0550    3.6588 H   0  0  0  0  0  0  0  0  0  0  0  0
    7.0182   -8.5783    3.2975 H   0  0  0  0  0  0  0  0  0  0  0  0
    6.6518   -6.3705    1.0174 H   0  0  0  0  0  0  0  0  0  0  0  0
    3.6676   -5.1382   -0.7013 H   0  0  0  0  0  0  0  0  0  0  0  0
    5.1286   -3.8071    0.0026 H   0  0  0  0  0  0  0  0  0  0  0  0
    4.6711   -3.0303    1.4377 H   0  0  0  0  0  0  0  0  0  0  0  0
    6.9707   -4.9096    0.8444 H   0  0  0  0  0  0  0  0  0  0  0  0
    6.9466   -3.4396    1.7185 H   0  0  0  0  0  0  0  0  0  0  0  0
    6.5463   -4.4328    3.8261 H   0  0  0  0  0  0  0  0  0  0  0  0
    5.5311   -5.7280    5.3155 H   0  0  0  0  0  0  0  0  0  0  0  0
    5.0138   -9.5835    5.5592 H   0  0  0  0  0  0  0  0  0  0  0  0
    3.6763  -11.0748    5.8285 H   0  0  0  0  0  0  0  0  0  0  0  0
    1.9851  -11.2283    5.9837 H   0  0  0  0  0  0  0  0  0  0  0  0
    2.8584  -10.4357    7.2622 H   0  0  0  0  0  0  0  0  0  0  0  0
    2.4398   -6.3510    5.4556 H   0  0  0  0  0  0  0  0  0  0  0  0
    1.6767   -9.1082    2.7610 H   0  0  0  0  0  0  0  0  0  0  0  0
    2.1198   -7.9392    1.6251 H   0  0  0  0  0  0  0  0  0  0  0  0
    0.5805   -7.7692    2.2613 H   0  0  0  0  0  0  0  0  0  0  0  0
    0.1897   -5.3801    3.4442 H   0  0  0  0  0  0  0  0  0  0  0  0
    0.2586   -4.4190    4.8414 H   0  0  0  0  0  0  0  0  0  0  0  0
    2.0023   -3.5960    3.9630 H   0  0  0  0  0  0  0  0  0  0  0  0
    1.6781   -5.2962    1.8275 H   0  0  0  0  0  0  0  0  0  0  0  0
    2.8090   -2.7237    1.9485 H   0  0  0  0  0  0  0  0  0  0  0  0
    5.1831   -3.4233    4.1034 H   0  0  0  0  0  0  0  0  0  0  0  0
    4.8285   -3.9812    6.3351 H   0  0  0  0  0  0  0  0  0  0  0  0
    5.2441   -1.8807    5.9182 H   0  0  0  0  0  0  0  0  0  0  0  0
    3.9667   -1.2795    4.2042 H   0  0  0  0  0  0  0  0  0  0  0  0
    4.4307   -2.4591    8.0570 H   0  0  0  0  0  0  0  0  0  0  0  0
    3.1398    0.9609    8.2761 H   0  0  0  0  0  0  0  0  0  0  0  0
    4.4498    0.3159    7.2939 H   0  0  0  0  0  0  0  0  0  0  0  0
    4.3199   -0.1349    9.0006 H   0  0  0  0  0  0  0  0  0  0  0  0
    1.9276   -2.2328    5.7317 H   0  0  0  0  0  0  0  0  0  0  0  0
    3.2363   -4.6710    9.7225 H   0  0  0  0  0  0  0  0  0  0  0  0
    3.9330   -5.7372    6.7937 H   0  0  0  0  0  0  0  0  0  0  0  0
    4.7758   -5.5422    9.3348 H   0  0  0  0  0  0  0  0  0  0  0  0
    5.4814   -7.5471    7.9540 H   0  0  0  0  0  0  0  0  0  0  0  0
    3.0673   -9.1165    9.0009 H   0  0  0  0  0  0  0  0  0  0  0  0
    0.2650  -10.2066    8.7205 H   0  0  0  0  0  0  0  0  0  0  0  0
   -0.3161   -9.1453   10.0576 H   0  0  0  0  0  0  0  0  0  0  0  0
    1.2854   -9.9078   10.1322 H   0  0  0  0  0  0  0  0  0  0  0  0
   -0.5908   -8.4340    7.4685 H   0  0  0  0  0  0  0  0  0  0  0  0
   -0.6940   -7.1891    8.5743 H   0  0  0  0  0  0  0  0  0  0  0  0
    1.4528   -6.5257    7.1693 H   0  0  0  0  0  0  0  0  0  0  0  0
   -1.0021   -8.0757    5.5674 H   0  0  0  0  0  0  0  0  0  0  0  0
   -1.4431   -8.8658    3.7572 H   0  0  0  0  0  0  0  0  0  0  0  0
    0.4565   -9.7012    6.1601 H   0  0  0  0  0  0  0  0  0  0  0  0
   -0.3893  -10.6219    4.5911 H   0  0  0  0  0  0  0  0  0  0  0  0
  1  2  1  0
  1 58  1  0
  1 59  1  0
  1 60  1  0
  2  3  1  0
  2 61  1  0
  3  4  2  0
  3  5  1  0
  5 14  1  0
  5  6  1  6
  5  7  1  0
  6 62  1  0
  7  8  2  0
  7  9  1  0
  9 28  1  0
  9 10  1  6
  9 11  1  0
 10 63  1  0
 11 12  1  0
 11 64  1  0
 11 65  1  0
 12 13  1  0
 12 66  1  0
 12 67  1  0
 13 14  2  0
 13 68  1  0
 14 15  1  0
 15 30  1  0
 15 16  1  0
 15 69  1  1
 16 17  1  0
 17 44  1  0
 17 18  1  1
 17 19  1  0
 18 70  1  0
 19 56  1  0
 19 20  1  6
 19 21  1  0
 20 71  1  0
 20 72  1  0
 20 73  1  0
 21 22  1  0
 22 23  1  0
 22 25  1  0
 22 74  1  1
 23 24  1  0
 24 75  1  0
 24 76  1  0
 24 77  1  0
 25 51  1  0
 25 26  1  6
 25 54  1  0
 26 27  1  0
 26 78  1  0
 26 79  1  0
 27 28  1  0
 27 30  1  0
 27 80  1  1
 28 29  1  0
 28 81  1  6
 29 82  1  0
 30 31  1  6
 30 32  1  0
 31 83  1  0
 32 38  1  0
 32 33  1  0
 32 84  1  1
 33 34  1  0
 33 35  1  0
 33 85  1  1
 34 86  1  0
 35 36  1  0
 35 38  1  0
 35 87  1  1
 36 37  1  0
 37 88  1  0
 37 89  1  0
 37 90  1  0
 38 39  1  6
 38 40  1  0
 39 91  1  0
 52 40  1  6
 40 41  1  1
 40 42  1  0
 41 92  1  0
 42 43  1  0
 42 44  1  0
 42 93  1  6
 43 94  1  0
 44 45  1  1
 44 46  1  0
 45 95  1  0
 46 48  1  0
 46 47  1  0
 46 96  1  1
 47 48  1  0
 48 49  1  1
 48 50  1  0
 49 97  1  0
 49 98  1  0
 49 99  1  0
 50 51  1  0
 50100  1  0
 50101  1  0
 51 52  1  0
 51102  1  1
 52 53  2  0
 54 55  1  0
 54 56  1  0
 54103  1  1
 55104  1  0
 56 57  1  0
 56105  1  1
 57106  1  0
M  END
>  <i_m_ct_stereo_status>  (37) 
1

>  <s_m_source_file>  (37) 
/var/tmp/pbs.5075288.sched01/tmpzl_yb0kw/0ymjshsm9.sdf

>  <i_m_source_file_index>  (37) 
59

>  <i_lp_mmshare_version>  (37) 
48012

>  <i_f3d_flags>  (37) 
0

>  <s_epik_input>  (37) 
W09IXVtDQEhdMVtDQEBIXShPW0NIM10pW0NAXShbT0hdKShbQ0BAXShbT0hdKShbUytdMltPLV0pW0NASF0zW09IXSlbQ0BIXTFbQ0BdNChbT0hdKVtDQEhdKFtDSDJdNSlbQ0BASF0oW09IXSlbQ0BdKFtPSF0pKEMoPU8pW0NAXTYoW09IXSlDKD1PKVtOSF1bQ0gzXSlbQ0gyXVtDSDJdW0NIXT1DNltDQEBIXTRPW0NAXShbT0hdKShbQ0BdKFtDSDNdKShbQ0BIXShbT0hdKVtDQEBIXTdbT0hdKU9bQ0BIXThPW0NIM10pW0NAXTMoW09IXSlbQ0BASF0oTzkpW0NAXTkoW0NIM10pW0NIMl1bQ0BASF0yQzU3OA==

>  <s_epik_cmdline>  (37) 
J2VwaWtfcHl0aG9uJywgJy1waHQnLCAnMi4wJywgJy1waCcsICc3LjAnLCAnLXRuJywgJzgnLCAnLW1hJywgJzIwMCcsICctaW1hZScsICc8aW5maWxlLm1hZT4nLCAnLW9tYWUnLCAnPG91dGZpbGUubWFlPic=

>  <r_lp_tautomer_probability>  (37) 
1

>  <r_epik_Ionization_Penalty>  (37) 
1.40957e-05

>  <r_epik_Ionization_Penalty_Charging>  (37) 
0

>  <r_epik_Ionization_Penalty_Neutral>  (37) 
1.40957e-05

>  <r_epik_State_Penalty>  (37) 
0

>  <r_epik_Charging_Adjusted_Penalty>  (37) 
0

>  <i_epik_Tot_Q>  (37) 
0

>  <i_epik_Tot_abs_Q>  (37) 
2

>  <s_epik_Chemistry_Notes>  (37) 
This compound contains an acetal/aminal-like group ( X-CH(R)-Y where X, Y are N, S, or O) that may be acid/base labile, releasing an aldehyde.

>  <s_lp_Force_Field>  (37) 
OPLS3e

>  <r_lp_Energy>  (37) 
651.933

>  <b_lp_Chiralities_Consistent>  (37) 
1

>  <s_lp_Variant>  (37) 
14:0-12

>  <s_i_glide_gridfile>  (37) 
pfpi4k_grid

>  <i_i_glide_lignum>  (37) 
59

>  <i_i_glide_rotatable_bonds>  (37) 
16

>  <r_i_docking_score>  (37) 
-1.05031

>  <r_i_glide_ligand_efficiency>  (37) 
-0.0184266

>  <r_i_glide_ligand_efficiency_sa>  (37) 
-0.0709147

>  <r_i_glide_ligand_efficiency_ln>  (37) 
-0.20827

>  <r_i_glide_gscore>  (37) 
-1.05031

>  <r_i_glide_lipo>  (37) 
-0.157946

>  <r_i_glide_hbond>  (37) 
0

>  <r_i_glide_metal>  (37) 
-0

>  <r_i_glide_rewards>  (37) 
-0.114198

>  <r_i_glide_evdw>  (37) 
-13.3111

>  <r_i_glide_ecoul>  (37) 
-3.54558

>  <r_i_glide_erotb>  (37) 
0.0313225

>  <r_i_glide_esite>  (37) 
-0.00861765

>  <r_i_glide_emodel>  (37) 
-10.534

>  <r_i_glide_energy>  (37) 
-16.8567

>  <r_i_glide_einternal>  (37) 
7.06067

>  <r_i_glide_intrahb_reward>  (37) 
-0

>  <i_i_glide_confnum>  (37) 
2

>  <i_i_glide_posenum>  (37) 
3

>  <r_i_glide_eff_state_penalty>  (37) 
0

>  <ligand_id>  (37) 
14

>  <original_smiles>  (37) 
CNC(=O)C1(O)C(=O)C2(O)CCC=C1C1OC3(O)C4(C)OC(OC)C5(CC(C2O)C1(O)C1C(O)C(OC)C1(O)C1(O)C(O)C3(O)C2OC2(C)CC5[S+]1[O-])C(O)C4O

>  <smiles>  (37) 
[H]OC1(C(=O)N([H])C([H])([H])[H])C(=O)C2(O[H])C([H])([H])C([H])([H])C([H])=C1C1([H])OC3(O[H])C4(C([H])([H])[H])OC([H])(OC([H])([H])[H])C5(C([H])([H])C([H])(C2([H])O[H])C1(O[H])C1([H])C([H])(O[H])C([H])(OC([H])([H])[H])C1(O[H])C1(O[H])S(=O)C5([H])C([H])([H])C2(C([H])([H])[H])OC2([H])C3(O[H])C1([H])O[H])C([H])(O[H])C4([H])O[H]

$$$$
14:12:0
     RDKit          3D

106114  0  0  1  0  0  0  0  0999 V2000
    7.4602   -9.4520    4.8305 C   0  0  0  0  0  0  0  0  0  0  0  0
    6.8561   -8.4583    3.9447 N   0  0  0  0  0  0  0  0  0  0  0  0
    6.9034   -7.1408    4.0984 C   0  0  0  0  0  0  0  0  0  0  0  0
    7.5301   -6.6334    5.0519 O   0  0  0  0  0  0  0  0  0  0  0  0
    6.2123   -6.1648    3.0918 C   0  0  1  0  0  0  0  0  0  0  0  0
    7.3748   -5.6108    2.4875 O   0  0  0  0  0  0  0  0  0  0  0  0
    5.4949   -6.8103    1.8736 C   0  0  0  0  0  0  0  0  0  0  0  0
    6.0014   -7.7882    1.3304 O   0  0  0  0  0  0  0  0  0  0  0  0
    4.2792   -6.0998    1.1854 C   0  0  2  0  0  0  0  0  0  0  0  0
    4.2527   -6.6899   -0.1304 O   0  0  0  0  0  0  0  0  0  0  0  0
    4.5553   -4.5769    0.7664 C   0  0  0  0  0  0  0  0  0  0  0  0
    5.5316   -3.6521    1.5712 C   0  0  0  0  0  0  0  0  0  0  0  0
    5.3873   -3.8029    3.0775 C   0  0  0  0  0  0  0  0  0  0  0  0
    5.3289   -5.0269    3.6651 C   0  0  0  0  0  0  0  0  0  0  0  0
    4.2493   -5.2817    4.7667 C   0  0  2  0  0  0  0  0  0  0  0  0
    4.7289   -6.4708    5.5775 O   0  0  0  0  0  0  0  0  0  0  0  0
    4.5443   -7.2299    6.8576 C   0  0  2  0  0  0  0  0  0  0  0  0
    5.8277   -7.0788    7.4348 O   0  0  0  0  0  0  0  0  0  0  0  0
    4.3987   -8.9196    6.4890 C   0  0  2  0  0  0  0  0  0  0  0  0
    5.0646   -9.5881    7.7550 C   0  0  0  0  0  0  0  0  0  0  0  0
    3.1766   -8.4611    6.3664 O   0  0  0  0  0  0  0  0  0  0  0  0
    2.8186   -8.0313    5.1028 C   0  0  1  0  0  0  0  0  0  0  0  0
    3.7468   -8.2311    4.0124 O   0  0  0  0  0  0  0  0  0  0  0  0
    4.0698   -9.4580    3.3542 C   0  0  0  0  0  0  0  0  0  0  0  0
    1.4739   -8.4639    5.0004 C   0  0  2  0  0  0  0  0  0  0  0  0
    1.2342   -7.6990    3.6111 C   0  0  0  0  0  0  0  0  0  0  0  0
    2.0693   -6.3212    3.1294 C   0  0  2  0  0  0  0  0  0  0  0  0
    2.8019   -6.5530    1.6994 C   0  0  1  0  0  0  0  0  0  0  0  0
    1.8696   -6.0608    0.7292 O   0  0  0  0  0  0  0  0  0  0  0  0
    2.7120   -5.1228    4.0870 C   0  0  2  0  0  0  0  0  0  0  0  0
    2.7535   -4.2290    2.9935 O   0  0  0  0  0  0  0  0  0  0  0  0
    1.6867   -4.0184    4.7114 C   0  0  2  0  0  0  0  0  0  0  0  0
    2.1222   -2.5173    4.7952 C   0  0  1  0  0  0  0  0  0  0  0  0
    1.2866   -1.6079    4.0967 O   0  0  0  0  0  0  0  0  0  0  0  0
    2.0072   -2.5842    6.3041 C   0  0  1  0  0  0  0  0  0  0  0  0
    1.4327   -1.4117    6.9035 O   0  0  0  0  0  0  0  0  0  0  0  0
    2.3456   -0.3202    6.9710 C   0  0  0  0  0  0  0  0  0  0  0  0
    1.0607   -3.8123    6.1463 C   0  0  1  0  0  0  0  0  0  0  0  0
   -0.2896   -3.3562    6.0500 O   0  0  0  0  0  0  0  0  0  0  0  0
    1.0645   -5.0031    7.1453 C   0  0  2  0  0  0  0  0  0  0  0  0
    0.3730   -4.5901    8.3385 O   0  0  0  0  0  0  0  0  0  0  0  0
    2.6036   -5.2872    7.5973 C   0  0  1  0  0  0  0  0  0  0  0  0
    2.8233   -4.2782    8.5993 O   0  0  0  0  0  0  0  0  0  0  0  0
    3.4310   -6.6203    8.0045 C   0  0  2  0  0  0  0  0  0  0  0  0
    4.2462   -6.1307    9.0844 O   0  0  0  0  0  0  0  0  0  0  0  0
    2.6774   -7.6709    8.9074 C   0  0  1  0  0  0  0  0  0  0  0  0
    1.4017   -7.2474    9.3723 O   0  0  0  0  0  0  0  0  0  0  0  0
    1.4013   -8.5380    8.7683 C   0  0  2  0  0  0  0  0  0  0  0  0
    1.2451   -9.6836    9.7534 C   0  0  0  0  0  0  0  0  0  0  0  0
    0.3937   -8.6576    7.6078 C   0  0  0  0  0  0  0  0  0  0  0  0
    0.7470   -7.8708    6.3230 C   0  0  2  0  0  0  0  0  0  0  0  0
   -0.0910   -6.2487    6.2794 S   0  0  0  0  0  0  0  0  0  0  0  0
   -0.5458   -5.8457    4.8719 O   0  0  0  0  0  0  0  0  0  0  0  0
    1.8336  -10.0054    5.2626 C   0  0  1  0  0  0  0  0  0  0  0  0
    1.7269  -10.8637    4.1416 O   0  0  0  0  0  0  0  0  0  0  0  0
    3.1750  -10.1431    6.2770 C   0  0  1  0  0  0  0  0  0  0  0  0
    3.7823  -11.3790    5.9530 O   0  0  0  0  0  0  0  0  0  0  0  0
    8.3536   -9.8816    4.3770 H   0  0  0  0  0  0  0  0  0  0  0  0
    6.7562  -10.2606    5.0183 H   0  0  0  0  0  0  0  0  0  0  0  0
    7.7425   -9.0404    5.8020 H   0  0  0  0  0  0  0  0  0  0  0  0
    6.3393   -8.8153    3.1421 H   0  0  0  0  0  0  0  0  0  0  0  0
    7.9017   -6.3289    2.1606 H   0  0  0  0  0  0  0  0  0  0  0  0
    3.8261   -6.1022   -0.7464 H   0  0  0  0  0  0  0  0  0  0  0  0
    4.9672   -4.5495   -0.2466 H   0  0  0  0  0  0  0  0  0  0  0  0
    3.6047   -4.0525    0.6535 H   0  0  0  0  0  0  0  0  0  0  0  0
    6.5640   -3.7683    1.2415 H   0  0  0  0  0  0  0  0  0  0  0  0
    5.3093   -2.6094    1.3445 H   0  0  0  0  0  0  0  0  0  0  0  0
    4.8382   -2.9888    3.4957 H   0  0  0  0  0  0  0  0  0  0  0  0
    4.4203   -4.3949    5.3573 H   0  0  0  0  0  0  0  0  0  0  0  0
    6.4733   -7.4139    6.8305 H   0  0  0  0  0  0  0  0  0  0  0  0
    6.1314   -9.7411    7.5580 H   0  0  0  0  0  0  0  0  0  0  0  0
    4.6806  -10.5701    8.0411 H   0  0  0  0  0  0  0  0  0  0  0  0
    4.9970   -9.0044    8.6821 H   0  0  0  0  0  0  0  0  0  0  0  0
    2.7031   -7.0151    5.3316 H   0  0  0  0  0  0  0  0  0  0  0  0
    4.5221  -10.1787    4.0208 H   0  0  0  0  0  0  0  0  0  0  0  0
    4.8306   -9.3035    2.6145 H   0  0  0  0  0  0  0  0  0  0  0  0
    3.2745   -9.8686    2.7399 H   0  0  0  0  0  0  0  0  0  0  0  0
    1.3651   -8.4476    2.8318 H   0  0  0  0  0  0  0  0  0  0  0  0
    0.1656   -7.5262    3.5004 H   0  0  0  0  0  0  0  0  0  0  0  0
    1.1480   -5.8065    2.8235 H   0  0  0  0  0  0  0  0  0  0  0  0
    2.8200   -7.6335    1.5553 H   0  0  0  0  0  0  0  0  0  0  0  0
    2.1788   -6.3554   -0.1188 H   0  0  0  0  0  0  0  0  0  0  0  0
    3.3940   -4.5237    2.3685 H   0  0  0  0  0  0  0  0  0  0  0  0
    0.8040   -3.9998    4.0685 H   0  0  0  0  0  0  0  0  0  0  0  0
    3.1614   -2.3028    4.5472 H   0  0  0  0  0  0  0  0  0  0  0  0
    1.6946   -1.4401    3.2550 H   0  0  0  0  0  0  0  0  0  0  0  0
    3.0015   -2.8009    6.7007 H   0  0  0  0  0  0  0  0  0  0  0  0
    1.8537    0.5623    7.3785 H   0  0  0  0  0  0  0  0  0  0  0  0
    2.7372   -0.0502    5.9867 H   0  0  0  0  0  0  0  0  0  0  0  0
    3.1902   -0.5622    7.6181 H   0  0  0  0  0  0  0  0  0  0  0  0
   -0.2132   -2.6095    5.4734 H   0  0  0  0  0  0  0  0  0  0  0  0
    0.8761   -4.9355    9.0714 H   0  0  0  0  0  0  0  0  0  0  0  0
    3.2019   -4.8934    6.8251 H   0  0  0  0  0  0  0  0  0  0  0  0
    3.7286   -4.4100    8.8733 H   0  0  0  0  0  0  0  0  0  0  0  0
    4.8344   -6.8339    9.3333 H   0  0  0  0  0  0  0  0  0  0  0  0
    3.3121   -8.0970    9.6739 H   0  0  0  0  0  0  0  0  0  0  0  0
    1.5135  -10.6446    9.2958 H   0  0  0  0  0  0  0  0  0  0  0  0
    0.2174   -9.7369   10.1154 H   0  0  0  0  0  0  0  0  0  0  0  0
    1.8792   -9.5331   10.6289 H   0  0  0  0  0  0  0  0  0  0  0  0
    0.1978   -9.7134    7.4476 H   0  0  0  0  0  0  0  0  0  0  0  0
   -0.5638   -8.3008    8.0019 H   0  0  0  0  0  0  0  0  0  0  0  0
    1.4631   -7.2800    6.8238 H   0  0  0  0  0  0  0  0  0  0  0  0
    1.0019  -10.4584    5.7817 H   0  0  0  0  0  0  0  0  0  0  0  0
    1.7577  -11.7711    4.4257 H   0  0  0  0  0  0  0  0  0  0  0  0
    2.7106  -10.3706    7.2528 H   0  0  0  0  0  0  0  0  0  0  0  0
    3.1726  -12.0559    6.2269 H   0  0  0  0  0  0  0  0  0  0  0  0
  1  2  1  0
  1 58  1  0
  1 59  1  0
  1 60  1  0
  2  3  1  0
  2 61  1  0
  3  4  2  0
  3  5  1  0
  5 14  1  0
  5  6  1  6
  5  7  1  0
  6 62  1  0
  7  8  2  0
  7  9  1  0
  9 28  1  0
  9 10  1  6
  9 11  1  0
 10 63  1  0
 11 12  1  0
 11 64  1  0
 11 65  1  0
 12 13  1  0
 12 66  1  0
 12 67  1  0
 13 14  2  0
 13 68  1  0
 14 15  1  0
 15 30  1  0
 15 16  1  0
 15 69  1  1
 16 17  1  0
 17 44  1  0
 17 18  1  1
 17 19  1  0
 18 70  1  0
 19 56  1  0
 19 20  1  6
 19 21  1  0
 20 71  1  0
 20 72  1  0
 20 73  1  0
 21 22  1  0
 22 23  1  0
 22 25  1  0
 22 74  1  1
 23 24  1  0
 24 75  1  0
 24 76  1  0
 24 77  1  0
 25 51  1  0
 25 26  1  6
 25 54  1  0
 26 27  1  0
 26 78  1  0
 26 79  1  0
 27 28  1  0
 27 30  1  0
 27 80  1  6
 28 29  1  0
 28 81  1  6
 29 82  1  0
 30 31  1  6
 30 32  1  0
 31 83  1  0
 32 38  1  0
 32 33  1  0
 32 84  1  6
 33 34  1  0
 33 35  1  0
 33 85  1  1
 34 86  1  0
 35 36  1  0
 35 38  1  0
 35 87  1  1
 36 37  1  0
 37 88  1  0
 37 89  1  0
 37 90  1  0
 38 39  1  6
 38 40  1  0
 39 91  1  0
 52 40  1  6
 40 41  1  1
 40 42  1  0
 41 92  1  0
 42 43  1  0
 42 44  1  0
 42 93  1  6
 43 94  1  0
 44 45  1  1
 44 46  1  0
 45 95  1  0
 46 48  1  0
 46 47  1  0
 46 96  1  1
 47 48  1  0
 48 49  1  1
 48 50  1  0
 49 97  1  0
 49 98  1  0
 49 99  1  0
 50 51  1  0
 50100  1  0
 50101  1  0
 51 52  1  0
 51102  1  1
 52 53  2  0
 54 55  1  0
 54 56  1  0
 54103  1  1
 55104  1  0
 56 57  1  0
 56105  1  1
 57106  1  0
M  END
>  <i_m_ct_stereo_status>  (38) 
1

>  <s_m_source_file>  (38) 
/var/tmp/pbs.5075288.sched01/tmpzl_yb0kw/0ymjshsm9.sdf

>  <i_m_source_file_index>  (38) 
60

>  <i_lp_mmshare_version>  (38) 
48012

>  <i_f3d_flags>  (38) 
0

>  <s_epik_input>  (38) 
W09IXVtDQEhdMVtDQEBIXShPW0NIM10pW0NAXShbT0hdKShbQ0BAXShbT0hdKShbUytdMltPLV0pW0NASF0zW09IXSlbQ0BIXTFbQ0BdNChbT0hdKVtDQEhdKFtDSDJdNSlbQ0BASF0oW09IXSlbQ0BdKFtPSF0pKEMoPU8pW0NAXTYoW09IXSlDKD1PKVtOSF1bQ0gzXSlbQ0gyXVtDSDJdW0NIXT1DNltDQEBIXTRPW0NAXShbT0hdKShbQ0BdKFtDSDNdKShbQ0BIXShbT0hdKVtDQEBIXTdbT0hdKU9bQ0BIXThPW0NIM10pW0NAXTMoW09IXSlbQ0BASF0oTzkpW0NAXTkoW0NIM10pW0NIMl1bQ0BASF0yQzU3OA==

>  <s_epik_cmdline>  (38) 
J2VwaWtfcHl0aG9uJywgJy1waHQnLCAnMi4wJywgJy1waCcsICc3LjAnLCAnLXRuJywgJzgnLCAnLW1hJywgJzIwMCcsICctaW1hZScsICc8aW5maWxlLm1hZT4nLCAnLW9tYWUnLCAnPG91dGZpbGUubWFlPic=

>  <r_lp_tautomer_probability>  (38) 
1

>  <r_epik_Ionization_Penalty>  (38) 
1.40957e-05

>  <r_epik_Ionization_Penalty_Charging>  (38) 
0

>  <r_epik_Ionization_Penalty_Neutral>  (38) 
1.40957e-05

>  <r_epik_State_Penalty>  (38) 
0

>  <r_epik_Charging_Adjusted_Penalty>  (38) 
0

>  <i_epik_Tot_Q>  (38) 
0

>  <i_epik_Tot_abs_Q>  (38) 
2

>  <s_epik_Chemistry_Notes>  (38) 
This compound contains an acetal/aminal-like group ( X-CH(R)-Y where X, Y are N, S, or O) that may be acid/base labile, releasing an aldehyde.

>  <s_lp_Force_Field>  (38) 
OPLS3e

>  <r_lp_Energy>  (38) 
641.684

>  <b_lp_Chiralities_Consistent>  (38) 
1

>  <s_lp_Variant>  (38) 
14:0-13

>  <s_i_glide_gridfile>  (38) 
pfpi4k_grid

>  <i_i_glide_lignum>  (38) 
60

>  <i_i_glide_rotatable_bonds>  (38) 
16

>  <r_i_docking_score>  (38) 
-4.54224

>  <r_i_glide_ligand_efficiency>  (38) 
-0.0796885

>  <r_i_glide_ligand_efficiency_sa>  (38) 
-0.306681

>  <r_i_glide_ligand_efficiency_ln>  (38) 
-0.900693

>  <r_i_glide_gscore>  (38) 
-4.54224

>  <r_i_glide_lipo>  (38) 
-0.211654

>  <r_i_glide_hbond>  (38) 
0

>  <r_i_glide_metal>  (38) 
-0

>  <r_i_glide_rewards>  (38) 
-1.57061

>  <r_i_glide_evdw>  (38) 
-26.4533

>  <r_i_glide_ecoul>  (38) 
-9.74644

>  <r_i_glide_erotb>  (38) 
0.0313225

>  <r_i_glide_esite>  (38) 
-0.00666474

>  <r_i_glide_emodel>  (38) 
-59.1625

>  <r_i_glide_energy>  (38) 
-36.1998

>  <r_i_glide_einternal>  (38) 
7.32196

>  <r_i_glide_intrahb_reward>  (38) 
-1.5

>  <i_i_glide_confnum>  (38) 
1

>  <i_i_glide_posenum>  (38) 
18

>  <r_i_glide_eff_state_penalty>  (38) 
0

>  <ligand_id>  (38) 
14

>  <original_smiles>  (38) 
CNC(=O)C1(O)C(=O)C2(O)CCC=C1C1OC3(O)C4(C)OC(OC)C5(CC(C2O)C1(O)C1C(O)C(OC)C1(O)C1(O)C(O)C3(O)C2OC2(C)CC5[S+]1[O-])C(O)C4O

>  <smiles>  (38) 
[H]OC1(C(=O)N([H])C([H])([H])[H])C(=O)C2(O[H])C([H])([H])C([H])([H])C([H])=C1C1([H])OC3(O[H])C4(C([H])([H])[H])OC([H])(OC([H])([H])[H])C5(C([H])([H])C([H])(C2([H])O[H])C1(O[H])C1([H])C([H])(O[H])C([H])(OC([H])([H])[H])C1(O[H])C1(O[H])S(=O)C5([H])C([H])([H])C2(C([H])([H])[H])OC2([H])C3(O[H])C1([H])O[H])C([H])(O[H])C4([H])O[H]

$$$$
14:12:1
     RDKit          3D

106114  0  0  1  0  0  0  0  0999 V2000
    7.4574   -9.4512    4.8267 C   0  0  0  0  0  0  0  0  0  0  0  0
    6.8523   -8.4546    3.9425 N   0  0  0  0  0  0  0  0  0  0  0  0
    6.9016   -7.1331    4.0879 C   0  0  0  0  0  0  0  0  0  0  0  0
    7.5410   -6.6225    5.0274 O   0  0  0  0  0  0  0  0  0  0  0  0
    6.2185   -6.1599    3.0806 C   0  0  1  0  0  0  0  0  0  0  0  0
    7.3879   -5.5993    2.5001 O   0  0  0  0  0  0  0  0  0  0  0  0
    5.4874   -6.7964    1.8679 C   0  0  0  0  0  0  0  0  0  0  0  0
    5.9768   -7.7872    1.3315 O   0  0  0  0  0  0  0  0  0  0  0  0
    4.2704   -6.0819    1.1858 C   0  0  2  0  0  0  0  0  0  0  0  0
    4.2343   -6.6700   -0.1270 O   0  0  0  0  0  0  0  0  0  0  0  0
    4.5629   -4.5638    0.7731 C   0  0  0  0  0  0  0  0  0  0  0  0
    5.5394   -3.6396    1.5823 C   0  0  0  0  0  0  0  0  0  0  0  0
    5.4045   -3.8024    3.0855 C   0  0  0  0  0  0  0  0  0  0  0  0
    5.3331   -5.0199    3.6673 C   0  0  0  0  0  0  0  0  0  0  0  0
    4.2401   -5.2726    4.7681 C   0  0  2  0  0  0  0  0  0  0  0  0
    4.7194   -6.4589    5.5808 O   0  0  0  0  0  0  0  0  0  0  0  0
    4.5434   -7.2211    6.8614 C   0  0  2  0  0  0  0  0  0  0  0  0
    5.8341   -7.0635    7.4221 O   0  0  0  0  0  0  0  0  0  0  0  0
    4.4022   -8.9125    6.4942 C   0  0  2  0  0  0  0  0  0  0  0  0
    5.0650   -9.5872    7.7563 C   0  0  0  0  0  0  0  0  0  0  0  0
    3.1754   -8.4717    6.3636 O   0  0  0  0  0  0  0  0  0  0  0  0
    2.8183   -8.0229    5.1040 C   0  0  1  0  0  0  0  0  0  0  0  0
    3.7423   -8.2229    4.0109 O   0  0  0  0  0  0  0  0  0  0  0  0
    4.0729   -9.4531    3.3577 C   0  0  0  0  0  0  0  0  0  0  0  0
    1.4730   -8.4616    4.9953 C   0  0  2  0  0  0  0  0  0  0  0  0
    1.2272   -7.6884    3.6092 C   0  0  0  0  0  0  0  0  0  0  0  0
    2.0558   -6.3099    3.1285 C   0  0  2  0  0  0  0  0  0  0  0  0
    2.7916   -6.5388    1.6955 C   0  0  1  0  0  0  0  0  0  0  0  0
    1.8432   -6.0769    0.7278 O   0  0  0  0  0  0  0  0  0  0  0  0
    2.6956   -5.1128    4.0911 C   0  0  2  0  0  0  0  0  0  0  0  0
    2.7723   -4.2339    2.9860 O   0  0  0  0  0  0  0  0  0  0  0  0
    1.6717   -4.0032    4.7101 C   0  0  2  0  0  0  0  0  0  0  0  0
    2.1329   -2.5113    4.8007 C   0  0  1  0  0  0  0  0  0  0  0  0
    1.3679   -1.5643    4.0644 O   0  0  0  0  0  0  0  0  0  0  0  0
    1.9946   -2.5712    6.3071 C   0  0  1  0  0  0  0  0  0  0  0  0
    1.4270   -1.3988    6.8953 O   0  0  0  0  0  0  0  0  0  0  0  0
    2.3468   -0.3121    6.9715 C   0  0  0  0  0  0  0  0  0  0  0  0
    1.0614   -3.8064    6.1540 C   0  0  1  0  0  0  0  0  0  0  0  0
   -0.3056   -3.3812    6.0997 O   0  0  0  0  0  0  0  0  0  0  0  0
    1.0713   -4.9940    7.1626 C   0  0  2  0  0  0  0  0  0  0  0  0
    0.3837   -4.5639    8.3501 O   0  0  0  0  0  0  0  0  0  0  0  0
    2.6159   -5.2849    7.6293 C   0  0  1  0  0  0  0  0  0  0  0  0
    2.8713   -4.2677    8.6143 O   0  0  0  0  0  0  0  0  0  0  0  0
    3.4368   -6.6298    8.0158 C   0  0  2  0  0  0  0  0  0  0  0  0
    4.2436   -6.1977    9.1196 O   0  0  0  0  0  0  0  0  0  0  0  0
    2.6830   -7.6821    8.9132 C   0  0  1  0  0  0  0  0  0  0  0  0
    1.4099   -7.2510    9.3875 O   0  0  0  0  0  0  0  0  0  0  0  0
    1.3974   -8.5444    8.7815 C   0  0  2  0  0  0  0  0  0  0  0  0
    1.2338   -9.6909    9.7644 C   0  0  0  0  0  0  0  0  0  0  0  0
    0.3960   -8.6664    7.6148 C   0  0  0  0  0  0  0  0  0  0  0  0
    0.7517   -7.8762    6.3295 C   0  0  2  0  0  0  0  0  0  0  0  0
   -0.0821   -6.2503    6.2901 S   0  0  0  0  0  0  0  0  0  0  0  0
   -0.5471   -5.8522    4.8863 O   0  0  0  0  0  0  0  0  0  0  0  0
    1.8398  -10.0040    5.2484 C   0  0  1  0  0  0  0  0  0  0  0  0
    1.7101  -10.8771    4.1394 O   0  0  0  0  0  0  0  0  0  0  0  0
    3.1811  -10.1381    6.2670 C   0  0  1  0  0  0  0  0  0  0  0  0
    3.7918  -11.3708    5.9352 O   0  0  0  0  0  0  0  0  0  0  0  0
    8.3559   -9.8681    4.3707 H   0  0  0  0  0  0  0  0  0  0  0  0
    6.7615  -10.2720    5.0025 H   0  0  0  0  0  0  0  0  0  0  0  0
    7.7316   -9.0454    5.8024 H   0  0  0  0  0  0  0  0  0  0  0  0
    6.3506   -8.8101    3.1330 H   0  0  0  0  0  0  0  0  0  0  0  0
    7.9345   -5.2894    3.2164 H   0  0  0  0  0  0  0  0  0  0  0  0
    3.7917   -6.0943   -0.7467 H   0  0  0  0  0  0  0  0  0  0  0  0
    4.9621   -4.5249   -0.2454 H   0  0  0  0  0  0  0  0  0  0  0  0
    3.6091   -4.0443    0.6714 H   0  0  0  0  0  0  0  0  0  0  0  0
    6.5682   -3.7534    1.2482 H   0  0  0  0  0  0  0  0  0  0  0  0
    5.3050   -2.6009    1.3610 H   0  0  0  0  0  0  0  0  0  0  0  0
    4.8473   -2.9893    3.5194 H   0  0  0  0  0  0  0  0  0  0  0  0
    4.4100   -4.3884    5.3696 H   0  0  0  0  0  0  0  0  0  0  0  0
    6.4604   -7.4458    6.8273 H   0  0  0  0  0  0  0  0  0  0  0  0
    6.1254   -9.7517    7.5569 H   0  0  0  0  0  0  0  0  0  0  0  0
    4.6833  -10.5694    8.0367 H   0  0  0  0  0  0  0  0  0  0  0  0
    5.0058   -9.0087    8.6783 H   0  0  0  0  0  0  0  0  0  0  0  0
    2.6873   -7.0028    5.3231 H   0  0  0  0  0  0  0  0  0  0  0  0
    4.5206  -10.1785    4.0209 H   0  0  0  0  0  0  0  0  0  0  0  0
    4.8471   -9.3129    2.6279 H   0  0  0  0  0  0  0  0  0  0  0  0
    3.2786   -9.8607    2.7440 H   0  0  0  0  0  0  0  0  0  0  0  0
    1.3481   -8.4333    2.8272 H   0  0  0  0  0  0  0  0  0  0  0  0
    0.1580   -7.5186    3.5108 H   0  0  0  0  0  0  0  0  0  0  0  0
    1.1391   -5.7962    2.8251 H   0  0  0  0  0  0  0  0  0  0  0  0
    2.8195   -7.6180    1.5618 H   0  0  0  0  0  0  0  0  0  0  0  0
    2.1835   -6.3260   -0.1240 H   0  0  0  0  0  0  0  0  0  0  0  0
    1.8995   -4.0263    2.6791 H   0  0  0  0  0  0  0  0  0  0  0  0
    0.7874   -3.9893    4.0736 H   0  0  0  0  0  0  0  0  0  0  0  0
    3.1783   -2.3338    4.5678 H   0  0  0  0  0  0  0  0  0  0  0  0
    0.4838   -1.5531    4.3993 H   0  0  0  0  0  0  0  0  0  0  0  0
    2.9830   -2.7809    6.7175 H   0  0  0  0  0  0  0  0  0  0  0  0
    1.8559    0.5682    7.3847 H   0  0  0  0  0  0  0  0  0  0  0  0
    2.7363   -0.0371    5.9898 H   0  0  0  0  0  0  0  0  0  0  0  0
    3.1946   -0.5524    7.6147 H   0  0  0  0  0  0  0  0  0  0  0  0
   -0.3292   -2.6685    5.4934 H   0  0  0  0  0  0  0  0  0  0  0  0
    0.7474   -5.0467    9.0832 H   0  0  0  0  0  0  0  0  0  0  0  0
    3.1975   -4.8988    6.8439 H   0  0  0  0  0  0  0  0  0  0  0  0
    2.5076   -4.5690    9.4422 H   0  0  0  0  0  0  0  0  0  0  0  0
    4.8349   -5.5364    8.7792 H   0  0  0  0  0  0  0  0  0  0  0  0
    3.3173   -8.1233    9.6770 H   0  0  0  0  0  0  0  0  0  0  0  0
    1.5150  -10.6456    9.3035 H   0  0  0  0  0  0  0  0  0  0  0  0
    0.2089   -9.7534   10.1160 H   0  0  0  0  0  0  0  0  0  0  0  0
    1.8702   -9.5508   10.6400 H   0  0  0  0  0  0  0  0  0  0  0  0
    0.2063   -9.7234    7.4445 H   0  0  0  0  0  0  0  0  0  0  0  0
   -0.5627   -8.3172    8.0023 H   0  0  0  0  0  0  0  0  0  0  0  0
    1.4633   -7.2793    6.8284 H   0  0  0  0  0  0  0  0  0  0  0  0
    1.0090  -10.4504    5.7809 H   0  0  0  0  0  0  0  0  0  0  0  0
    2.4667  -10.7999    3.5711 H   0  0  0  0  0  0  0  0  0  0  0  0
    2.7189  -10.3788    7.2370 H   0  0  0  0  0  0  0  0  0  0  0  0
    3.1545  -12.0542    6.1360 H   0  0  0  0  0  0  0  0  0  0  0  0
  1  2  1  0
  1 58  1  0
  1 59  1  0
  1 60  1  0
  2  3  1  0
  2 61  1  0
  3  4  2  0
  3  5  1  0
  5 14  1  0
  5  6  1  6
  5  7  1  0
  6 62  1  0
  7  8  2  0
  7  9  1  0
  9 28  1  0
  9 10  1  6
  9 11  1  0
 10 63  1  0
 11 12  1  0
 11 64  1  0
 11 65  1  0
 12 13  1  0
 12 66  1  0
 12 67  1  0
 13 14  2  0
 13 68  1  0
 14 15  1  0
 15 30  1  0
 15 16  1  0
 15 69  1  1
 16 17  1  0
 17 44  1  0
 17 18  1  1
 17 19  1  0
 18 70  1  0
 19 56  1  0
 19 20  1  6
 19 21  1  0
 20 71  1  0
 20 72  1  0
 20 73  1  0
 21 22  1  0
 22 23  1  0
 22 25  1  0
 22 74  1  1
 23 24  1  0
 24 75  1  0
 24 76  1  0
 24 77  1  0
 25 51  1  0
 25 26  1  6
 25 54  1  0
 26 27  1  0
 26 78  1  0
 26 79  1  0
 27 28  1  0
 27 30  1  0
 27 80  1  6
 28 29  1  0
 28 81  1  6
 29 82  1  0
 30 31  1  6
 30 32  1  0
 31 83  1  0
 32 38  1  0
 32 33  1  0
 32 84  1  6
 33 34  1  0
 33 35  1  0
 33 85  1  1
 34 86  1  0
 35 36  1  0
 35 38  1  0
 35 87  1  1
 36 37  1  0
 37 88  1  0
 37 89  1  0
 37 90  1  0
 38 39  1  6
 38 40  1  0
 39 91  1  0
 52 40  1  6
 40 41  1  1
 40 42  1  0
 41 92  1  0
 42 43  1  0
 42 44  1  0
 42 93  1  6
 43 94  1  0
 44 45  1  1
 44 46  1  0
 45 95  1  0
 46 48  1  0
 46 47  1  0
 46 96  1  1
 47 48  1  0
 48 49  1  1
 48 50  1  0
 49 97  1  0
 49 98  1  0
 49 99  1  0
 50 51  1  0
 50100  1  0
 50101  1  0
 51 52  1  0
 51102  1  1
 52 53  2  0
 54 55  1  0
 54 56  1  0
 54103  1  1
 55104  1  0
 56 57  1  0
 56105  1  1
 57106  1  0
M  END
>  <i_m_ct_stereo_status>  (39) 
1

>  <s_m_source_file>  (39) 
/var/tmp/pbs.5075288.sched01/tmpzl_yb0kw/0ymjshsm9.sdf

>  <i_m_source_file_index>  (39) 
60

>  <i_lp_mmshare_version>  (39) 
48012

>  <i_f3d_flags>  (39) 
0

>  <s_epik_input>  (39) 
W09IXVtDQEhdMVtDQEBIXShPW0NIM10pW0NAXShbT0hdKShbQ0BAXShbT0hdKShbUytdMltPLV0pW0NASF0zW09IXSlbQ0BIXTFbQ0BdNChbT0hdKVtDQEhdKFtDSDJdNSlbQ0BASF0oW09IXSlbQ0BdKFtPSF0pKEMoPU8pW0NAXTYoW09IXSlDKD1PKVtOSF1bQ0gzXSlbQ0gyXVtDSDJdW0NIXT1DNltDQEBIXTRPW0NAXShbT0hdKShbQ0BdKFtDSDNdKShbQ0BIXShbT0hdKVtDQEBIXTdbT0hdKU9bQ0BIXThPW0NIM10pW0NAXTMoW09IXSlbQ0BASF0oTzkpW0NAXTkoW0NIM10pW0NIMl1bQ0BASF0yQzU3OA==

>  <s_epik_cmdline>  (39) 
J2VwaWtfcHl0aG9uJywgJy1waHQnLCAnMi4wJywgJy1waCcsICc3LjAnLCAnLXRuJywgJzgnLCAnLW1hJywgJzIwMCcsICctaW1hZScsICc8aW5maWxlLm1hZT4nLCAnLW9tYWUnLCAnPG91dGZpbGUubWFlPic=

>  <r_lp_tautomer_probability>  (39) 
1

>  <r_epik_Ionization_Penalty>  (39) 
1.40957e-05

>  <r_epik_Ionization_Penalty_Charging>  (39) 
0

>  <r_epik_Ionization_Penalty_Neutral>  (39) 
1.40957e-05

>  <r_epik_State_Penalty>  (39) 
0

>  <r_epik_Charging_Adjusted_Penalty>  (39) 
0

>  <i_epik_Tot_Q>  (39) 
0

>  <i_epik_Tot_abs_Q>  (39) 
2

>  <s_epik_Chemistry_Notes>  (39) 
This compound contains an acetal/aminal-like group ( X-CH(R)-Y where X, Y are N, S, or O) that may be acid/base labile, releasing an aldehyde.

>  <s_lp_Force_Field>  (39) 
OPLS3e

>  <r_lp_Energy>  (39) 
641.684

>  <b_lp_Chiralities_Consistent>  (39) 
1

>  <s_lp_Variant>  (39) 
14:0-13

>  <s_i_glide_gridfile>  (39) 
pfpi4k_grid

>  <i_i_glide_lignum>  (39) 
60

>  <i_i_glide_rotatable_bonds>  (39) 
16

>  <r_i_docking_score>  (39) 
-4.48705

>  <r_i_glide_ligand_efficiency>  (39) 
-0.0787202

>  <r_i_glide_ligand_efficiency_sa>  (39) 
-0.302955

>  <r_i_glide_ligand_efficiency_ln>  (39) 
-0.88975

>  <r_i_glide_gscore>  (39) 
-4.48705

>  <r_i_glide_lipo>  (39) 
-0.209107

>  <r_i_glide_hbond>  (39) 
0

>  <r_i_glide_metal>  (39) 
-0

>  <r_i_glide_rewards>  (39) 
-1.57096

>  <r_i_glide_evdw>  (39) 
-26.4697

>  <r_i_glide_ecoul>  (39) 
-9.38783

>  <r_i_glide_erotb>  (39) 
0.0313225

>  <r_i_glide_esite>  (39) 
-0.0066488

>  <r_i_glide_emodel>  (39) 
-60.3568

>  <r_i_glide_energy>  (39) 
-35.8576

>  <r_i_glide_einternal>  (39) 
3.96661

>  <r_i_glide_intrahb_reward>  (39) 
-1.5

>  <i_i_glide_confnum>  (39) 
1

>  <i_i_glide_posenum>  (39) 
1

>  <r_i_glide_eff_state_penalty>  (39) 
0

>  <ligand_id>  (39) 
14

>  <original_smiles>  (39) 
CNC(=O)C1(O)C(=O)C2(O)CCC=C1C1OC3(O)C4(C)OC(OC)C5(CC(C2O)C1(O)C1C(O)C(OC)C1(O)C1(O)C(O)C3(O)C2OC2(C)CC5[S+]1[O-])C(O)C4O

>  <smiles>  (39) 
[H]OC1(C(=O)N([H])C([H])([H])[H])C(=O)C2(O[H])C([H])([H])C([H])([H])C([H])=C1C1([H])OC3(O[H])C4(C([H])([H])[H])OC([H])(OC([H])([H])[H])C5(C([H])([H])C([H])(C2([H])O[H])C1(O[H])C1([H])C([H])(O[H])C([H])(OC([H])([H])[H])C1(O[H])C1(O[H])S(=O)C5([H])C([H])([H])C2(C([H])([H])[H])OC2([H])C3(O[H])C1([H])O[H])C([H])(O[H])C4([H])O[H]

$$$$
14:12:2
     RDKit          3D

106114  0  0  1  0  0  0  0  0999 V2000
    7.4509   -9.4490    4.8364 C   0  0  0  0  0  0  0  0  0  0  0  0
    6.8424   -8.4528    3.9561 N   0  0  0  0  0  0  0  0  0  0  0  0
    6.9072   -7.1305    4.0874 C   0  0  0  0  0  0  0  0  0  0  0  0
    7.5606   -6.6155    5.0162 O   0  0  0  0  0  0  0  0  0  0  0  0
    6.2166   -6.1601    3.0803 C   0  0  1  0  0  0  0  0  0  0  0  0
    7.3841   -5.5921    2.4984 O   0  0  0  0  0  0  0  0  0  0  0  0
    5.4938   -6.8030    1.8648 C   0  0  0  0  0  0  0  0  0  0  0  0
    5.9872   -7.7941    1.3322 O   0  0  0  0  0  0  0  0  0  0  0  0
    4.2752   -6.0943    1.1812 C   0  0  2  0  0  0  0  0  0  0  0  0
    4.2447   -6.6779   -0.1335 O   0  0  0  0  0  0  0  0  0  0  0  0
    4.5556   -4.5710    0.7720 C   0  0  0  0  0  0  0  0  0  0  0  0
    5.5288   -3.6431    1.5811 C   0  0  0  0  0  0  0  0  0  0  0  0
    5.3858   -3.8026    3.0851 C   0  0  0  0  0  0  0  0  0  0  0  0
    5.3243   -5.0245    3.6588 C   0  0  0  0  0  0  0  0  0  0  0  0
    4.2387   -5.2735    4.7695 C   0  0  2  0  0  0  0  0  0  0  0  0
    4.7229   -6.4616    5.5812 O   0  0  0  0  0  0  0  0  0  0  0  0
    4.5447   -7.2240    6.8615 C   0  0  2  0  0  0  0  0  0  0  0  0
    5.8345   -7.0640    7.4219 O   0  0  0  0  0  0  0  0  0  0  0  0
    4.4028   -8.9145    6.4942 C   0  0  2  0  0  0  0  0  0  0  0  0
    5.0656   -9.5862    7.7569 C   0  0  0  0  0  0  0  0  0  0  0  0
    3.1770   -8.4729    6.3662 O   0  0  0  0  0  0  0  0  0  0  0  0
    2.8196   -8.0254    5.1049 C   0  0  1  0  0  0  0  0  0  0  0  0
    3.7437   -8.2236    4.0111 O   0  0  0  0  0  0  0  0  0  0  0  0
    4.0796   -9.4584    3.3669 C   0  0  0  0  0  0  0  0  0  0  0  0
    1.4730   -8.4605    4.9962 C   0  0  2  0  0  0  0  0  0  0  0  0
    1.2296   -7.6910    3.6077 C   0  0  0  0  0  0  0  0  0  0  0  0
    2.0632   -6.3161    3.1253 C   0  0  2  0  0  0  0  0  0  0  0  0
    2.7984   -6.5525    1.6925 C   0  0  1  0  0  0  0  0  0  0  0  0
    1.8569   -6.0764    0.7250 O   0  0  0  0  0  0  0  0  0  0  0  0
    2.6980   -5.1170    4.0890 C   0  0  2  0  0  0  0  0  0  0  0  0
    2.7516   -4.2310    2.9887 O   0  0  0  0  0  0  0  0  0  0  0  0
    1.6728   -4.0037    4.7061 C   0  0  2  0  0  0  0  0  0  0  0  0
    2.1334   -2.5082    4.7990 C   0  0  1  0  0  0  0  0  0  0  0  0
    1.3771   -1.5440    4.0762 O   0  0  0  0  0  0  0  0  0  0  0  0
    1.9971   -2.5729    6.3048 C   0  0  1  0  0  0  0  0  0  0  0  0
    1.4273   -1.4014    6.8953 O   0  0  0  0  0  0  0  0  0  0  0  0
    2.3482   -0.3163    6.9783 C   0  0  0  0  0  0  0  0  0  0  0  0
    1.0624   -3.8073    6.1509 C   0  0  1  0  0  0  0  0  0  0  0  0
   -0.3029   -3.3812    6.0977 O   0  0  0  0  0  0  0  0  0  0  0  0
    1.0754   -4.9944    7.1605 C   0  0  2  0  0  0  0  0  0  0  0  0
    0.3897   -4.5715    8.3522 O   0  0  0  0  0  0  0  0  0  0  0  0
    2.6193   -5.2842    7.6249 C   0  0  1  0  0  0  0  0  0  0  0  0
    2.8773   -4.2656    8.6073 O   0  0  0  0  0  0  0  0  0  0  0  0
    3.4382   -6.6291    8.0129 C   0  0  2  0  0  0  0  0  0  0  0  0
    4.2455   -6.1992    9.1165 O   0  0  0  0  0  0  0  0  0  0  0  0
    2.6824   -7.6789    8.9115 C   0  0  1  0  0  0  0  0  0  0  0  0
    1.4084   -7.2481    9.3838 O   0  0  0  0  0  0  0  0  0  0  0  0
    1.3966   -8.5415    8.7801 C   0  0  2  0  0  0  0  0  0  0  0  0
    1.2329   -9.6880    9.7635 C   0  0  0  0  0  0  0  0  0  0  0  0
    0.3960   -8.6650    7.6134 C   0  0  0  0  0  0  0  0  0  0  0  0
    0.7516   -7.8746    6.3280 C   0  0  2  0  0  0  0  0  0  0  0  0
   -0.0808   -6.2478    6.2877 S   0  0  0  0  0  0  0  0  0  0  0  0
   -0.5519   -5.8508    4.8868 O   0  0  0  0  0  0  0  0  0  0  0  0
    1.8374  -10.0017    5.2516 C   0  0  1  0  0  0  0  0  0  0  0  0
    1.7167  -10.8573    4.1328 O   0  0  0  0  0  0  0  0  0  0  0  0
    3.1808  -10.1398    6.2669 C   0  0  1  0  0  0  0  0  0  0  0  0
    3.7865  -11.3775    5.9389 O   0  0  0  0  0  0  0  0  0  0  0  0
    8.3330   -9.8839    4.3649 H   0  0  0  0  0  0  0  0  0  0  0  0
    6.7473  -10.2591    5.0325 H   0  0  0  0  0  0  0  0  0  0  0  0
    7.7507   -9.0400    5.8035 H   0  0  0  0  0  0  0  0  0  0  0  0
    6.3177   -8.8100    3.1628 H   0  0  0  0  0  0  0  0  0  0  0  0
    7.9315   -5.2801    3.2130 H   0  0  0  0  0  0  0  0  0  0  0  0
    3.7896   -6.1119   -0.7516 H   0  0  0  0  0  0  0  0  0  0  0  0
    4.9659   -4.5295   -0.2426 H   0  0  0  0  0  0  0  0  0  0  0  0
    3.6047   -4.0476    0.6590 H   0  0  0  0  0  0  0  0  0  0  0  0
    6.5608   -3.7551    1.2499 H   0  0  0  0  0  0  0  0  0  0  0  0
    5.3019   -2.6021    1.3573 H   0  0  0  0  0  0  0  0  0  0  0  0
    4.8404   -2.9869    3.5171 H   0  0  0  0  0  0  0  0  0  0  0  0
    4.4139   -4.3887    5.3697 H   0  0  0  0  0  0  0  0  0  0  0  0
    6.4594   -7.4692    6.8410 H   0  0  0  0  0  0  0  0  0  0  0  0
    6.1258   -9.7491    7.5582 H   0  0  0  0  0  0  0  0  0  0  0  0
    4.6842  -10.5679    8.0368 H   0  0  0  0  0  0  0  0  0  0  0  0
    5.0053   -9.0066    8.6783 H   0  0  0  0  0  0  0  0  0  0  0  0
    2.6909   -7.0060    5.3251 H   0  0  0  0  0  0  0  0  0  0  0  0
    4.5384  -10.1707    4.0374 H   0  0  0  0  0  0  0  0  0  0  0  0
    4.8432   -9.3175    2.6264 H   0  0  0  0  0  0  0  0  0  0  0  0
    3.2900   -9.8837    2.7596 H   0  0  0  0  0  0  0  0  0  0  0  0
    1.3521   -8.4393    2.8283 H   0  0  0  0  0  0  0  0  0  0  0  0
    0.1602   -7.5182    3.5079 H   0  0  0  0  0  0  0  0  0  0  0  0
    1.1465   -5.8028    2.8212 H   0  0  0  0  0  0  0  0  0  0  0  0
    2.8214   -7.6324    1.5549 H   0  0  0  0  0  0  0  0  0  0  0  0
    2.1842   -6.3284   -0.1303 H   0  0  0  0  0  0  0  0  0  0  0  0
    3.3994   -4.5319    2.3718 H   0  0  0  0  0  0  0  0  0  0  0  0
    0.7913   -3.9872    4.0647 H   0  0  0  0  0  0  0  0  0  0  0  0
    3.1791   -2.3342    4.5643 H   0  0  0  0  0  0  0  0  0  0  0  0
    0.4673   -1.6154    4.3230 H   0  0  0  0  0  0  0  0  0  0  0  0
    2.9856   -2.7826    6.7120 H   0  0  0  0  0  0  0  0  0  0  0  0
    1.8568    0.5645    7.3889 H   0  0  0  0  0  0  0  0  0  0  0  0
    2.7464   -0.0404    6.0005 H   0  0  0  0  0  0  0  0  0  0  0  0
    3.1899   -0.5602    7.6275 H   0  0  0  0  0  0  0  0  0  0  0  0
   -0.3142   -2.6370    5.5272 H   0  0  0  0  0  0  0  0  0  0  0  0
    0.7026   -5.1107    9.0697 H   0  0  0  0  0  0  0  0  0  0  0  0
    3.1993   -4.8981    6.8398 H   0  0  0  0  0  0  0  0  0  0  0  0
    2.4552   -4.5340    9.4182 H   0  0  0  0  0  0  0  0  0  0  0  0
    4.8582   -5.5613    8.7694 H   0  0  0  0  0  0  0  0  0  0  0  0
    3.3155   -8.1197    9.6763 H   0  0  0  0  0  0  0  0  0  0  0  0
    1.5155  -10.6430    9.3031 H   0  0  0  0  0  0  0  0  0  0  0  0
    0.2084   -9.7508   10.1140 H   0  0  0  0  0  0  0  0  0  0  0  0
    1.8697   -9.5474   10.6389 H   0  0  0  0  0  0  0  0  0  0  0  0
    0.2057   -9.7224    7.4456 H   0  0  0  0  0  0  0  0  0  0  0  0
   -0.5626   -8.3154    8.0006 H   0  0  0  0  0  0  0  0  0  0  0  0
    1.4642   -7.2783    6.8265 H   0  0  0  0  0  0  0  0  0  0  0  0
    1.0100  -10.4528    5.7793 H   0  0  0  0  0  0  0  0  0  0  0  0
    1.7594  -11.7624    4.4245 H   0  0  0  0  0  0  0  0  0  0  0  0
    2.7194  -10.3768    7.2380 H   0  0  0  0  0  0  0  0  0  0  0  0
    3.1832  -12.0674    6.2071 H   0  0  0  0  0  0  0  0  0  0  0  0
  1  2  1  0
  1 58  1  0
  1 59  1  0
  1 60  1  0
  2  3  1  0
  2 61  1  0
  3  4  2  0
  3  5  1  0
  5 14  1  0
  5  6  1  6
  5  7  1  0
  6 62  1  0
  7  8  2  0
  7  9  1  0
  9 28  1  0
  9 10  1  6
  9 11  1  0
 10 63  1  0
 11 12  1  0
 11 64  1  0
 11 65  1  0
 12 13  1  0
 12 66  1  0
 12 67  1  0
 13 14  2  0
 13 68  1  0
 14 15  1  0
 15 30  1  0
 15 16  1  0
 15 69  1  1
 16 17  1  0
 17 44  1  0
 17 18  1  1
 17 19  1  0
 18 70  1  0
 19 56  1  0
 19 20  1  6
 19 21  1  0
 20 71  1  0
 20 72  1  0
 20 73  1  0
 21 22  1  0
 22 23  1  0
 22 25  1  0
 22 74  1  1
 23 24  1  0
 24 75  1  0
 24 76  1  0
 24 77  1  0
 25 51  1  0
 25 26  1  6
 25 54  1  0
 26 27  1  0
 26 78  1  0
 26 79  1  0
 27 28  1  0
 27 30  1  0
 27 80  1  6
 28 29  1  0
 28 81  1  6
 29 82  1  0
 30 31  1  6
 30 32  1  0
 31 83  1  0
 32 38  1  0
 32 33  1  0
 32 84  1  6
 33 34  1  0
 33 35  1  0
 33 85  1  1
 34 86  1  0
 35 36  1  0
 35 38  1  0
 35 87  1  1
 36 37  1  0
 37 88  1  0
 37 89  1  0
 37 90  1  0
 38 39  1  6
 38 40  1  0
 39 91  1  0
 52 40  1  6
 40 41  1  1
 40 42  1  0
 41 92  1  0
 42 43  1  0
 42 44  1  0
 42 93  1  6
 43 94  1  0
 44 45  1  1
 44 46  1  0
 45 95  1  0
 46 48  1  0
 46 47  1  0
 46 96  1  1
 47 48  1  0
 48 49  1  1
 48 50  1  0
 49 97  1  0
 49 98  1  0
 49 99  1  0
 50 51  1  0
 50100  1  0
 50101  1  0
 51 52  1  0
 51102  1  1
 52 53  2  0
 54 55  1  0
 54 56  1  0
 54103  1  1
 55104  1  0
 56 57  1  0
 56105  1  1
 57106  1  0
M  END
>  <i_m_ct_stereo_status>  (40) 
1

>  <s_m_source_file>  (40) 
/var/tmp/pbs.5075288.sched01/tmpzl_yb0kw/0ymjshsm9.sdf

>  <i_m_source_file_index>  (40) 
60

>  <i_lp_mmshare_version>  (40) 
48012

>  <i_f3d_flags>  (40) 
0

>  <s_epik_input>  (40) 
W09IXVtDQEhdMVtDQEBIXShPW0NIM10pW0NAXShbT0hdKShbQ0BAXShbT0hdKShbUytdMltPLV0pW0NASF0zW09IXSlbQ0BIXTFbQ0BdNChbT0hdKVtDQEhdKFtDSDJdNSlbQ0BASF0oW09IXSlbQ0BdKFtPSF0pKEMoPU8pW0NAXTYoW09IXSlDKD1PKVtOSF1bQ0gzXSlbQ0gyXVtDSDJdW0NIXT1DNltDQEBIXTRPW0NAXShbT0hdKShbQ0BdKFtDSDNdKShbQ0BIXShbT0hdKVtDQEBIXTdbT0hdKU9bQ0BIXThPW0NIM10pW0NAXTMoW09IXSlbQ0BASF0oTzkpW0NAXTkoW0NIM10pW0NIMl1bQ0BASF0yQzU3OA==

>  <s_epik_cmdline>  (40) 
J2VwaWtfcHl0aG9uJywgJy1waHQnLCAnMi4wJywgJy1waCcsICc3LjAnLCAnLXRuJywgJzgnLCAnLW1hJywgJzIwMCcsICctaW1hZScsICc8aW5maWxlLm1hZT4nLCAnLW9tYWUnLCAnPG91dGZpbGUubWFlPic=

>  <r_lp_tautomer_probability>  (40) 
1

>  <r_epik_Ionization_Penalty>  (40) 
1.40957e-05

>  <r_epik_Ionization_Penalty_Charging>  (40) 
0

>  <r_epik_Ionization_Penalty_Neutral>  (40) 
1.40957e-05

>  <r_epik_State_Penalty>  (40) 
0

>  <r_epik_Charging_Adjusted_Penalty>  (40) 
0

>  <i_epik_Tot_Q>  (40) 
0

>  <i_epik_Tot_abs_Q>  (40) 
2

>  <s_epik_Chemistry_Notes>  (40) 
This compound contains an acetal/aminal-like group ( X-CH(R)-Y where X, Y are N, S, or O) that may be acid/base labile, releasing an aldehyde.

>  <s_lp_Force_Field>  (40) 
OPLS3e

>  <r_lp_Energy>  (40) 
641.684

>  <b_lp_Chiralities_Consistent>  (40) 
1

>  <s_lp_Variant>  (40) 
14:0-13

>  <s_i_glide_gridfile>  (40) 
pfpi4k_grid

>  <i_i_glide_lignum>  (40) 
60

>  <i_i_glide_rotatable_bonds>  (40) 
16

>  <r_i_docking_score>  (40) 
-4.44546

>  <r_i_glide_ligand_efficiency>  (40) 
-0.0779906

>  <r_i_glide_ligand_efficiency_sa>  (40) 
-0.300147

>  <r_i_glide_ligand_efficiency_ln>  (40) 
-0.881503

>  <r_i_glide_gscore>  (40) 
-4.44546

>  <r_i_glide_lipo>  (40) 
-0.211228

>  <r_i_glide_hbond>  (40) 
0

>  <r_i_glide_metal>  (40) 
-0

>  <r_i_glide_rewards>  (40) 
-1.57157

>  <r_i_glide_evdw>  (40) 
-26.3973

>  <r_i_glide_ecoul>  (40) 
-9.11645

>  <r_i_glide_erotb>  (40) 
0.0313225

>  <r_i_glide_esite>  (40) 
-0.00665597

>  <r_i_glide_emodel>  (40) 
-59.8775

>  <r_i_glide_energy>  (40) 
-35.5138

>  <r_i_glide_einternal>  (40) 
4.01991

>  <r_i_glide_intrahb_reward>  (40) 
-1.5

>  <i_i_glide_confnum>  (40) 
1

>  <i_i_glide_posenum>  (40) 
11

>  <r_i_glide_eff_state_penalty>  (40) 
0

>  <ligand_id>  (40) 
14

>  <original_smiles>  (40) 
CNC(=O)C1(O)C(=O)C2(O)CCC=C1C1OC3(O)C4(C)OC(OC)C5(CC(C2O)C1(O)C1C(O)C(OC)C1(O)C1(O)C(O)C3(O)C2OC2(C)CC5[S+]1[O-])C(O)C4O

>  <smiles>  (40) 
[H]OC1(C(=O)N([H])C([H])([H])[H])C(=O)C2(O[H])C([H])([H])C([H])([H])C([H])=C1C1([H])OC3(O[H])C4(C([H])([H])[H])OC([H])(OC([H])([H])[H])C5(C([H])([H])C([H])(C2([H])O[H])C1(O[H])C1([H])C([H])(O[H])C([H])(OC([H])([H])[H])C1(O[H])C1(O[H])S(=O)C5([H])C([H])([H])C2(C([H])([H])[H])OC2([H])C3(O[H])C1([H])O[H])C([H])(O[H])C4([H])O[H]

$$$$
14:13:0
     RDKit          3D

106114  0  0  1  0  0  0  0  0999 V2000
   -1.9751   -9.4202    2.0488 C   0  0  0  0  0  0  0  0  0  0  0  0
   -1.4118   -9.1439    3.3541 N   0  0  0  0  0  0  0  0  0  0  0  0
   -0.6034   -8.1079    3.5899 C   0  0  0  0  0  0  0  0  0  0  0  0
   -0.7449   -7.0769    2.9204 O   0  0  0  0  0  0  0  0  0  0  0  0
    0.5256   -8.2049    4.6715 C   0  0  1  0  0  0  0  0  0  0  0  0
    0.2742   -7.0294    5.4234 O   0  0  0  0  0  0  0  0  0  0  0  0
    0.3455   -9.3830    5.6948 C   0  0  0  0  0  0  0  0  0  0  0  0
   -0.6016   -9.3667    6.4847 O   0  0  0  0  0  0  0  0  0  0  0  0
    1.4508  -10.4622    6.0448 C   0  0  2  0  0  0  0  0  0  0  0  0
    2.7573  -10.6216    5.4768 O   0  0  0  0  0  0  0  0  0  0  0  0
    1.2598  -11.4647    4.8320 C   0  0  0  0  0  0  0  0  0  0  0  0
    1.2720  -10.7911    3.3676 C   0  0  0  0  0  0  0  0  0  0  0  0
    2.0676   -9.4493    3.2539 C   0  0  0  0  0  0  0  0  0  0  0  0
    2.0199   -8.3156    4.0738 C   0  0  0  0  0  0  0  0  0  0  0  0
    3.3618   -7.4318    4.8003 C   0  0  2  0  0  0  0  0  0  0  0  0
    4.2635   -6.2021    4.4186 O   0  0  0  0  0  0  0  0  0  0  0  0
    5.0825   -4.9764    4.6632 C   0  0  2  0  0  0  0  0  0  0  0  0
    6.4123   -5.3965    4.5417 O   0  0  0  0  0  0  0  0  0  0  0  0
    5.0630   -4.0440    6.0833 C   0  0  1  0  0  0  0  0  0  0  0  0
    6.0254   -2.8347    5.9876 C   0  0  0  0  0  0  0  0  0  0  0  0
    3.8210   -3.3895    6.6286 O   0  0  0  0  0  0  0  0  0  0  0  0
    2.9480   -4.1365    7.5154 C   0  0  1  0  0  0  0  0  0  0  0  0
    1.6853   -3.6245    7.7565 O   0  0  0  0  0  0  0  0  0  0  0  0
    0.9887   -4.2250    8.8377 C   0  0  0  0  0  0  0  0  0  0  0  0
    2.9231   -5.5015    6.7885 C   0  0  1  0  0  0  0  0  0  0  0  0
    2.4833   -6.9631    7.4340 C   0  0  0  0  0  0  0  0  0  0  0  0
    3.1362   -8.3924    6.7582 C   0  0  2  0  0  0  0  0  0  0  0  0
    2.5265   -9.8390    7.1197 C   0  0  1  0  0  0  0  0  0  0  0  0
    1.8195   -9.6750    8.3417 O   0  0  0  0  0  0  0  0  0  0  0  0
    4.2840   -8.2859    5.4835 C   0  0  2  0  0  0  0  0  0  0  0  0
    5.5404   -7.9350    6.0185 O   0  0  0  0  0  0  0  0  0  0  0  0
    4.6868   -8.6012    3.8734 C   0  0  2  0  0  0  0  0  0  0  0  0
    6.1693   -8.5974    3.4379 C   0  0  1  0  0  0  0  0  0  0  0  0
    6.7232   -9.8493    3.0623 O   0  0  0  0  0  0  0  0  0  0  0  0
    5.8856   -7.5876    2.3266 C   0  0  1  0  0  0  0  0  0  0  0  0
    6.4505   -7.9983    1.0847 O   0  0  0  0  0  0  0  0  0  0  0  0
    7.8356   -7.6690    0.9239 C   0  0  0  0  0  0  0  0  0  0  0  0
    4.3413   -7.6665    2.4376 C   0  0  1  0  0  0  0  0  0  0  0  0
    3.9338   -8.4441    1.3344 O   0  0  0  0  0  0  0  0  0  0  0  0
    3.3843   -6.1946    2.1781 C   0  0  2  0  0  0  0  0  0  0  0  0
    2.7875   -6.3197    0.8700 O   0  0  0  0  0  0  0  0  0  0  0  0
    4.3040   -4.9317    2.0301 C   0  0  1  0  0  0  0  0  0  0  0  0
    3.9055   -4.0132    1.0043 O   0  0  0  0  0  0  0  0  0  0  0  0
    4.6811   -4.0903    3.3306 C   0  0  2  0  0  0  0  0  0  0  0  0
    5.8314   -3.5528    2.7294 O   0  0  0  0  0  0  0  0  0  0  0  0
    3.9371   -2.7076    3.5490 C   0  0  1  0  0  0  0  0  0  0  0  0
    2.7046   -2.5352    2.8692 O   0  0  0  0  0  0  0  0  0  0  0  0
    2.6021   -2.3489    4.2686 C   0  0  2  0  0  0  0  0  0  0  0  0
    2.3433   -0.9132    4.6508 C   0  0  0  0  0  0  0  0  0  0  0  0
    1.6291   -3.3359    4.9814 C   0  0  0  0  0  0  0  0  0  0  0  0
    2.1856   -4.8105    5.2098 C   0  0  2  0  0  0  0  0  0  0  0  0
    1.9262   -5.5353    3.3571 S   0  0  0  0  0  0  0  0  0  0  0  0
    1.0155   -4.6693    2.5145 O   0  0  0  0  0  0  0  0  0  0  0  0
    4.4526   -5.7961    7.4468 C   0  0  0  0  0  0  0  0  0  0  0  0
    4.9281   -6.8863    8.2269 O   0  0  0  0  0  0  0  0  0  0  0  0
    5.5783   -4.8303    7.2573 C   0  0  1  0  0  0  0  0  0  0  0  0
    6.9216   -5.3211    7.2646 O   0  0  0  0  0  0  0  0  0  0  0  0
   -3.0258   -9.7249    2.0924 H   0  0  0  0  0  0  0  0  0  0  0  0
   -1.4074  -10.2430    1.6504 H   0  0  0  0  0  0  0  0  0  0  0  0
   -1.9128   -8.5955    1.3376 H   0  0  0  0  0  0  0  0  0  0  0  0
   -1.4317   -9.9420    3.9932 H   0  0  0  0  0  0  0  0  0  0  0  0
    0.9006   -6.9752    6.1290 H   0  0  0  0  0  0  0  0  0  0  0  0
    3.0550  -11.4474    5.8409 H   0  0  0  0  0  0  0  0  0  0  0  0
    1.7945  -12.4271    4.8869 H   0  0  0  0  0  0  0  0  0  0  0  0
    0.2380  -11.8202    4.9421 H   0  0  0  0  0  0  0  0  0  0  0  0
    1.7934  -11.5158    2.7181 H   0  0  0  0  0  0  0  0  0  0  0  0
    0.2941  -10.8030    2.9347 H   0  0  0  0  0  0  0  0  0  0  0  0
    2.9268   -9.8074    2.7550 H   0  0  0  0  0  0  0  0  0  0  0  0
    2.5581   -6.9738    5.2076 H   0  0  0  0  0  0  0  0  0  0  0  0
    6.4893   -6.1693    5.0784 H   0  0  0  0  0  0  0  0  0  0  0  0
    7.0162   -3.1809    5.7128 H   0  0  0  0  0  0  0  0  0  0  0  0
    6.1669   -2.3394    6.9521 H   0  0  0  0  0  0  0  0  0  0  0  0
    5.7016   -2.0520    5.3097 H   0  0  0  0  0  0  0  0  0  0  0  0
    3.3783   -3.9798    8.5094 H   0  0  0  0  0  0  0  0  0  0  0  0
    0.0573   -3.6884    9.0066 H   0  0  0  0  0  0  0  0  0  0  0  0
    1.5653   -4.2102    9.7654 H   0  0  0  0  0  0  0  0  0  0  0  0
    0.7101   -5.2517    8.6185 H   0  0  0  0  0  0  0  0  0  0  0  0
    2.6163   -6.9951    8.5147 H   0  0  0  0  0  0  0  0  0  0  0  0
    1.3973   -6.9931    7.4854 H   0  0  0  0  0  0  0  0  0  0  0  0
    2.1843   -8.3210    6.4247 H   0  0  0  0  0  0  0  0  0  0  0  0
    3.3130  -10.5105    7.4988 H   0  0  0  0  0  0  0  0  0  0  0  0
    1.4714  -10.5392    8.5361 H   0  0  0  0  0  0  0  0  0  0  0  0
    5.9819   -8.7445    6.2422 H   0  0  0  0  0  0  0  0  0  0  0  0
    4.5495   -9.6645    3.7271 H   0  0  0  0  0  0  0  0  0  0  0  0
    6.8739   -8.0980    4.0950 H   0  0  0  0  0  0  0  0  0  0  0  0
    6.1640  -10.2140    2.3893 H   0  0  0  0  0  0  0  0  0  0  0  0
    6.3077   -6.6320    2.5971 H   0  0  0  0  0  0  0  0  0  0  0  0
    8.2192   -8.0376   -0.0229 H   0  0  0  0  0  0  0  0  0  0  0  0
    8.4504   -8.1302    1.6960 H   0  0  0  0  0  0  0  0  0  0  0  0
    8.0127   -6.5979    0.9490 H   0  0  0  0  0  0  0  0  0  0  0  0
    4.3227   -9.2930    1.4258 H   0  0  0  0  0  0  0  0  0  0  0  0
    3.4407   -6.1592    0.2010 H   0  0  0  0  0  0  0  0  0  0  0  0
    5.1882   -5.3194    1.5381 H   0  0  0  0  0  0  0  0  0  0  0  0
    3.8372   -4.4519    0.1714 H   0  0  0  0  0  0  0  0  0  0  0  0
    5.5416   -3.0221    1.9964 H   0  0  0  0  0  0  0  0  0  0  0  0
    4.5991   -1.8471    3.4595 H   0  0  0  0  0  0  0  0  0  0  0  0
    2.5843   -0.7465    5.7048 H   0  0  0  0  0  0  0  0  0  0  0  0
    1.3026   -0.6474    4.4608 H   0  0  0  0  0  0  0  0  0  0  0  0
    2.9741   -0.2508    4.0530 H   0  0  0  0  0  0  0  0  0  0  0  0
    1.2340   -2.8054    5.8324 H   0  0  0  0  0  0  0  0  0  0  0  0
    0.7274   -3.3760    4.3663 H   0  0  0  0  0  0  0  0  0  0  0  0
    3.0163   -4.4019    4.8711 H   0  0  0  0  0  0  0  0  0  0  0  0
    4.2732   -5.6232    8.5079 H   0  0  0  0  0  0  0  0  0  0  0  0
    5.2141   -7.5307    7.5876 H   0  0  0  0  0  0  0  0  0  0  0  0
    5.6075   -4.1645    8.1228 H   0  0  0  0  0  0  0  0  0  0  0  0
    7.0162   -6.0791    6.7120 H   0  0  0  0  0  0  0  0  0  0  0  0
  1  2  1  0
  1 58  1  0
  1 59  1  0
  1 60  1  0
  2  3  1  0
  2 61  1  0
  3  4  2  0
  3  5  1  0
  5 14  1  0
  5  6  1  1
  5  7  1  0
  6 62  1  0
  7  8  2  0
  7  9  1  0
  9 28  1  0
  9 10  1  6
  9 11  1  0
 10 63  1  0
 11 12  1  0
 11 64  1  0
 11 65  1  0
 12 13  1  0
 12 66  1  0
 12 67  1  0
 13 14  2  0
 13 68  1  0
 14 15  1  0
 15 30  1  0
 15 16  1  0
 15 69  1  1
 16 17  1  0
 17 44  1  0
 17 18  1  6
 17 19  1  0
 18 70  1  0
 19 56  1  0
 19 20  1  6
 19 21  1  0
 20 71  1  0
 20 72  1  0
 20 73  1  0
 21 22  1  0
 22 23  1  0
 22 25  1  0
 22 74  1  1
 23 24  1  0
 24 75  1  0
 24 76  1  0
 24 77  1  0
 25 51  1  0
 25 26  1  1
 25 54  1  0
 26 27  1  0
 26 78  1  0
 26 79  1  0
 27 28  1  0
 27 30  1  0
 27 80  1  1
 28 29  1  0
 28 81  1  1
 29 82  1  0
 30 31  1  1
 30 32  1  0
 31 83  1  0
 32 38  1  0
 32 33  1  0
 32 84  1  6
 33 34  1  0
 33 35  1  0
 33 85  1  1
 34 86  1  0
 35 36  1  0
 35 38  1  0
 35 87  1  1
 36 37  1  0
 37 88  1  0
 37 89  1  0
 37 90  1  0
 38 39  1  6
 38 40  1  0
 39 91  1  0
 52 40  1  6
 40 41  1  6
 40 42  1  0
 41 92  1  0
 42 43  1  0
 42 44  1  0
 42 93  1  6
 43 94  1  0
 44 45  1  6
 44 46  1  0
 45 95  1  0
 46 48  1  0
 46 47  1  0
 46 96  1  6
 47 48  1  0
 48 49  1  6
 48 50  1  0
 49 97  1  0
 49 98  1  0
 49 99  1  0
 50 51  1  0
 50100  1  0
 50101  1  0
 51 52  1  0
 51102  1  1
 52 53  2  0
 54 55  1  0
 54 56  1  0
 54103  1  0
 55104  1  0
 56 57  1  0
 56105  1  1
 57106  1  0
M  END
>  <i_m_ct_stereo_status>  (41) 
1

>  <s_m_source_file>  (41) 
/var/tmp/pbs.5075288.sched01/tmpzl_yb0kw/0ymjshsm9.sdf

>  <i_m_source_file_index>  (41) 
61

>  <i_lp_mmshare_version>  (41) 
48012

>  <i_f3d_flags>  (41) 
0

>  <s_epik_input>  (41) 
W09IXVtDQEhdMVtDQEBIXShPW0NIM10pW0NAXShbT0hdKShbQ0BAXShbT0hdKShbUytdMltPLV0pW0NASF0zW09IXSlbQ0BIXTFbQ0BdNChbT0hdKVtDQEhdKFtDSDJdNSlbQ0BASF0oW09IXSlbQ0BdKFtPSF0pKEMoPU8pW0NAXTYoW09IXSlDKD1PKVtOSF1bQ0gzXSlbQ0gyXVtDSDJdW0NIXT1DNltDQEBIXTRPW0NAXShbT0hdKShbQ0BdKFtDSDNdKShbQ0BIXShbT0hdKVtDQEBIXTdbT0hdKU9bQ0BIXThPW0NIM10pW0NAXTMoW09IXSlbQ0BASF0oTzkpW0NAXTkoW0NIM10pW0NIMl1bQ0BASF0yQzU3OA==

>  <s_epik_cmdline>  (41) 
J2VwaWtfcHl0aG9uJywgJy1waHQnLCAnMi4wJywgJy1waCcsICc3LjAnLCAnLXRuJywgJzgnLCAnLW1hJywgJzIwMCcsICctaW1hZScsICc8aW5maWxlLm1hZT4nLCAnLW9tYWUnLCAnPG91dGZpbGUubWFlPic=

>  <r_lp_tautomer_probability>  (41) 
1

>  <r_epik_Ionization_Penalty>  (41) 
1.40957e-05

>  <r_epik_Ionization_Penalty_Charging>  (41) 
0

>  <r_epik_Ionization_Penalty_Neutral>  (41) 
1.40957e-05

>  <r_epik_State_Penalty>  (41) 
0

>  <r_epik_Charging_Adjusted_Penalty>  (41) 
0

>  <i_epik_Tot_Q>  (41) 
0

>  <i_epik_Tot_abs_Q>  (41) 
2

>  <s_epik_Chemistry_Notes>  (41) 
This compound contains an acetal/aminal-like group ( X-CH(R)-Y where X, Y are N, S, or O) that may be acid/base labile, releasing an aldehyde.

>  <s_lp_Force_Field>  (41) 
OPLS3e

>  <r_lp_Energy>  (41) 
1000.03

>  <b_lp_Chiralities_Consistent>  (41) 
1

>  <s_lp_Variant>  (41) 
14:0-14

>  <s_i_glide_gridfile>  (41) 
pfpi4k_grid

>  <i_i_glide_lignum>  (41) 
61

>  <i_i_glide_rotatable_bonds>  (41) 
16

>  <r_i_docking_score>  (41) 
-4.81678

>  <r_i_glide_ligand_efficiency>  (41) 
-0.084505

>  <r_i_glide_ligand_efficiency_sa>  (41) 
-0.325217

>  <r_i_glide_ligand_efficiency_ln>  (41) 
-0.955133

>  <r_i_glide_gscore>  (41) 
-4.81678

>  <r_i_glide_lipo>  (41) 
-0.448517

>  <r_i_glide_hbond>  (41) 
-0.28756

>  <r_i_glide_metal>  (41) 
-0

>  <r_i_glide_rewards>  (41) 
-1.50031

>  <r_i_glide_evdw>  (41) 
-23.1519

>  <r_i_glide_ecoul>  (41) 
-11.4689

>  <r_i_glide_erotb>  (41) 
0.0313225

>  <r_i_glide_esite>  (41) 
-0.223445

>  <r_i_glide_emodel>  (41) 
-55.1443

>  <r_i_glide_energy>  (41) 
-34.6208

>  <r_i_glide_einternal>  (41) 
10.0614

>  <r_i_glide_intrahb_reward>  (41) 
-1.5

>  <i_i_glide_confnum>  (41) 
4

>  <i_i_glide_posenum>  (41) 
26

>  <r_i_glide_eff_state_penalty>  (41) 
0

>  <ligand_id>  (41) 
14

>  <original_smiles>  (41) 
CNC(=O)C1(O)C(=O)C2(O)CCC=C1C1OC3(O)C4(C)OC(OC)C5(CC(C2O)C1(O)C1C(O)C(OC)C1(O)C1(O)C(O)C3(O)C2OC2(C)CC5[S+]1[O-])C(O)C4O

>  <smiles>  (41) 
[H]OC1(C(=O)N([H])C([H])([H])[H])C(=O)C2(O[H])C([H])([H])C([H])([H])C([H])=C1C1([H])OC3(O[H])C4(C([H])([H])[H])OC([H])(OC([H])([H])[H])C5(C([H])([H])C([H])(C2([H])O[H])C1(O[H])C1([H])C([H])(O[H])C([H])(OC([H])([H])[H])C1(O[H])C1(O[H])S(=O)C5([H])C([H])([H])C2(C([H])([H])[H])OC2([H])C3(O[H])C1([H])O[H])C([H])(O[H])C4([H])O[H]

$$$$
14:13:1
     RDKit          3D

106114  0  0  1  0  0  0  0  0999 V2000
   -1.9053   -9.2171    2.3454 C   0  0  0  0  0  0  0  0  0  0  0  0
   -1.0541   -9.0518    3.5092 N   0  0  0  0  0  0  0  0  0  0  0  0
   -0.3060   -7.9559    3.7584 C   0  0  0  0  0  0  0  0  0  0  0  0
   -0.5118   -6.9102    3.1493 O   0  0  0  0  0  0  0  0  0  0  0  0
    0.8290   -8.0192    4.8444 C   0  0  1  0  0  0  0  0  0  0  0  0
    0.3586   -7.0422    5.7402 O   0  0  0  0  0  0  0  0  0  0  0  0
    0.8157   -9.3424    5.6738 C   0  0  0  0  0  0  0  0  0  0  0  0
   -0.1862   -9.5719    6.3590 O   0  0  0  0  0  0  0  0  0  0  0  0
    2.0818  -10.2897    5.8724 C   0  0  2  0  0  0  0  0  0  0  0  0
    3.3748  -10.1194    5.3094 O   0  0  0  0  0  0  0  0  0  0  0  0
    2.0653  -11.0568    4.4795 C   0  0  0  0  0  0  0  0  0  0  0  0
    1.9458  -10.1421    3.1519 C   0  0  0  0  0  0  0  0  0  0  0  0
    2.5375   -8.7005    3.2792 C   0  0  0  0  0  0  0  0  0  0  0  0
    2.3013   -7.7440    4.2687 C   0  0  0  0  0  0  0  0  0  0  0  0
    3.4681   -6.7677    5.1549 C   0  0  2  0  0  0  0  0  0  0  0  0
    4.0948   -5.3419    5.0107 O   0  0  0  0  0  0  0  0  0  0  0  0
    4.7733   -4.0678    5.4866 C   0  0  2  0  0  0  0  0  0  0  0  0
    6.1364   -4.2655    5.3267 O   0  0  0  0  0  0  0  0  0  0  0  0
    4.5826   -3.3967    7.0262 C   0  0  1  0  0  0  0  0  0  0  0  0
    5.3354   -2.0468    7.1090 C   0  0  0  0  0  0  0  0  0  0  0  0
    3.2465   -3.0596    7.6427 O   0  0  0  0  0  0  0  0  0  0  0  0
    2.5049   -4.0898    8.3698 C   0  0  1  0  0  0  0  0  0  0  0  0
    1.1612   -3.8710    8.6634 O   0  0  0  0  0  0  0  0  0  0  0  0
    0.5827   -4.7597    9.6122 C   0  0  0  0  0  0  0  0  0  0  0  0
    2.7109   -5.3064    7.4193 C   0  0  1  0  0  0  0  0  0  0  0  0
    2.5344   -6.9194    7.8133 C   0  0  0  0  0  0  0  0  0  0  0  0
    3.4279   -8.0875    6.9274 C   0  0  2  0  0  0  0  0  0  0  0  0
    3.0696   -9.6554    7.0338 C   0  0  1  0  0  0  0  0  0  0  0  0
    2.3410   -9.8656    8.2439 O   0  0  0  0  0  0  0  0  0  0  0  0
    4.5200   -7.5629    5.7001 C   0  0  2  0  0  0  0  0  0  0  0  0
    5.6968   -7.1005    6.3191 O   0  0  0  0  0  0  0  0  0  0  0  0
    4.9563   -7.5166    4.0792 C   0  0  2  0  0  0  0  0  0  0  0  0
    6.4114   -7.1959    3.6737 C   0  0  1  0  0  0  0  0  0  0  0  0
    7.1592   -8.2748    3.1444 O   0  0  0  0  0  0  0  0  0  0  0  0
    5.9606   -6.0875    2.7211 C   0  0  1  0  0  0  0  0  0  0  0  0
    6.5628   -6.1357    1.4223 O   0  0  0  0  0  0  0  0  0  0  0  0
    7.9161   -5.6728    1.3862 C   0  0  0  0  0  0  0  0  0  0  0  0
    4.4364   -6.4262    2.8034 C   0  0  1  0  0  0  0  0  0  0  0  0
    4.1485   -7.0927    1.5960 O   0  0  0  0  0  0  0  0  0  0  0  0
    3.2594   -5.0993    2.7826 C   0  0  2  0  0  0  0  0  0  0  0  0
    2.7129   -5.0846    1.4560 O   0  0  0  0  0  0  0  0  0  0  0  0
    3.9910   -3.6887    2.8933 C   0  0  1  0  0  0  0  0  0  0  0  0
    3.4394   -2.6946    2.0342 O   0  0  0  0  0  0  0  0  0  0  0  0
    4.2788   -3.0088    4.3152 C   0  0  2  0  0  0  0  0  0  0  0  0
    5.3558   -2.2086    3.9447 O   0  0  0  0  0  0  0  0  0  0  0  0
    3.2350   -1.8719    4.7481 C   0  0  1  0  0  0  0  0  0  0  0  0
    1.9831   -1.8494    4.0608 O   0  0  0  0  0  0  0  0  0  0  0  0
    1.8526   -1.8989    5.4628 C   0  0  2  0  0  0  0  0  0  0  0  0
    1.3216   -0.6179    6.0706 C   0  0  0  0  0  0  0  0  0  0  0  0
    1.0538   -3.1263    5.9925 C   0  0  0  0  0  0  0  0  0  0  0  0
    1.8514   -4.5028    5.9571 C   0  0  2  0  0  0  0  0  0  0  0  0
    1.7044   -4.9255    4.0056 S   0  0  0  0  0  0  0  0  0  0  0  0
    0.6179   -4.0754    3.3355 O   0  0  0  0  0  0  0  0  0  0  0  0
    4.2653   -5.4353    8.0686 C   0  0  0  0  0  0  0  0  0  0  0  0
    4.9436   -6.5345    8.6538 O   0  0  0  0  0  0  0  0  0  0  0  0
    5.2172   -4.2764    8.0619 C   0  0  1  0  0  0  0  0  0  0  0  0
    6.6203   -4.5268    8.0375 O   0  0  0  0  0  0  0  0  0  0  0  0
   -2.8150   -9.7689    2.5749 H   0  0  0  0  0  0  0  0  0  0  0  0
   -1.3408   -9.8337    1.6592 H   0  0  0  0  0  0  0  0  0  0  0  0
   -2.1857   -8.2920    1.8412 H   0  0  0  0  0  0  0  0  0  0  0  0
   -0.9515   -9.8888    4.0809 H   0  0  0  0  0  0  0  0  0  0  0  0
   -0.5003   -7.3525    6.0265 H   0  0  0  0  0  0  0  0  0  0  0  0
    3.8654  -10.9089    5.5188 H   0  0  0  0  0  0  0  0  0  0  0  0
    2.7783  -11.9046    4.3674 H   0  0  0  0  0  0  0  0  0  0  0  0
    1.1311  -11.6193    4.5036 H   0  0  0  0  0  0  0  0  0  0  0  0
    2.5724  -10.6477    2.4037 H   0  0  0  0  0  0  0  0  0  0  0  0
    0.9434  -10.1897    2.7235 H   0  0  0  0  0  0  0  0  0  0  0  0
    3.4431   -8.8314    2.7557 H   0  0  0  0  0  0  0  0  0  0  0  0
    2.5883   -6.5467    5.6104 H   0  0  0  0  0  0  0  0  0  0  0  0
    6.3226   -5.1175    5.7103 H   0  0  0  0  0  0  0  0  0  0  0  0
    6.3454   -2.1094    6.7203 H   0  0  0  0  0  0  0  0  0  0  0  0
    5.4203   -1.7230    8.1432 H   0  0  0  0  0  0  0  0  0  0  0  0
    4.8295   -1.2386    6.6048 H   0  0  0  0  0  0  0  0  0  0  0  0
    2.8900   -4.0477    9.3953 H   0  0  0  0  0  0  0  0  0  0  0  0
   -0.4260   -4.4121    9.8449 H   0  0  0  0  0  0  0  0  0  0  0  0
    1.1572   -4.8051   10.5441 H   0  0  0  0  0  0  0  0  0  0  0  0
    0.4867   -5.7638    9.2009 H   0  0  0  0  0  0  0  0  0  0  0  0
    2.6847   -7.1214    8.8757 H   0  0  0  0  0  0  0  0  0  0  0  0
    1.4666   -7.1388    7.8184 H   0  0  0  0  0  0  0  0  0  0  0  0
    2.4867   -8.1308    6.5842 H   0  0  0  0  0  0  0  0  0  0  0  0
    3.9745  -10.2249    7.3152 H   0  0  0  0  0  0  0  0  0  0  0  0
    2.0537  -10.7646    8.2318 H   0  0  0  0  0  0  0  0  0  0  0  0
    6.2904   -7.8385    6.3944 H   0  0  0  0  0  0  0  0  0  0  0  0
    5.0040   -8.5516    3.7564 H   0  0  0  0  0  0  0  0  0  0  0  0
    7.0270   -6.7017    4.4310 H   0  0  0  0  0  0  0  0  0  0  0  0
    6.7509   -8.5364    2.3311 H   0  0  0  0  0  0  0  0  0  0  0  0
    6.2212   -5.1558    3.1896 H   0  0  0  0  0  0  0  0  0  0  0  0
    8.3307   -5.7771    0.3832 H   0  0  0  0  0  0  0  0  0  0  0  0
    8.5592   -6.2358    2.0586 H   0  0  0  0  0  0  0  0  0  0  0  0
    7.9823   -4.6250    1.6703 H   0  0  0  0  0  0  0  0  0  0  0  0
    4.7943   -7.7800    1.5317 H   0  0  0  0  0  0  0  0  0  0  0  0
    3.3772   -4.8434    0.8188 H   0  0  0  0  0  0  0  0  0  0  0  0
    4.9291   -3.8450    2.3735 H   0  0  0  0  0  0  0  0  0  0  0  0
    3.3796   -3.0248    1.1444 H   0  0  0  0  0  0  0  0  0  0  0  0
    5.0728   -1.6652    3.2210 H   0  0  0  0  0  0  0  0  0  0  0  0
    3.7076   -0.8951    4.7763 H   0  0  0  0  0  0  0  0  0  0  0  0
    1.5281   -0.5926    7.1401 H   0  0  0  0  0  0  0  0  0  0  0  0
    0.2526   -0.5268    5.8912 H   0  0  0  0  0  0  0  0  0  0  0  0
    1.8261    0.2296    5.5993 H   0  0  0  0  0  0  0  0  0  0  0  0
    0.5772   -2.8214    6.9028 H   0  0  0  0  0  0  0  0  0  0  0  0
    0.1677   -3.2065    5.3717 H   0  0  0  0  0  0  0  0  0  0  0  0
    2.6104   -3.9256    5.6934 H   0  0  0  0  0  0  0  0  0  0  0  0
    4.0742   -5.4940    9.1402 H   0  0  0  0  0  0  0  0  0  0  0  0
    5.3232   -6.9977    7.9040 H   0  0  0  0  0  0  0  0  0  0  0  0
    5.1152   -3.7713    9.0232 H   0  0  0  0  0  0  0  0  0  0  0  0
    6.8345   -5.2177    7.4157 H   0  0  0  0  0  0  0  0  0  0  0  0
  1  2  1  0
  1 58  1  0
  1 59  1  0
  1 60  1  0
  2  3  1  0
  2 61  1  0
  3  4  2  0
  3  5  1  0
  5 14  1  0
  5  6  1  1
  5  7  1  0
  6 62  1  0
  7  8  2  0
  7  9  1  0
  9 28  1  0
  9 10  1  6
  9 11  1  0
 10 63  1  0
 11 12  1  0
 11 64  1  0
 11 65  1  0
 12 13  1  0
 12 66  1  0
 12 67  1  0
 13 14  2  0
 13 68  1  0
 14 15  1  0
 15 30  1  0
 15 16  1  0
 15 69  1  1
 16 17  1  0
 17 44  1  0
 17 18  1  6
 17 19  1  0
 18 70  1  0
 19 56  1  0
 19 20  1  6
 19 21  1  0
 20 71  1  0
 20 72  1  0
 20 73  1  0
 21 22  1  0
 22 23  1  0
 22 25  1  0
 22 74  1  1
 23 24  1  0
 24 75  1  0
 24 76  1  0
 24 77  1  0
 25 51  1  0
 25 26  1  1
 25 54  1  0
 26 27  1  0
 26 78  1  0
 26 79  1  0
 27 28  1  0
 27 30  1  0
 27 80  1  1
 28 29  1  0
 28 81  1  1
 29 82  1  0
 30 31  1  1
 30 32  1  0
 31 83  1  0
 32 38  1  0
 32 33  1  0
 32 84  1  6
 33 34  1  0
 33 35  1  0
 33 85  1  1
 34 86  1  0
 35 36  1  0
 35 38  1  0
 35 87  1  1
 36 37  1  0
 37 88  1  0
 37 89  1  0
 37 90  1  0
 38 39  1  6
 38 40  1  0
 39 91  1  0
 52 40  1  6
 40 41  1  6
 40 42  1  0
 41 92  1  0
 42 43  1  0
 42 44  1  0
 42 93  1  6
 43 94  1  0
 44 45  1  6
 44 46  1  0
 45 95  1  0
 46 48  1  0
 46 47  1  0
 46 96  1  1
 47 48  1  0
 48 49  1  1
 48 50  1  0
 49 97  1  0
 49 98  1  0
 49 99  1  0
 50 51  1  0
 50100  1  0
 50101  1  0
 51 52  1  0
 51102  1  1
 52 53  2  0
 54 55  1  0
 54 56  1  0
 54103  1  0
 55104  1  0
 56 57  1  0
 56105  1  1
 57106  1  0
M  END
>  <i_m_ct_stereo_status>  (42) 
1

>  <s_m_source_file>  (42) 
/var/tmp/pbs.5075288.sched01/tmpzl_yb0kw/0ymjshsm9.sdf

>  <i_m_source_file_index>  (42) 
61

>  <i_lp_mmshare_version>  (42) 
48012

>  <i_f3d_flags>  (42) 
0

>  <s_epik_input>  (42) 
W09IXVtDQEhdMVtDQEBIXShPW0NIM10pW0NAXShbT0hdKShbQ0BAXShbT0hdKShbUytdMltPLV0pW0NASF0zW09IXSlbQ0BIXTFbQ0BdNChbT0hdKVtDQEhdKFtDSDJdNSlbQ0BASF0oW09IXSlbQ0BdKFtPSF0pKEMoPU8pW0NAXTYoW09IXSlDKD1PKVtOSF1bQ0gzXSlbQ0gyXVtDSDJdW0NIXT1DNltDQEBIXTRPW0NAXShbT0hdKShbQ0BdKFtDSDNdKShbQ0BIXShbT0hdKVtDQEBIXTdbT0hdKU9bQ0BIXThPW0NIM10pW0NAXTMoW09IXSlbQ0BASF0oTzkpW0NAXTkoW0NIM10pW0NIMl1bQ0BASF0yQzU3OA==

>  <s_epik_cmdline>  (42) 
J2VwaWtfcHl0aG9uJywgJy1waHQnLCAnMi4wJywgJy1waCcsICc3LjAnLCAnLXRuJywgJzgnLCAnLW1hJywgJzIwMCcsICctaW1hZScsICc8aW5maWxlLm1hZT4nLCAnLW9tYWUnLCAnPG91dGZpbGUubWFlPic=

>  <r_lp_tautomer_probability>  (42) 
1

>  <r_epik_Ionization_Penalty>  (42) 
1.40957e-05

>  <r_epik_Ionization_Penalty_Charging>  (42) 
0

>  <r_epik_Ionization_Penalty_Neutral>  (42) 
1.40957e-05

>  <r_epik_State_Penalty>  (42) 
0

>  <r_epik_Charging_Adjusted_Penalty>  (42) 
0

>  <i_epik_Tot_Q>  (42) 
0

>  <i_epik_Tot_abs_Q>  (42) 
2

>  <s_epik_Chemistry_Notes>  (42) 
This compound contains an acetal/aminal-like group ( X-CH(R)-Y where X, Y are N, S, or O) that may be acid/base labile, releasing an aldehyde.

>  <s_lp_Force_Field>  (42) 
OPLS3e

>  <r_lp_Energy>  (42) 
1000.03

>  <b_lp_Chiralities_Consistent>  (42) 
1

>  <s_lp_Variant>  (42) 
14:0-14

>  <s_i_glide_gridfile>  (42) 
pfpi4k_grid

>  <i_i_glide_lignum>  (42) 
61

>  <i_i_glide_rotatable_bonds>  (42) 
16

>  <r_i_docking_score>  (42) 
-4.48721

>  <r_i_glide_ligand_efficiency>  (42) 
-0.078723

>  <r_i_glide_ligand_efficiency_sa>  (42) 
-0.302966

>  <r_i_glide_ligand_efficiency_ln>  (42) 
-0.889781

>  <r_i_glide_gscore>  (42) 
-4.48721

>  <r_i_glide_lipo>  (42) 
-0.45309

>  <r_i_glide_hbond>  (42) 
-0.234914

>  <r_i_glide_metal>  (42) 
-0

>  <r_i_glide_rewards>  (42) 
-1.50346

>  <r_i_glide_evdw>  (42) 
-28.3665

>  <r_i_glide_ecoul>  (42) 
-4.80085

>  <r_i_glide_erotb>  (42) 
0.0313225

>  <r_i_glide_esite>  (42) 
-0.188616

>  <r_i_glide_emodel>  (42) 
-56.4039

>  <r_i_glide_energy>  (42) 
-33.1673

>  <r_i_glide_einternal>  (42) 
7.60037

>  <r_i_glide_intrahb_reward>  (42) 
-1.5

>  <i_i_glide_confnum>  (42) 
4

>  <i_i_glide_posenum>  (42) 
31

>  <r_i_glide_eff_state_penalty>  (42) 
0

>  <ligand_id>  (42) 
14

>  <original_smiles>  (42) 
CNC(=O)C1(O)C(=O)C2(O)CCC=C1C1OC3(O)C4(C)OC(OC)C5(CC(C2O)C1(O)C1C(O)C(OC)C1(O)C1(O)C(O)C3(O)C2OC2(C)CC5[S+]1[O-])C(O)C4O

>  <smiles>  (42) 
[H]OC1(C(=O)N([H])C([H])([H])[H])C(=O)C2(O[H])C([H])([H])C([H])([H])C([H])=C1C1([H])OC3(O[H])C4(C([H])([H])[H])OC([H])(OC([H])([H])[H])C5(C([H])([H])C([H])(C2([H])O[H])C1(O[H])C1([H])C([H])(O[H])C([H])(OC([H])([H])[H])C1(O[H])C1(O[H])S(=O)C5([H])C([H])([H])C2(C([H])([H])[H])OC2([H])C3(O[H])C1([H])O[H])C([H])(O[H])C4([H])O[H]

$$$$
14:13:2
     RDKit          3D

106114  0  0  1  0  0  0  0  0999 V2000
   -2.1392   -8.7420    2.5352 C   0  0  0  0  0  0  0  0  0  0  0  0
   -1.2091   -8.8209    3.6690 N   0  0  0  0  0  0  0  0  0  0  0  0
   -0.5224   -7.7645    4.1625 C   0  0  0  0  0  0  0  0  0  0  0  0
   -0.9011   -6.6259    3.8758 O   0  0  0  0  0  0  0  0  0  0  0  0
    0.7328   -7.9730    5.0785 C   0  0  1  0  0  0  0  0  0  0  0  0
    0.4266   -7.1029    6.1670 O   0  0  0  0  0  0  0  0  0  0  0  0
    0.7666   -9.4092    5.7183 C   0  0  0  0  0  0  0  0  0  0  0  0
   -0.1719   -9.7379    6.4574 O   0  0  0  0  0  0  0  0  0  0  0  0
    2.0335  -10.3776    5.6583 C   0  0  2  0  0  0  0  0  0  0  0  0
    3.2665  -10.1621    4.9777 O   0  0  0  0  0  0  0  0  0  0  0  0
    1.8467  -10.9788    4.1946 C   0  0  0  0  0  0  0  0  0  0  0  0
    1.6410   -9.9235    2.9946 C   0  0  0  0  0  0  0  0  0  0  0  0
    2.2318   -8.5040    3.2415 C   0  0  0  0  0  0  0  0  0  0  0  0
    2.1421   -7.6713    4.3570 C   0  0  0  0  0  0  0  0  0  0  0  0
    3.4390   -6.8263    5.2018 C   0  0  2  0  0  0  0  0  0  0  0  0
    4.0968   -5.3971    5.1636 O   0  0  0  0  0  0  0  0  0  0  0  0
    4.8558   -4.2144    5.7046 C   0  0  2  0  0  0  0  0  0  0  0  0
    6.2008   -4.4140    5.3605 O   0  0  0  0  0  0  0  0  0  0  0  0
    4.8930   -3.7347    7.3383 C   0  0  1  0  0  0  0  0  0  0  0  0
    5.6959   -2.4147    7.4942 C   0  0  0  0  0  0  0  0  0  0  0  0
    3.6389   -3.4619    8.1320 O   0  0  0  0  0  0  0  0  0  0  0  0
    2.9611   -4.5540    8.8178 C   0  0  1  0  0  0  0  0  0  0  0  0
    1.6783   -4.3333    9.2987 O   0  0  0  0  0  0  0  0  0  0  0  0
    1.1900   -5.3141   10.2067 C   0  0  0  0  0  0  0  0  0  0  0  0
    3.0189   -5.6382    7.7064 C   0  0  1  0  0  0  0  0  0  0  0  0
    2.8265   -7.2777    7.9177 C   0  0  0  0  0  0  0  0  0  0  0  0
    3.5544   -8.3346    6.7876 C   0  0  2  0  0  0  0  0  0  0  0  0
    3.1663   -9.9086    6.7741 C   0  0  1  0  0  0  0  0  0  0  0  0
    2.6339  -10.1858    8.0516 O   0  0  0  0  0  0  0  0  0  0  0  0
    4.5316   -7.6905    5.5258 C   0  0  2  0  0  0  0  0  0  0  0  0
    5.7917   -7.3320    6.0491 O   0  0  0  0  0  0  0  0  0  0  0  0
    4.7809   -7.4452    3.8841 C   0  0  2  0  0  0  0  0  0  0  0  0
    6.1798   -7.0852    3.3284 C   0  0  1  0  0  0  0  0  0  0  0  0
    6.8340   -8.0812    2.5668 O   0  0  0  0  0  0  0  0  0  0  0  0
    5.6355   -5.8721    2.5708 C   0  0  1  0  0  0  0  0  0  0  0  0
    6.0665   -5.8564    1.1948 O   0  0  0  0  0  0  0  0  0  0  0  0
    5.7691   -4.6609    0.4763 C   0  0  0  0  0  0  0  0  0  0  0  0
    4.1407   -6.2171    2.8311 C   0  0  1  0  0  0  0  0  0  0  0  0
    3.7438   -6.7613    1.5920 O   0  0  0  0  0  0  0  0  0  0  0  0
    3.0112   -4.8766    3.1044 C   0  0  2  0  0  0  0  0  0  0  0  0
    2.3326   -4.7540    1.8392 O   0  0  0  0  0  0  0  0  0  0  0  0
    3.7836   -3.4944    3.3046 C   0  0  1  0  0  0  0  0  0  0  0  0
    3.1158   -2.4251    2.6265 O   0  0  0  0  0  0  0  0  0  0  0  0
    4.2668   -2.9993    4.7555 C   0  0  2  0  0  0  0  0  0  0  0  0
    5.3665   -2.1731    4.3628 O   0  0  0  0  0  0  0  0  0  0  0  0
    3.3446   -1.9031    5.4369 C   0  0  1  0  0  0  0  0  0  0  0  0
    2.0228   -1.7647    4.9157 O   0  0  0  0  0  0  0  0  0  0  0  0
    2.0516   -1.9864    6.3116 C   0  0  2  0  0  0  0  0  0  0  0  0
    1.6459   -0.7818    7.1195 C   0  0  0  0  0  0  0  0  0  0  0  0
    1.2765   -3.2611    6.7650 C   0  0  0  0  0  0  0  0  0  0  0  0
    2.0145   -4.6375    6.4776 C   0  0  2  0  0  0  0  0  0  0  0  0
    1.6116   -4.8172    4.5228 S   0  0  0  0  0  0  0  0  0  0  0  0
    0.5031   -3.8492    4.0858 O   0  0  0  0  0  0  0  0  0  0  0  0
    4.6325   -5.8780    8.1436 C   0  0  0  0  0  0  0  0  0  0  0  0
    5.3218   -7.0661    8.5100 O   0  0  0  0  0  0  0  0  0  0  0  0
    5.6093   -4.7511    8.1759 C   0  0  1  0  0  0  0  0  0  0  0  0
    6.9872   -5.0173    7.9278 O   0  0  0  0  0  0  0  0  0  0  0  0
   -2.9388   -9.4865    2.6170 H   0  0  0  0  0  0  0  0  0  0  0  0
   -1.5679   -9.0268    1.6583 H   0  0  0  0  0  0  0  0  0  0  0  0
   -2.5905   -7.7666    2.3575 H   0  0  0  0  0  0  0  0  0  0  0  0
   -0.9325   -9.7360    3.9392 H   0  0  0  0  0  0  0  0  0  0  0  0
    1.1102   -7.1874    6.8117 H   0  0  0  0  0  0  0  0  0  0  0  0
    3.7551  -10.9745    5.0174 H   0  0  0  0  0  0  0  0  0  0  0  0
    2.4993  -11.8286    3.9158 H   0  0  0  0  0  0  0  0  0  0  0  0
    0.8940  -11.4948    4.2525 H   0  0  0  0  0  0  0  0  0  0  0  0
    2.2155  -10.3222    2.1427 H   0  0  0  0  0  0  0  0  0  0  0  0
    0.6325   -9.9636    2.5837 H   0  0  0  0  0  0  0  0  0  0  0  0
    3.0654   -8.5736    2.6077 H   0  0  0  0  0  0  0  0  0  0  0  0
    2.6391   -6.6326    5.7940 H   0  0  0  0  0  0  0  0  0  0  0  0
    6.4120   -5.2913    5.6376 H   0  0  0  0  0  0  0  0  0  0  0  0
    6.6598   -2.4463    6.9906 H   0  0  0  0  0  0  0  0  0  0  0  0
    5.9070   -2.2265    8.5423 H   0  0  0  0  0  0  0  0  0  0  0  0
    5.1598   -1.5348    7.1650 H   0  0  0  0  0  0  0  0  0  0  0  0
    3.4755   -4.6381    9.7846 H   0  0  0  0  0  0  0  0  0  0  0  0
    0.2256   -4.9896   10.5954 H   0  0  0  0  0  0  0  0  0  0  0  0
    1.8641   -5.4716   11.0541 H   0  0  0  0  0  0  0  0  0  0  0  0
    1.0184   -6.2701    9.7160 H   0  0  0  0  0  0  0  0  0  0  0  0
    3.0939   -7.6064    8.9254 H   0  0  0  0  0  0  0  0  0  0  0  0
    1.7644   -7.4899    8.0497 H   0  0  0  0  0  0  0  0  0  0  0  0
    2.5705   -8.3242    6.5528 H   0  0  0  0  0  0  0  0  0  0  0  0
    4.0794  -10.5251    6.8827 H   0  0  0  0  0  0  0  0  0  0  0  0
    2.2179  -11.0791    8.0179 H   0  0  0  0  0  0  0  0  0  0  0  0
    6.3525   -8.0942    5.9823 H   0  0  0  0  0  0  0  0  0  0  0  0
    4.7650   -8.4241    3.4246 H   0  0  0  0  0  0  0  0  0  0  0  0
    6.8849   -6.7034    4.0611 H   0  0  0  0  0  0  0  0  0  0  0  0
    6.2481   -8.3082    1.8596 H   0  0  0  0  0  0  0  0  0  0  0  0
    6.0322   -5.0049    3.0861 H   0  0  0  0  0  0  0  0  0  0  0  0
    6.2054   -4.7164   -0.5151 H   0  0  0  0  0  0  0  0  0  0  0  0
    6.1599   -3.7582    0.9522 H   0  0  0  0  0  0  0  0  0  0  0  0
    4.6971   -4.5537    0.3563 H   0  0  0  0  0  0  0  0  0  0  0  0
    4.1324   -6.1876    0.9532 H   0  0  0  0  0  0  0  0  0  0  0  0
    2.7863   -4.1569    1.2765 H   0  0  0  0  0  0  0  0  0  0  0  0
    4.6643   -3.5577    2.6853 H   0  0  0  0  0  0  0  0  0  0  0  0
    3.1256   -2.5446    1.6937 H   0  0  0  0  0  0  0  0  0  0  0  0
    5.7588   -1.8286    5.1493 H   0  0  0  0  0  0  0  0  0  0  0  0
    3.8446   -0.9426    5.5258 H   0  0  0  0  0  0  0  0  0  0  0  0
    1.9794   -0.8934    8.1548 H   0  0  0  0  0  0  0  0  0  0  0  0
    0.5643   -0.6379    7.0920 H   0  0  0  0  0  0  0  0  0  0  0  0
    2.1191    0.1110    6.7041 H   0  0  0  0  0  0  0  0  0  0  0  0
    0.9185   -3.0666    7.7645 H   0  0  0  0  0  0  0  0  0  0  0  0
    0.3140   -3.2485    6.2539 H   0  0  0  0  0  0  0  0  0  0  0  0
    2.7532   -4.0365    6.2012 H   0  0  0  0  0  0  0  0  0  0  0  0
    4.5557   -6.0617    9.2186 H   0  0  0  0  0  0  0  0  0  0  0  0
    5.6026   -7.4499    7.6897 H   0  0  0  0  0  0  0  0  0  0  0  0
    5.6490   -4.3662    9.1902 H   0  0  0  0  0  0  0  0  0  0  0  0
    7.1029   -5.6140    7.2112 H   0  0  0  0  0  0  0  0  0  0  0  0
  1  2  1  0
  1 58  1  0
  1 59  1  0
  1 60  1  0
  2  3  1  0
  2 61  1  0
  3  4  2  0
  3  5  1  0
  5 14  1  0
  5  6  1  1
  5  7  1  0
  6 62  1  0
  7  8  2  0
  7  9  1  0
  9 28  1  0
  9 10  1  6
  9 11  1  0
 10 63  1  0
 11 12  1  0
 11 64  1  0
 11 65  1  0
 12 13  1  0
 12 66  1  0
 12 67  1  0
 13 14  2  0
 13 68  1  0
 14 15  1  0
 15 30  1  0
 15 16  1  0
 15 69  1  1
 16 17  1  0
 17 44  1  0
 17 18  1  6
 17 19  1  0
 18 70  1  0
 19 56  1  0
 19 20  1  6
 19 21  1  0
 20 71  1  0
 20 72  1  0
 20 73  1  0
 21 22  1  0
 22 23  1  0
 22 25  1  0
 22 74  1  1
 23 24  1  0
 24 75  1  0
 24 76  1  0
 24 77  1  0
 25 51  1  0
 25 26  1  1
 25 54  1  0
 26 27  1  0
 26 78  1  0
 26 79  1  0
 27 28  1  0
 27 30  1  0
 27 80  1  1
 28 29  1  0
 28 81  1  6
 29 82  1  0
 30 31  1  1
 30 32  1  0
 31 83  1  0
 32 38  1  0
 32 33  1  0
 32 84  1  6
 33 34  1  0
 33 35  1  0
 33 85  1  1
 34 86  1  0
 35 36  1  0
 35 38  1  0
 35 87  1  1
 36 37  1  0
 37 88  1  0
 37 89  1  0
 37 90  1  0
 38 39  1  6
 38 40  1  0
 39 91  1  0
 52 40  1  6
 40 41  1  6
 40 42  1  0
 41 92  1  0
 42 43  1  0
 42 44  1  0
 42 93  1  6
 43 94  1  0
 44 45  1  6
 44 46  1  0
 45 95  1  0
 46 48  1  0
 46 47  1  0
 46 96  1  1
 47 48  1  0
 48 49  1  1
 48 50  1  0
 49 97  1  0
 49 98  1  0
 49 99  1  0
 50 51  1  0
 50100  1  0
 50101  1  0
 51 52  1  0
 51102  1  1
 52 53  2  0
 54 55  1  0
 54 56  1  0
 54103  1  0
 55104  1  0
 56 57  1  0
 56105  1  1
 57106  1  0
M  END
>  <i_m_ct_stereo_status>  (43) 
1

>  <s_m_source_file>  (43) 
/var/tmp/pbs.5075288.sched01/tmpzl_yb0kw/0ymjshsm9.sdf

>  <i_m_source_file_index>  (43) 
61

>  <i_lp_mmshare_version>  (43) 
48012

>  <i_f3d_flags>  (43) 
0

>  <s_epik_input>  (43) 
W09IXVtDQEhdMVtDQEBIXShPW0NIM10pW0NAXShbT0hdKShbQ0BAXShbT0hdKShbUytdMltPLV0pW0NASF0zW09IXSlbQ0BIXTFbQ0BdNChbT0hdKVtDQEhdKFtDSDJdNSlbQ0BASF0oW09IXSlbQ0BdKFtPSF0pKEMoPU8pW0NAXTYoW09IXSlDKD1PKVtOSF1bQ0gzXSlbQ0gyXVtDSDJdW0NIXT1DNltDQEBIXTRPW0NAXShbT0hdKShbQ0BdKFtDSDNdKShbQ0BIXShbT0hdKVtDQEBIXTdbT0hdKU9bQ0BIXThPW0NIM10pW0NAXTMoW09IXSlbQ0BASF0oTzkpW0NAXTkoW0NIM10pW0NIMl1bQ0BASF0yQzU3OA==

>  <s_epik_cmdline>  (43) 
J2VwaWtfcHl0aG9uJywgJy1waHQnLCAnMi4wJywgJy1waCcsICc3LjAnLCAnLXRuJywgJzgnLCAnLW1hJywgJzIwMCcsICctaW1hZScsICc8aW5maWxlLm1hZT4nLCAnLW9tYWUnLCAnPG91dGZpbGUubWFlPic=

>  <r_lp_tautomer_probability>  (43) 
1

>  <r_epik_Ionization_Penalty>  (43) 
1.40957e-05

>  <r_epik_Ionization_Penalty_Charging>  (43) 
0

>  <r_epik_Ionization_Penalty_Neutral>  (43) 
1.40957e-05

>  <r_epik_State_Penalty>  (43) 
0

>  <r_epik_Charging_Adjusted_Penalty>  (43) 
0

>  <i_epik_Tot_Q>  (43) 
0

>  <i_epik_Tot_abs_Q>  (43) 
2

>  <s_epik_Chemistry_Notes>  (43) 
This compound contains an acetal/aminal-like group ( X-CH(R)-Y where X, Y are N, S, or O) that may be acid/base labile, releasing an aldehyde.

>  <s_lp_Force_Field>  (43) 
OPLS3e

>  <r_lp_Energy>  (43) 
1000.03

>  <b_lp_Chiralities_Consistent>  (43) 
1

>  <s_lp_Variant>  (43) 
14:0-14

>  <s_i_glide_gridfile>  (43) 
pfpi4k_grid

>  <i_i_glide_lignum>  (43) 
61

>  <i_i_glide_rotatable_bonds>  (43) 
16

>  <r_i_docking_score>  (43) 
-4.39585

>  <r_i_glide_ligand_efficiency>  (43) 
-0.0771201

>  <r_i_glide_ligand_efficiency_sa>  (43) 
-0.296797

>  <r_i_glide_ligand_efficiency_ln>  (43) 
-0.871664

>  <r_i_glide_gscore>  (43) 
-4.39585

>  <r_i_glide_lipo>  (43) 
-0.313407

>  <r_i_glide_hbond>  (43) 
-0.128986

>  <r_i_glide_metal>  (43) 
-0

>  <r_i_glide_rewards>  (43) 
-1.50145

>  <r_i_glide_evdw>  (43) 
-25.9959

>  <r_i_glide_ecoul>  (43) 
-6.59035

>  <r_i_glide_erotb>  (43) 
0.0313225

>  <r_i_glide_esite>  (43) 
-0.194979

>  <r_i_glide_emodel>  (43) 
-55.8911

>  <r_i_glide_energy>  (43) 
-32.5863

>  <r_i_glide_einternal>  (43) 
6.73831

>  <r_i_glide_intrahb_reward>  (43) 
-1.5

>  <i_i_glide_confnum>  (43) 
4

>  <i_i_glide_posenum>  (43) 
21

>  <r_i_glide_eff_state_penalty>  (43) 
0

>  <ligand_id>  (43) 
14

>  <original_smiles>  (43) 
CNC(=O)C1(O)C(=O)C2(O)CCC=C1C1OC3(O)C4(C)OC(OC)C5(CC(C2O)C1(O)C1C(O)C(OC)C1(O)C1(O)C(O)C3(O)C2OC2(C)CC5[S+]1[O-])C(O)C4O

>  <smiles>  (43) 
[H]OC1(C(=O)N([H])C([H])([H])[H])C(=O)C2(O[H])C([H])([H])C([H])([H])C([H])=C1C1([H])OC3(O[H])C4(C([H])([H])[H])OC([H])(OC([H])([H])[H])C5(C([H])([H])C([H])(C2([H])O[H])C1(O[H])C1([H])C([H])(O[H])C([H])(OC([H])([H])[H])C1(O[H])C1(O[H])S(=O)C5([H])C([H])([H])C2(C([H])([H])[H])OC2([H])C3(O[H])C1([H])O[H])C([H])(O[H])C4([H])O[H]

$$$$
14:15:0
     RDKit          3D

106114  0  0  1  0  0  0  0  0999 V2000
    6.2702   -5.8441    0.7117 C   0  0  0  0  0  0  0  0  0  0  0  0
    5.7388   -4.5717    1.1762 N   0  0  0  0  0  0  0  0  0  0  0  0
    5.5795   -4.2057    2.4715 C   0  0  0  0  0  0  0  0  0  0  0  0
    6.0008   -4.8784    3.4040 O   0  0  0  0  0  0  0  0  0  0  0  0
    4.9963   -2.8106    2.7583 C   0  0  1  0  0  0  0  0  0  0  0  0
    5.9990   -2.0276    2.1200 O   0  0  0  0  0  0  0  0  0  0  0  0
    3.7211   -2.3912    1.9887 C   0  0  0  0  0  0  0  0  0  0  0  0
    3.2769   -3.0442    1.0318 O   0  0  0  0  0  0  0  0  0  0  0  0
    3.0357   -1.0521    2.3703 C   0  0  2  0  0  0  0  0  0  0  0  0
    2.6271   -0.4519    1.1462 O   0  0  0  0  0  0  0  0  0  0  0  0
    4.0144    0.1189    2.8675 C   0  0  0  0  0  0  0  0  0  0  0  0
    5.2855   -0.0084    3.8005 C   0  0  0  0  0  0  0  0  0  0  0  0
    5.3353   -1.2444    4.6760 C   0  0  0  0  0  0  0  0  0  0  0  0
    4.8271   -2.4311    4.2798 C   0  0  0  0  0  0  0  0  0  0  0  0
    3.8505   -3.0342    5.3760 C   0  0  2  0  0  0  0  0  0  0  0  0
    3.2336   -4.3650    5.3373 O   0  0  0  0  0  0  0  0  0  0  0  0
    3.5210   -5.6853    5.8710 C   0  0  2  0  0  0  0  0  0  0  0  0
    4.9099   -5.8774    5.6817 O   0  0  0  0  0  0  0  0  0  0  0  0
    2.8097   -6.9340    4.8893 C   0  0  1  0  0  0  0  0  0  0  0  0
    3.4490   -8.3157    5.1904 C   0  0  0  0  0  0  0  0  0  0  0  0
    1.3339   -7.2679    4.8004 O   0  0  0  0  0  0  0  0  0  0  0  0
    0.4037   -6.4664    3.9956 C   0  0  1  0  0  0  0  0  0  0  0  0
   -0.9730   -6.6441    4.2233 O   0  0  0  0  0  0  0  0  0  0  0  0
   -1.4769   -7.9034    3.7984 C   0  0  0  0  0  0  0  0  0  0  0  0
    0.9515   -5.0621    4.3543 C   0  0  1  0  0  0  0  0  0  0  0  0
    0.5276   -3.5618    3.9806 C   0  0  0  0  0  0  0  0  0  0  0  0
    1.4028   -2.2030    4.4145 C   0  0  2  0  0  0  0  0  0  0  0  0
    1.6235   -1.2854    3.0993 C   0  0  1  0  0  0  0  0  0  0  0  0
    0.9685   -0.0340    3.2990 O   0  0  0  0  0  0  0  0  0  0  0  0
    2.5903   -2.0243    5.5624 C   0  0  2  0  0  0  0  0  0  0  0  0
    2.8179   -0.6508    5.3506 O   0  0  0  0  0  0  0  0  0  0  0  0
    2.4933   -1.6136    7.1236 C   0  0  1  0  0  0  0  0  0  0  0  0
    2.7245   -0.2913    7.9369 C   0  0  1  0  0  0  0  0  0  0  0  0
    1.8934    0.8265    7.6656 O   0  0  0  0  0  0  0  0  0  0  0  0
    2.4005   -1.1725    9.1796 C   0  0  1  0  0  0  0  0  0  0  0  0
    1.7629   -0.4680   10.2404 O   0  0  0  0  0  0  0  0  0  0  0  0
    1.3982   -1.2936   11.3375 C   0  0  0  0  0  0  0  0  0  0  0  0
    1.5020   -2.0328    8.2505 C   0  0  1  0  0  0  0  0  0  0  0  0
    0.2432   -1.3577    8.1817 O   0  0  0  0  0  0  0  0  0  0  0  0
    1.3718   -3.5885    8.3301 C   0  0  2  0  0  0  0  0  0  0  0  0
    0.6788   -3.9572    9.4992 O   0  0  0  0  0  0  0  0  0  0  0  0
    2.7915   -4.3670    8.2573 C   0  0  1  0  0  0  0  0  0  0  0  0
    3.1242   -4.5069    9.6432 O   0  0  0  0  0  0  0  0  0  0  0  0
    3.2218   -5.7234    7.4897 C   0  0  2  0  0  0  0  0  0  0  0  0
    4.4746   -5.9596    8.1486 O   0  0  0  0  0  0  0  0  0  0  0  0
    2.5047   -6.9735    7.9529 C   0  0  1  0  0  0  0  0  0  0  0  0
    1.4797   -6.7984    8.9305 O   0  0  0  0  0  0  0  0  0  0  0  0
    1.0869   -7.3207    7.6514 C   0  0  2  0  0  0  0  0  0  0  0  0
    0.6597   -8.7805    7.6941 C   0  0  0  0  0  0  0  0  0  0  0  0
    0.1118   -6.4222    6.9205 C   0  0  0  0  0  0  0  0  0  0  0  0
    0.6068   -5.2258    5.9800 C   0  0  1  0  0  0  0  0  0  0  0  0
    0.2432   -3.7092    6.8783 S   0  0  0  0  0  0  0  0  0  0  0  0
   -1.2153   -3.7111    7.3344 O   0  0  0  0  0  0  0  0  0  0  0  0
    2.1899   -5.2827    3.2772 C   0  0  2  0  0  0  0  0  0  0  0  0
    1.7990   -5.2474    1.9067 O   0  0  0  0  0  0  0  0  0  0  0  0
    2.9513   -6.6173    3.4303 C   0  0  1  0  0  0  0  0  0  0  0  0
    4.2303   -6.7736    2.9275 O   0  0  0  0  0  0  0  0  0  0  0  0
    5.5260   -6.3241    0.0813 H   0  0  0  0  0  0  0  0  0  0  0  0
    6.5201   -6.5329    1.5156 H   0  0  0  0  0  0  0  0  0  0  0  0
    7.1665   -5.7033    0.1128 H   0  0  0  0  0  0  0  0  0  0  0  0
    5.5219   -3.8783    0.4716 H   0  0  0  0  0  0  0  0  0  0  0  0
    6.8140   -2.2131    2.5603 H   0  0  0  0  0  0  0  0  0  0  0  0
    1.9897   -0.9930    0.6972 H   0  0  0  0  0  0  0  0  0  0  0  0
    4.4417    0.5530    1.9619 H   0  0  0  0  0  0  0  0  0  0  0  0
    3.4022    0.9297    3.2747 H   0  0  0  0  0  0  0  0  0  0  0  0
    6.2171    0.0996    3.2454 H   0  0  0  0  0  0  0  0  0  0  0  0
    5.3051    0.8471    4.4802 H   0  0  0  0  0  0  0  0  0  0  0  0
    5.2613   -0.9878    5.7221 H   0  0  0  0  0  0  0  0  0  0  0  0
    4.5199   -3.0865    6.2287 H   0  0  0  0  0  0  0  0  0  0  0  0
    5.0822   -5.8438    4.7420 H   0  0  0  0  0  0  0  0  0  0  0  0
    4.5350   -8.3039    5.1806 H   0  0  0  0  0  0  0  0  0  0  0  0
    3.1428   -9.0373    4.4312 H   0  0  0  0  0  0  0  0  0  0  0  0
    3.1324   -8.7411    6.1350 H   0  0  0  0  0  0  0  0  0  0  0  0
    0.4404   -6.7746    2.9544 H   0  0  0  0  0  0  0  0  0  0  0  0
   -2.5237   -7.9815    4.0809 H   0  0  0  0  0  0  0  0  0  0  0  0
   -0.9427   -8.7377    4.2562 H   0  0  0  0  0  0  0  0  0  0  0  0
   -1.4285   -8.0081    2.7131 H   0  0  0  0  0  0  0  0  0  0  0  0
    0.3892   -3.5430    2.9082 H   0  0  0  0  0  0  0  0  0  0  0  0
   -0.4980   -3.3886    4.3216 H   0  0  0  0  0  0  0  0  0  0  0  0
    0.5978   -1.6640    4.9159 H   0  0  0  0  0  0  0  0  0  0  0  0
    0.9812   -1.7045    2.3249 H   0  0  0  0  0  0  0  0  0  0  0  0
    1.5156    0.5146    3.8424 H   0  0  0  0  0  0  0  0  0  0  0  0
    3.1343   -0.5331    4.4679 H   0  0  0  0  0  0  0  0  0  0  0  0
    3.4990   -1.9070    7.3907 H   0  0  0  0  0  0  0  0  0  0  0  0
    3.7649    0.0472    7.9459 H   0  0  0  0  0  0  0  0  0  0  0  0
    2.2359    1.2210    6.8742 H   0  0  0  0  0  0  0  0  0  0  0  0
    3.2917   -1.6858    9.5383 H   0  0  0  0  0  0  0  0  0  0  0  0
    0.9229   -0.7119   12.1273 H   0  0  0  0  0  0  0  0  0  0  0  0
    2.2649   -1.8028   11.7588 H   0  0  0  0  0  0  0  0  0  0  0  0
    0.6677   -2.0389   11.0374 H   0  0  0  0  0  0  0  0  0  0  0  0
    0.4885   -0.4371    8.1989 H   0  0  0  0  0  0  0  0  0  0  0  0
    1.1617   -4.6854    9.8708 H   0  0  0  0  0  0  0  0  0  0  0  0
    3.5950   -3.7058    8.0021 H   0  0  0  0  0  0  0  0  0  0  0  0
    3.9872   -4.9060    9.6597 H   0  0  0  0  0  0  0  0  0  0  0  0
    4.8735   -6.7220    7.7491 H   0  0  0  0  0  0  0  0  0  0  0  0
    3.1453   -7.8353    8.1459 H   0  0  0  0  0  0  0  0  0  0  0  0
    0.6514   -9.2143    6.6930 H   0  0  0  0  0  0  0  0  0  0  0  0
   -0.3266   -8.8841    8.1371 H   0  0  0  0  0  0  0  0  0  0  0  0
    1.3610   -9.3649    8.2935 H   0  0  0  0  0  0  0  0  0  0  0  0
   -0.5525   -7.0841    6.3919 H   0  0  0  0  0  0  0  0  0  0  0  0
   -0.5411   -6.0324    7.7050 H   0  0  0  0  0  0  0  0  0  0  0  0
   -0.4426   -5.0831    5.7230 H   0  0  0  0  0  0  0  0  0  0  0  0
    2.8664   -4.4583    3.2493 H   0  0  0  0  0  0  0  0  0  0  0  0
    2.5940   -5.2433    1.3850 H   0  0  0  0  0  0  0  0  0  0  0  0
    2.4461   -7.4051    2.8640 H   0  0  0  0  0  0  0  0  0  0  0  0
    4.4967   -7.6761    3.0494 H   0  0  0  0  0  0  0  0  0  0  0  0
  1  2  1  0
  1 58  1  0
  1 59  1  0
  1 60  1  0
  2  3  1  0
  2 61  1  0
  3  4  2  0
  3  5  1  0
  5 14  1  0
  5  6  1  6
  5  7  1  0
  6 62  1  0
  7  8  2  0
  7  9  1  0
  9 28  1  0
  9 10  1  6
  9 11  1  0
 10 63  1  0
 11 12  1  0
 11 64  1  0
 11 65  1  0
 12 13  1  0
 12 66  1  0
 12 67  1  0
 13 14  2  0
 13 68  1  0
 14 15  1  0
 15 30  1  0
 15 16  1  0
 15 69  1  1
 16 17  1  0
 17 44  1  0
 17 18  1  1
 17 19  1  0
 18 70  1  0
 19 56  1  0
 19 20  1  6
 19 21  1  0
 20 71  1  0
 20 72  1  0
 20 73  1  0
 21 22  1  0
 22 23  1  0
 22 25  1  0
 22 74  1  6
 23 24  1  0
 24 75  1  0
 24 76  1  0
 24 77  1  0
 25 51  1  0
 25 26  1  6
 25 54  1  0
 26 27  1  0
 26 78  1  0
 26 79  1  0
 27 28  1  0
 27 30  1  0
 27 80  1  1
 28 29  1  0
 28 81  1  6
 29 82  1  0
 30 31  1  6
 30 32  1  0
 31 83  1  0
 32 38  1  0
 32 33  1  0
 32 84  1  1
 33 34  1  0
 33 35  1  0
 33 85  1  1
 34 86  1  0
 35 36  1  0
 35 38  1  0
 35 87  1  1
 36 37  1  0
 37 88  1  0
 37 89  1  0
 37 90  1  0
 38 39  1  6
 38 40  1  0
 39 91  1  0
 52 40  1  1
 40 41  1  1
 40 42  1  0
 41 92  1  0
 42 43  1  0
 42 44  1  0
 42 93  1  6
 43 94  1  0
 44 45  1  1
 44 46  1  0
 45 95  1  0
 46 48  1  0
 46 47  1  0
 46 96  1  1
 47 48  1  0
 48 49  1  1
 48 50  1  0
 49 97  1  0
 49 98  1  0
 49 99  1  0
 50 51  1  0
 50100  1  0
 50101  1  0
 51 52  1  0
 51102  1  1
 52 53  2  0
 54 55  1  0
 54 56  1  0
 54103  1  6
 55104  1  0
 56 57  1  0
 56105  1  6
 57106  1  0
M  END
>  <i_m_ct_stereo_status>  (44) 
1

>  <s_m_source_file>  (44) 
/var/tmp/pbs.5075288.sched01/tmpzl_yb0kw/0ymjshsm9.sdf

>  <i_m_source_file_index>  (44) 
63

>  <i_lp_mmshare_version>  (44) 
48012

>  <i_f3d_flags>  (44) 
0

>  <s_epik_input>  (44) 
W09IXVtDQEhdMVtDQEBIXShPW0NIM10pW0NAXShbT0hdKShbQ0BAXShbT0hdKShbUytdMltPLV0pW0NASF0zW09IXSlbQ0BIXTFbQ0BdNChbT0hdKVtDQEhdKFtDSDJdNSlbQ0BASF0oW09IXSlbQ0BdKFtPSF0pKEMoPU8pW0NAXTYoW09IXSlDKD1PKVtOSF1bQ0gzXSlbQ0gyXVtDSDJdW0NIXT1DNltDQEBIXTRPW0NAXShbT0hdKShbQ0BdKFtDSDNdKShbQ0BIXShbT0hdKVtDQEBIXTdbT0hdKU9bQ0BIXThPW0NIM10pW0NAXTMoW09IXSlbQ0BASF0oTzkpW0NAXTkoW0NIM10pW0NIMl1bQ0BASF0yQzU3OA==

>  <s_epik_cmdline>  (44) 
J2VwaWtfcHl0aG9uJywgJy1waHQnLCAnMi4wJywgJy1waCcsICc3LjAnLCAnLXRuJywgJzgnLCAnLW1hJywgJzIwMCcsICctaW1hZScsICc8aW5maWxlLm1hZT4nLCAnLW9tYWUnLCAnPG91dGZpbGUubWFlPic=

>  <r_lp_tautomer_probability>  (44) 
1

>  <r_epik_Ionization_Penalty>  (44) 
1.40957e-05

>  <r_epik_Ionization_Penalty_Charging>  (44) 
0

>  <r_epik_Ionization_Penalty_Neutral>  (44) 
1.40957e-05

>  <r_epik_State_Penalty>  (44) 
0

>  <r_epik_Charging_Adjusted_Penalty>  (44) 
0

>  <i_epik_Tot_Q>  (44) 
0

>  <i_epik_Tot_abs_Q>  (44) 
2

>  <s_epik_Chemistry_Notes>  (44) 
This compound contains an acetal/aminal-like group ( X-CH(R)-Y where X, Y are N, S, or O) that may be acid/base labile, releasing an aldehyde.

>  <s_lp_Force_Field>  (44) 
OPLS3e

>  <r_lp_Energy>  (44) 
520.486

>  <b_lp_Chiralities_Consistent>  (44) 
1

>  <s_lp_Variant>  (44) 
14:0-16

>  <s_i_glide_gridfile>  (44) 
pfpi4k_grid

>  <i_i_glide_lignum>  (44) 
63

>  <i_i_glide_rotatable_bonds>  (44) 
16

>  <r_i_docking_score>  (44) 
-4.4683

>  <r_i_glide_ligand_efficiency>  (44) 
-0.0783911

>  <r_i_glide_ligand_efficiency_sa>  (44) 
-0.301688

>  <r_i_glide_ligand_efficiency_ln>  (44) 
-0.88603

>  <r_i_glide_gscore>  (44) 
-4.4683

>  <r_i_glide_lipo>  (44) 
-0.31539

>  <r_i_glide_hbond>  (44) 
-0.0145101

>  <r_i_glide_metal>  (44) 
-0

>  <r_i_glide_rewards>  (44) 
-1.53173

>  <r_i_glide_evdw>  (44) 
-24.9161

>  <r_i_glide_ecoul>  (44) 
-8.96957

>  <r_i_glide_erotb>  (44) 
0.0313225

>  <r_i_glide_esite>  (44) 
-0.0467454

>  <r_i_glide_emodel>  (44) 
-55.8152

>  <r_i_glide_energy>  (44) 
-33.8857

>  <r_i_glide_einternal>  (44) 
5.46263

>  <r_i_glide_intrahb_reward>  (44) 
-1.5

>  <i_i_glide_confnum>  (44) 
6

>  <i_i_glide_posenum>  (44) 
36

>  <r_i_glide_eff_state_penalty>  (44) 
0

>  <ligand_id>  (44) 
14

>  <original_smiles>  (44) 
CNC(=O)C1(O)C(=O)C2(O)CCC=C1C1OC3(O)C4(C)OC(OC)C5(CC(C2O)C1(O)C1C(O)C(OC)C1(O)C1(O)C(O)C3(O)C2OC2(C)CC5[S+]1[O-])C(O)C4O

>  <smiles>  (44) 
[H]OC1(C(=O)N([H])C([H])([H])[H])C(=O)C2(O[H])C([H])([H])C([H])([H])C([H])=C1C1([H])OC3(O[H])C4(C([H])([H])[H])OC([H])(OC([H])([H])[H])C5(C([H])([H])C([H])(C2([H])O[H])C1(O[H])C1([H])C([H])(O[H])C([H])(OC([H])([H])[H])C1(O[H])C1(O[H])S(=O)C5([H])C([H])([H])C2(C([H])([H])[H])OC2([H])C3(O[H])C1([H])O[H])C([H])(O[H])C4([H])O[H]

$$$$
14:15:1
     RDKit          3D

106114  0  0  1  0  0  0  0  0999 V2000
    5.3021   -4.7878   -0.2122 C   0  0  0  0  0  0  0  0  0  0  0  0
    4.6863   -4.1398    0.9512 N   0  0  0  0  0  0  0  0  0  0  0  0
    4.9848   -4.3496    2.2386 C   0  0  0  0  0  0  0  0  0  0  0  0
    5.9767   -5.0059    2.5844 O   0  0  0  0  0  0  0  0  0  0  0  0
    4.2166   -3.5957    3.3380 C   0  0  1  0  0  0  0  0  0  0  0  0
    4.8573   -2.3435    3.1484 O   0  0  0  0  0  0  0  0  0  0  0  0
    2.7241   -3.2613    3.0824 C   0  0  0  0  0  0  0  0  0  0  0  0
    2.2154   -3.4173    1.9775 O   0  0  0  0  0  0  0  0  0  0  0  0
    1.8965   -2.6106    4.2209 C   0  0  2  0  0  0  0  0  0  0  0  0
    1.0221   -1.6975    3.5702 O   0  0  0  0  0  0  0  0  0  0  0  0
    2.6909   -1.5862    5.1656 C   0  0  0  0  0  0  0  0  0  0  0  0
    4.1653   -1.7528    5.7145 C   0  0  0  0  0  0  0  0  0  0  0  0
    4.7163   -3.1725    5.7323 C   0  0  0  0  0  0  0  0  0  0  0  0
    4.3775   -4.0966    4.8073 C   0  0  0  0  0  0  0  0  0  0  0  0
    3.8869   -5.4510    5.4836 C   0  0  2  0  0  0  0  0  0  0  0  0
    3.5681   -6.6955    4.7839 O   0  0  0  0  0  0  0  0  0  0  0  0
    4.2825   -7.9037    4.4439 C   0  0  2  0  0  0  0  0  0  0  0  0
    5.5734   -7.4698    4.0553 O   0  0  0  0  0  0  0  0  0  0  0  0
    3.6331   -8.6551    3.0222 C   0  0  1  0  0  0  0  0  0  0  0  0
    4.6237   -9.6922    2.4256 C   0  0  0  0  0  0  0  0  0  0  0  0
    2.2992   -9.3513    2.9202 O   0  0  0  0  0  0  0  0  0  0  0  0
    1.0282   -8.6202    2.7801 C   0  0  1  0  0  0  0  0  0  0  0  0
   -0.1348   -9.3573    3.0051 O   0  0  0  0  0  0  0  0  0  0  0  0
   -1.3369   -8.7166    2.6140 C   0  0  0  0  0  0  0  0  0  0  0  0
    1.3163   -7.4986    3.8058 C   0  0  1  0  0  0  0  0  0  0  0  0
    0.4838   -6.2557    4.3724 C   0  0  0  0  0  0  0  0  0  0  0  0
    1.1426   -5.1023    5.3955 C   0  0  2  0  0  0  0  0  0  0  0  0
    0.8150   -3.6312    4.8176 C   0  0  1  0  0  0  0  0  0  0  0  0
    0.0004   -2.9511    5.7692 O   0  0  0  0  0  0  0  0  0  0  0  0
    2.5270   -5.1522    6.3254 C   0  0  2  0  0  0  0  0  0  0  0  0
    2.3816   -3.8620    6.8643 O   0  0  0  0  0  0  0  0  0  0  0  0
    2.7489   -5.6366    7.8480 C   0  0  1  0  0  0  0  0  0  0  0  0
    2.9031   -4.9145    9.2304 C   0  0  1  0  0  0  0  0  0  0  0  0
    1.8079   -4.1751    9.7426 O   0  0  0  0  0  0  0  0  0  0  0  0
    3.1272   -6.3475    9.7918 C   0  0  1  0  0  0  0  0  0  0  0  0
    2.6639   -6.5112   11.1317 O   0  0  0  0  0  0  0  0  0  0  0  0
    2.7847   -7.8496   11.6047 C   0  0  0  0  0  0  0  0  0  0  0  0
    2.2346   -6.8745    8.6312 C   0  0  1  0  0  0  0  0  0  0  0  0
    0.8916   -6.7186    9.0769 O   0  0  0  0  0  0  0  0  0  0  0  0
    2.4799   -8.2080    7.8418 C   0  0  2  0  0  0  0  0  0  0  0  0
    2.2527   -9.3371    8.6760 O   0  0  0  0  0  0  0  0  0  0  0  0
    3.9665   -8.3075    7.1920 C   0  0  1  0  0  0  0  0  0  0  0  0
    4.6962   -8.9876    8.2291 O   0  0  0  0  0  0  0  0  0  0  0  0
    4.4602   -8.8510    5.7587 C   0  0  2  0  0  0  0  0  0  0  0  0
    5.8618   -8.9636    6.0278 O   0  0  0  0  0  0  0  0  0  0  0  0
    4.1764  -10.3091    5.5144 C   0  0  1  0  0  0  0  0  0  0  0  0
    3.4453  -10.9800    6.5320 O   0  0  0  0  0  0  0  0  0  0  0  0
    2.8376  -10.9099    5.2370 C   0  0  2  0  0  0  0  0  0  0  0  0
    2.7771  -12.2275    4.4901 C   0  0  0  0  0  0  0  0  0  0  0  0
    1.5204  -10.1642    5.2354 C   0  0  0  0  0  0  0  0  0  0  0  0
    1.4695   -8.5631    5.0830 C   0  0  1  0  0  0  0  0  0  0  0  0
    1.0568   -7.9256    6.7032 S   0  0  0  0  0  0  0  0  0  0  0  0
   -0.1600   -8.6921    7.2432 O   0  0  0  0  0  0  0  0  0  0  0  0
    2.2433   -6.7379    2.6709 C   0  0  2  0  0  0  0  0  0  0  0  0
    1.4941   -6.1617    1.6012 O   0  0  0  0  0  0  0  0  0  0  0  0
    3.2955   -7.6370    1.9718 C   0  0  1  0  0  0  0  0  0  0  0  0
    4.4182   -7.0862    1.3793 O   0  0  0  0  0  0  0  0  0  0  0  0
    4.5232   -5.3462   -0.7297 H   0  0  0  0  0  0  0  0  0  0  0  0
    6.0801   -5.5041    0.0651 H   0  0  0  0  0  0  0  0  0  0  0  0
    5.7295   -4.0845   -0.9240 H   0  0  0  0  0  0  0  0  0  0  0  0
    3.9308   -3.4859    0.7428 H   0  0  0  0  0  0  0  0  0  0  0  0
    4.6769   -2.0459    2.2698 H   0  0  0  0  0  0  0  0  0  0  0  0
    1.5426   -1.0648    3.0974 H   0  0  0  0  0  0  0  0  0  0  0  0
    2.7221   -0.6128    4.6658 H   0  0  0  0  0  0  0  0  0  0  0  0
    2.0502   -1.3894    6.0251 H   0  0  0  0  0  0  0  0  0  0  0  0
    4.8635   -1.0824    5.2159 H   0  0  0  0  0  0  0  0  0  0  0  0
    4.1770   -1.4166    6.7532 H   0  0  0  0  0  0  0  0  0  0  0  0
    4.8957   -3.5107    6.7402 H   0  0  0  0  0  0  0  0  0  0  0  0
    4.7538   -5.6980    6.0908 H   0  0  0  0  0  0  0  0  0  0  0  0
    6.0316   -8.2084    3.6847 H   0  0  0  0  0  0  0  0  0  0  0  0
    5.6387   -9.3280    2.2991 H   0  0  0  0  0  0  0  0  0  0  0  0
    4.2828   -9.9856    1.4243 H   0  0  0  0  0  0  0  0  0  0  0  0
    4.6609  -10.6226    2.9793 H   0  0  0  0  0  0  0  0  0  0  0  0
    0.8881   -8.3699    1.7301 H   0  0  0  0  0  0  0  0  0  0  0  0
   -2.1758   -9.3899    2.7957 H   0  0  0  0  0  0  0  0  0  0  0  0
   -1.3370   -8.4514    1.5537 H   0  0  0  0  0  0  0  0  0  0  0  0
   -1.5106   -7.8146    3.1963 H   0  0  0  0  0  0  0  0  0  0  0  0
    0.0518   -5.7608    3.5133 H   0  0  0  0  0  0  0  0  0  0  0  0
   -0.4180   -6.6275    4.8527 H   0  0  0  0  0  0  0  0  0  0  0  0
    0.4076   -5.1824    6.1979 H   0  0  0  0  0  0  0  0  0  0  0  0
    0.0967   -3.7761    4.0197 H   0  0  0  0  0  0  0  0  0  0  0  0
    0.5692   -2.7510    6.5007 H   0  0  0  0  0  0  0  0  0  0  0  0
    3.1302   -3.6527    7.3987 H   0  0  0  0  0  0  0  0  0  0  0  0
    3.8250   -5.6712    7.8144 H   0  0  0  0  0  0  0  0  0  0  0  0
    3.8158   -4.3167    9.3238 H   0  0  0  0  0  0  0  0  0  0  0  0
    2.0578   -3.8919   10.6108 H   0  0  0  0  0  0  0  0  0  0  0  0
    4.1737   -6.6326    9.6985 H   0  0  0  0  0  0  0  0  0  0  0  0
    2.4218   -7.9467   12.6260 H   0  0  0  0  0  0  0  0  0  0  0  0
    3.8174   -8.1935   11.5692 H   0  0  0  0  0  0  0  0  0  0  0  0
    2.1764   -8.5306   11.0168 H   0  0  0  0  0  0  0  0  0  0  0  0
    0.9199   -5.9031    9.5619 H   0  0  0  0  0  0  0  0  0  0  0  0
    2.1371  -10.1099    8.1297 H   0  0  0  0  0  0  0  0  0  0  0  0
    4.4928   -7.3842    7.2776 H   0  0  0  0  0  0  0  0  0  0  0  0
    4.3189   -9.8599    8.2974 H   0  0  0  0  0  0  0  0  0  0  0  0
    6.2911   -9.4019    5.3126 H   0  0  0  0  0  0  0  0  0  0  0  0
    5.0143  -10.8968    5.1400 H   0  0  0  0  0  0  0  0  0  0  0  0
    2.6009  -12.0738    3.4245 H   0  0  0  0  0  0  0  0  0  0  0  0
    1.9796  -12.8443    4.8896 H   0  0  0  0  0  0  0  0  0  0  0  0
    3.7177  -12.7709    4.6038 H   0  0  0  0  0  0  0  0  0  0  0  0
    0.8994  -10.6728    4.5110 H   0  0  0  0  0  0  0  0  0  0  0  0
    1.0374  -10.4632    6.1655 H   0  0  0  0  0  0  0  0  0  0  0  0
    0.3877   -8.6759    5.0546 H   0  0  0  0  0  0  0  0  0  0  0  0
    2.7013   -5.8400    3.0321 H   0  0  0  0  0  0  0  0  0  0  0  0
    2.1282   -5.7368    1.0345 H   0  0  0  0  0  0  0  0  0  0  0  0
    2.8517   -8.1475    1.1020 H   0  0  0  0  0  0  0  0  0  0  0  0
    4.9196   -7.7947    1.0035 H   0  0  0  0  0  0  0  0  0  0  0  0
  1  2  1  0
  1 58  1  0
  1 59  1  0
  1 60  1  0
  2  3  1  0
  2 61  1  0
  3  4  2  0
  3  5  1  0
  5 14  1  0
  5  6  1  1
  5  7  1  0
  6 62  1  0
  7  8  2  0
  7  9  1  0
  9 28  1  0
  9 10  1  6
  9 11  1  0
 10 63  1  0
 11 12  1  0
 11 64  1  0
 11 65  1  0
 12 13  1  0
 12 66  1  0
 12 67  1  0
 13 14  2  0
 13 68  1  0
 14 15  1  0
 15 30  1  0
 15 16  1  0
 15 69  1  1
 16 17  1  0
 17 44  1  0
 17 18  1  6
 17 19  1  0
 18 70  1  0
 19 56  1  0
 19 20  1  6
 19 21  1  0
 20 71  1  0
 20 72  1  0
 20 73  1  0
 21 22  1  0
 22 23  1  0
 22 25  1  0
 22 74  1  6
 23 24  1  0
 24 75  1  0
 24 76  1  0
 24 77  1  0
 25 51  1  0
 25 26  1  1
 25 54  1  0
 26 27  1  0
 26 78  1  0
 26 79  1  0
 27 28  1  0
 27 30  1  0
 27 80  1  1
 28 29  1  0
 28 81  1  6
 29 82  1  0
 30 31  1  1
 30 32  1  0
 31 83  1  0
 32 38  1  0
 32 33  1  0
 32 84  1  6
 33 34  1  0
 33 35  1  0
 33 85  1  6
 34 86  1  0
 35 36  1  0
 35 38  1  0
 35 87  1  1
 36 37  1  0
 37 88  1  0
 37 89  1  0
 37 90  1  0
 38 39  1  1
 38 40  1  0
 39 91  1  0
 52 40  1  1
 40 41  1  1
 40 42  1  0
 41 92  1  0
 42 43  1  0
 42 44  1  0
 42 93  1  6
 43 94  1  0
 44 45  1  1
 44 46  1  0
 45 95  1  0
 46 48  1  0
 46 47  1  0
 46 96  1  6
 47 48  1  0
 48 49  1  6
 48 50  1  0
 49 97  1  0
 49 98  1  0
 49 99  1  0
 50 51  1  0
 50100  1  0
 50101  1  0
 51 52  1  0
 51102  1  1
 52 53  2  0
 54 55  1  0
 54 56  1  0
 54103  1  1
 55104  1  0
 56 57  1  0
 56105  1  6
 57106  1  0
M  END
>  <i_m_ct_stereo_status>  (45) 
1

>  <s_m_source_file>  (45) 
/var/tmp/pbs.5075288.sched01/tmpzl_yb0kw/0ymjshsm9.sdf

>  <i_m_source_file_index>  (45) 
63

>  <i_lp_mmshare_version>  (45) 
48012

>  <i_f3d_flags>  (45) 
0

>  <s_epik_input>  (45) 
W09IXVtDQEhdMVtDQEBIXShPW0NIM10pW0NAXShbT0hdKShbQ0BAXShbT0hdKShbUytdMltPLV0pW0NASF0zW09IXSlbQ0BIXTFbQ0BdNChbT0hdKVtDQEhdKFtDSDJdNSlbQ0BASF0oW09IXSlbQ0BdKFtPSF0pKEMoPU8pW0NAXTYoW09IXSlDKD1PKVtOSF1bQ0gzXSlbQ0gyXVtDSDJdW0NIXT1DNltDQEBIXTRPW0NAXShbT0hdKShbQ0BdKFtDSDNdKShbQ0BIXShbT0hdKVtDQEBIXTdbT0hdKU9bQ0BIXThPW0NIM10pW0NAXTMoW09IXSlbQ0BASF0oTzkpW0NAXTkoW0NIM10pW0NIMl1bQ0BASF0yQzU3OA==

>  <s_epik_cmdline>  (45) 
J2VwaWtfcHl0aG9uJywgJy1waHQnLCAnMi4wJywgJy1waCcsICc3LjAnLCAnLXRuJywgJzgnLCAnLW1hJywgJzIwMCcsICctaW1hZScsICc8aW5maWxlLm1hZT4nLCAnLW9tYWUnLCAnPG91dGZpbGUubWFlPic=

>  <r_lp_tautomer_probability>  (45) 
1

>  <r_epik_Ionization_Penalty>  (45) 
1.40957e-05

>  <r_epik_Ionization_Penalty_Charging>  (45) 
0

>  <r_epik_Ionization_Penalty_Neutral>  (45) 
1.40957e-05

>  <r_epik_State_Penalty>  (45) 
0

>  <r_epik_Charging_Adjusted_Penalty>  (45) 
0

>  <i_epik_Tot_Q>  (45) 
0

>  <i_epik_Tot_abs_Q>  (45) 
2

>  <s_epik_Chemistry_Notes>  (45) 
This compound contains an acetal/aminal-like group ( X-CH(R)-Y where X, Y are N, S, or O) that may be acid/base labile, releasing an aldehyde.

>  <s_lp_Force_Field>  (45) 
OPLS3e

>  <r_lp_Energy>  (45) 
520.486

>  <b_lp_Chiralities_Consistent>  (45) 
1

>  <s_lp_Variant>  (45) 
14:0-16

>  <s_i_glide_gridfile>  (45) 
pfpi4k_grid

>  <i_i_glide_lignum>  (45) 
63

>  <i_i_glide_rotatable_bonds>  (45) 
16

>  <r_i_docking_score>  (45) 
-4.1771

>  <r_i_glide_ligand_efficiency>  (45) 
-0.0732824

>  <r_i_glide_ligand_efficiency_sa>  (45) 
-0.282027

>  <r_i_glide_ligand_efficiency_ln>  (45) 
-0.828287

>  <r_i_glide_gscore>  (45) 
-4.1771

>  <r_i_glide_lipo>  (45) 
-0.0968334

>  <r_i_glide_hbond>  (45) 
0

>  <r_i_glide_metal>  (45) 
-0

>  <r_i_glide_rewards>  (45) 
-2.03411

>  <r_i_glide_evdw>  (45) 
-32.3971

>  <r_i_glide_ecoul>  (45) 
-2.82753

>  <r_i_glide_erotb>  (45) 
0.0313225

>  <r_i_glide_esite>  (45) 
-0.0334917

>  <r_i_glide_emodel>  (45) 
-59.0022

>  <r_i_glide_energy>  (45) 
-35.2246

>  <r_i_glide_einternal>  (45) 
10.8086

>  <r_i_glide_intrahb_reward>  (45) 
-2

>  <i_i_glide_confnum>  (45) 
4

>  <i_i_glide_posenum>  (45) 
30

>  <r_i_glide_eff_state_penalty>  (45) 
0

>  <ligand_id>  (45) 
14

>  <original_smiles>  (45) 
CNC(=O)C1(O)C(=O)C2(O)CCC=C1C1OC3(O)C4(C)OC(OC)C5(CC(C2O)C1(O)C1C(O)C(OC)C1(O)C1(O)C(O)C3(O)C2OC2(C)CC5[S+]1[O-])C(O)C4O

>  <smiles>  (45) 
[H]OC1(C(=O)N([H])C([H])([H])[H])C(=O)C2(O[H])C([H])([H])C([H])([H])C([H])=C1C1([H])OC3(O[H])C4(C([H])([H])[H])OC([H])(OC([H])([H])[H])C5(C([H])([H])C([H])(C2([H])O[H])C1(O[H])C1([H])C([H])(O[H])C([H])(OC([H])([H])[H])C1(O[H])C1(O[H])S(=O)C5([H])C([H])([H])C2(C([H])([H])[H])OC2([H])C3(O[H])C1([H])O[H])C([H])(O[H])C4([H])O[H]

$$$$
14:15:2
     RDKit          3D

106114  0  0  1  0  0  0  0  0999 V2000
    7.0305   -6.0701    1.1071 C   0  0  0  0  0  0  0  0  0  0  0  0
    6.2438   -5.2091    1.9883 N   0  0  0  0  0  0  0  0  0  0  0  0
    5.1831   -4.4648    1.6368 C   0  0  0  0  0  0  0  0  0  0  0  0
    4.7819   -4.3873    0.4733 O   0  0  0  0  0  0  0  0  0  0  0  0
    4.6079   -3.5624    2.7415 C   0  0  1  0  0  0  0  0  0  0  0  0
    5.3310   -2.3959    2.3817 O   0  0  0  0  0  0  0  0  0  0  0  0
    3.1453   -3.0892    2.6020 C   0  0  0  0  0  0  0  0  0  0  0  0
    2.5072   -3.2664    1.5659 O   0  0  0  0  0  0  0  0  0  0  0  0
    2.5069   -2.2764    3.7640 C   0  0  2  0  0  0  0  0  0  0  0  0
    1.6442   -1.3134    3.1607 O   0  0  0  0  0  0  0  0  0  0  0  0
    3.4957   -1.2813    4.5488 C   0  0  0  0  0  0  0  0  0  0  0  0
    4.9970   -1.5795    4.9576 C   0  0  0  0  0  0  0  0  0  0  0  0
    5.3981   -3.0458    5.0397 C   0  0  0  0  0  0  0  0  0  0  0  0
    4.8717   -3.9837    4.2194 C   0  0  0  0  0  0  0  0  0  0  0  0
    4.2937   -5.2213    5.0268 C   0  0  2  0  0  0  0  0  0  0  0  0
    3.7627   -6.4583    4.4534 O   0  0  0  0  0  0  0  0  0  0  0  0
    4.2960   -7.7662    4.1305 C   0  0  2  0  0  0  0  0  0  0  0  0
    5.5525   -7.5047    3.5614 O   0  0  0  0  0  0  0  0  0  0  0  0
    3.4202   -8.5197    2.8402 C   0  0  1  0  0  0  0  0  0  0  0  0
    4.2224   -9.7022    2.2260 C   0  0  0  0  0  0  0  0  0  0  0  0
    2.0152   -9.0822    2.9240 O   0  0  0  0  0  0  0  0  0  0  0  0
    0.8304   -8.2113    2.8768 C   0  0  1  0  0  0  0  0  0  0  0  0
   -0.3849   -8.7575    3.2936 O   0  0  0  0  0  0  0  0  0  0  0  0
   -0.9560   -9.6763    2.3766 C   0  0  0  0  0  0  0  0  0  0  0  0
    1.3571   -7.0753    3.7779 C   0  0  1  0  0  0  0  0  0  0  0  0
    0.7193   -5.7139    4.3342 C   0  0  0  0  0  0  0  0  0  0  0  0
    1.6082   -4.5791    5.2015 C   0  0  2  0  0  0  0  0  0  0  0  0
    1.3894   -3.1229    4.5437 C   0  0  1  0  0  0  0  0  0  0  0  0
    0.7556   -2.2727    5.4939 O   0  0  0  0  0  0  0  0  0  0  0  0
    3.0792   -4.7229    5.9768 C   0  0  2  0  0  0  0  0  0  0  0  0
    3.1618   -3.4043    6.4471 O   0  0  0  0  0  0  0  0  0  0  0  0
    3.4376   -5.1290    7.4991 C   0  0  1  0  0  0  0  0  0  0  0  0
    3.8122   -4.3266    8.7927 C   0  0  1  0  0  0  0  0  0  0  0  0
    2.8585   -3.4314    9.3393 O   0  0  0  0  0  0  0  0  0  0  0  0
    3.9523   -5.7299    9.4511 C   0  0  1  0  0  0  0  0  0  0  0  0
    3.5747   -5.7799   10.8288 O   0  0  0  0  0  0  0  0  0  0  0  0
    4.5608   -5.2735   11.7211 C   0  0  0  0  0  0  0  0  0  0  0  0
    2.8893   -6.2388    8.4341 C   0  0  1  0  0  0  0  0  0  0  0  0
    1.6216   -5.9107    9.0038 O   0  0  0  0  0  0  0  0  0  0  0  0
    2.9184   -7.6419    7.7327 C   0  0  2  0  0  0  0  0  0  0  0  0
    2.6701   -8.6311    8.7199 O   0  0  0  0  0  0  0  0  0  0  0  0
    4.2969   -7.9691    6.9354 C   0  0  1  0  0  0  0  0  0  0  0  0
    5.0775   -8.7050    7.8902 O   0  0  0  0  0  0  0  0  0  0  0  0
    4.5284   -8.6444    5.4872 C   0  0  2  0  0  0  0  0  0  0  0  0
    5.9317   -8.9227    5.5729 O   0  0  0  0  0  0  0  0  0  0  0  0
    4.0638  -10.0797    5.3885 C   0  0  1  0  0  0  0  0  0  0  0  0
    3.3983  -10.5907    6.5305 O   0  0  0  0  0  0  0  0  0  0  0  0
    2.6515  -10.5408    5.3091 C   0  0  2  0  0  0  0  0  0  0  0  0
    2.3612  -11.8916    4.6777 C   0  0  0  0  0  0  0  0  0  0  0  0
    1.4305   -9.6499    5.3823 C   0  0  0  0  0  0  0  0  0  0  0  0
    1.5384   -8.0742    5.1133 C   0  0  1  0  0  0  0  0  0  0  0  0
    1.4050   -7.2953    6.7237 S   0  0  0  0  0  0  0  0  0  0  0  0
    0.1918   -7.8554    7.4590 O   0  0  0  0  0  0  0  0  0  0  0  0
    2.2171   -6.4815    2.4896 C   0  0  2  0  0  0  0  0  0  0  0  0
    1.4181   -5.8763    1.4728 O   0  0  0  0  0  0  0  0  0  0  0  0
    3.0943   -7.5188    1.7639 C   0  0  1  0  0  0  0  0  0  0  0  0
    4.2082   -7.1020    1.0499 O   0  0  0  0  0  0  0  0  0  0  0  0
    8.0820   -5.7848    1.1157 H   0  0  0  0  0  0  0  0  0  0  0  0
    6.6718   -6.0461    0.0800 H   0  0  0  0  0  0  0  0  0  0  0  0
    6.9796   -7.1107    1.4300 H   0  0  0  0  0  0  0  0  0  0  0  0
    6.4971   -5.2012    2.9673 H   0  0  0  0  0  0  0  0  0  0  0  0
    5.0675   -2.1672    1.4978 H   0  0  0  0  0  0  0  0  0  0  0  0
    2.1590   -0.7889    2.5642 H   0  0  0  0  0  0  0  0  0  0  0  0
    3.5747   -0.3506    3.9772 H   0  0  0  0  0  0  0  0  0  0  0  0
    2.9793   -0.9663    5.4574 H   0  0  0  0  0  0  0  0  0  0  0  0
    5.6999   -1.0210    4.3384 H   0  0  0  0  0  0  0  0  0  0  0  0
    5.1556   -1.1747    5.9574 H   0  0  0  0  0  0  0  0  0  0  0  0
    5.6017   -3.3313    6.0573 H   0  0  0  0  0  0  0  0  0  0  0  0
    5.1857   -5.5352    5.5567 H   0  0  0  0  0  0  0  0  0  0  0  0
    5.4009   -7.1894    2.6786 H   0  0  0  0  0  0  0  0  0  0  0  0
    5.2517   -9.4592    1.9779 H   0  0  0  0  0  0  0  0  0  0  0  0
    3.7468  -10.0133    1.2934 H   0  0  0  0  0  0  0  0  0  0  0  0
    4.2300  -10.5889    2.8484 H   0  0  0  0  0  0  0  0  0  0  0  0
    0.5817   -7.9788    1.8416 H   0  0  0  0  0  0  0  0  0  0  0  0
   -1.8415  -10.1086    2.8282 H   0  0  0  0  0  0  0  0  0  0  0  0
   -0.2758  -10.4885    2.1097 H   0  0  0  0  0  0  0  0  0  0  0  0
   -1.2938   -9.1695    1.4724 H   0  0  0  0  0  0  0  0  0  0  0  0
    0.2451   -5.2222    3.4901 H   0  0  0  0  0  0  0  0  0  0  0  0
   -0.1678   -5.9600    4.9233 H   0  0  0  0  0  0  0  0  0  0  0  0
    0.9539   -4.5188    6.0780 H   0  0  0  0  0  0  0  0  0  0  0  0
    0.5775   -3.2387    3.8315 H   0  0  0  0  0  0  0  0  0  0  0  0
    0.6329   -1.4433    5.0476 H   0  0  0  0  0  0  0  0  0  0  0  0
    2.4910   -3.2667    7.1086 H   0  0  0  0  0  0  0  0  0  0  0  0
    4.4872   -5.2881    7.3487 H   0  0  0  0  0  0  0  0  0  0  0  0
    4.7778   -3.8203    8.7346 H   0  0  0  0  0  0  0  0  0  0  0  0
    3.2399   -3.0851   10.1343 H   0  0  0  0  0  0  0  0  0  0  0  0
    4.9290   -6.1830    9.2806 H   0  0  0  0  0  0  0  0  0  0  0  0
    4.2160   -5.3745   12.7502 H   0  0  0  0  0  0  0  0  0  0  0  0
    4.7559   -4.2169   11.5445 H   0  0  0  0  0  0  0  0  0  0  0  0
    5.5012   -5.8182   11.6374 H   0  0  0  0  0  0  0  0  0  0  0  0
    1.7704   -5.0870    9.4541 H   0  0  0  0  0  0  0  0  0  0  0  0
    2.5979   -9.4711    8.2805 H   0  0  0  0  0  0  0  0  0  0  0  0
    4.9082   -7.0947    6.8859 H   0  0  0  0  0  0  0  0  0  0  0  0
    4.5736   -9.4845    8.1154 H   0  0  0  0  0  0  0  0  0  0  0  0
    6.0601   -9.4055    6.3794 H   0  0  0  0  0  0  0  0  0  0  0  0
    4.7819  -10.7740    4.9692 H   0  0  0  0  0  0  0  0  0  0  0  0
    2.0828  -11.7840    3.6279 H   0  0  0  0  0  0  0  0  0  0  0  0
    1.5575  -12.3919    5.2063 H   0  0  0  0  0  0  0  0  0  0  0  0
    3.2449  -12.5297    4.7225 H   0  0  0  0  0  0  0  0  0  0  0  0
    0.6734  -10.1201    4.7681 H   0  0  0  0  0  0  0  0  0  0  0  0
    1.0284   -9.8271    6.3791 H   0  0  0  0  0  0  0  0  0  0  0  0
    0.4536   -8.0462    5.2197 H   0  0  0  0  0  0  0  0  0  0  0  0
    2.7963   -5.6213    2.7462 H   0  0  0  0  0  0  0  0  0  0  0  0
    2.0118   -5.5083    0.8271 H   0  0  0  0  0  0  0  0  0  0  0  0
    2.5316   -8.0318    0.9824 H   0  0  0  0  0  0  0  0  0  0  0  0
    3.9387   -6.5922    0.2952 H   0  0  0  0  0  0  0  0  0  0  0  0
  1  2  1  0
  1 58  1  0
  1 59  1  0
  1 60  1  0
  2  3  1  0
  2 61  1  0
  3  4  2  0
  3  5  1  0
  5 14  1  0
  5  6  1  1
  5  7  1  0
  6 62  1  0
  7  8  2  0
  7  9  1  0
  9 28  1  0
  9 10  1  6
  9 11  1  0
 10 63  1  0
 11 12  1  0
 11 64  1  0
 11 65  1  0
 12 13  1  0
 12 66  1  0
 12 67  1  0
 13 14  2  0
 13 68  1  0
 14 15  1  0
 15 30  1  0
 15 16  1  0
 15 69  1  1
 16 17  1  0
 17 44  1  0
 17 18  1  6
 17 19  1  0
 18 70  1  0
 19 56  1  0
 19 20  1  6
 19 21  1  0
 20 71  1  0
 20 72  1  0
 20 73  1  0
 21 22  1  0
 22 23  1  0
 22 25  1  0
 22 74  1  6
 23 24  1  0
 24 75  1  0
 24 76  1  0
 24 77  1  0
 25 51  1  0
 25 26  1  1
 25 54  1  0
 26 27  1  0
 26 78  1  0
 26 79  1  0
 27 28  1  0
 27 30  1  0
 27 80  1  1
 28 29  1  0
 28 81  1  6
 29 82  1  0
 30 31  1  1
 30 32  1  0
 31 83  1  0
 32 38  1  0
 32 33  1  0
 32 84  1  6
 33 34  1  0
 33 35  1  0
 33 85  1  6
 34 86  1  0
 35 36  1  0
 35 38  1  0
 35 87  1  1
 36 37  1  0
 37 88  1  0
 37 89  1  0
 37 90  1  0
 38 39  1  1
 38 40  1  0
 39 91  1  0
 52 40  1  1
 40 41  1  1
 40 42  1  0
 41 92  1  0
 42 43  1  0
 42 44  1  0
 42 93  1  6
 43 94  1  0
 44 45  1  1
 44 46  1  0
 45 95  1  0
 46 48  1  0
 46 47  1  0
 46 96  1  6
 47 48  1  0
 48 49  1  6
 48 50  1  0
 49 97  1  0
 49 98  1  0
 49 99  1  0
 50 51  1  0
 50100  1  0
 50101  1  0
 51 52  1  0
 51102  1  6
 52 53  2  0
 54 55  1  0
 54 56  1  0
 54103  1  1
 55104  1  0
 56 57  1  0
 56105  1  6
 57106  1  0
M  END
>  <i_m_ct_stereo_status>  (46) 
1

>  <s_m_source_file>  (46) 
/var/tmp/pbs.5075288.sched01/tmpzl_yb0kw/0ymjshsm9.sdf

>  <i_m_source_file_index>  (46) 
63

>  <i_lp_mmshare_version>  (46) 
48012

>  <i_f3d_flags>  (46) 
0

>  <s_epik_input>  (46) 
W09IXVtDQEhdMVtDQEBIXShPW0NIM10pW0NAXShbT0hdKShbQ0BAXShbT0hdKShbUytdMltPLV0pW0NASF0zW09IXSlbQ0BIXTFbQ0BdNChbT0hdKVtDQEhdKFtDSDJdNSlbQ0BASF0oW09IXSlbQ0BdKFtPSF0pKEMoPU8pW0NAXTYoW09IXSlDKD1PKVtOSF1bQ0gzXSlbQ0gyXVtDSDJdW0NIXT1DNltDQEBIXTRPW0NAXShbT0hdKShbQ0BdKFtDSDNdKShbQ0BIXShbT0hdKVtDQEBIXTdbT0hdKU9bQ0BIXThPW0NIM10pW0NAXTMoW09IXSlbQ0BASF0oTzkpW0NAXTkoW0NIM10pW0NIMl1bQ0BASF0yQzU3OA==

>  <s_epik_cmdline>  (46) 
J2VwaWtfcHl0aG9uJywgJy1waHQnLCAnMi4wJywgJy1waCcsICc3LjAnLCAnLXRuJywgJzgnLCAnLW1hJywgJzIwMCcsICctaW1hZScsICc8aW5maWxlLm1hZT4nLCAnLW9tYWUnLCAnPG91dGZpbGUubWFlPic=

>  <r_lp_tautomer_probability>  (46) 
1

>  <r_epik_Ionization_Penalty>  (46) 
1.40957e-05

>  <r_epik_Ionization_Penalty_Charging>  (46) 
0

>  <r_epik_Ionization_Penalty_Neutral>  (46) 
1.40957e-05

>  <r_epik_State_Penalty>  (46) 
0

>  <r_epik_Charging_Adjusted_Penalty>  (46) 
0

>  <i_epik_Tot_Q>  (46) 
0

>  <i_epik_Tot_abs_Q>  (46) 
2

>  <s_epik_Chemistry_Notes>  (46) 
This compound contains an acetal/aminal-like group ( X-CH(R)-Y where X, Y are N, S, or O) that may be acid/base labile, releasing an aldehyde.

>  <s_lp_Force_Field>  (46) 
OPLS3e

>  <r_lp_Energy>  (46) 
520.486

>  <b_lp_Chiralities_Consistent>  (46) 
1

>  <s_lp_Variant>  (46) 
14:0-16

>  <s_i_glide_gridfile>  (46) 
pfpi4k_grid

>  <i_i_glide_lignum>  (46) 
63

>  <i_i_glide_rotatable_bonds>  (46) 
16

>  <r_i_docking_score>  (46) 
-4.02863

>  <r_i_glide_ligand_efficiency>  (46) 
-0.0706777

>  <r_i_glide_ligand_efficiency_sa>  (46) 
-0.272003

>  <r_i_glide_ligand_efficiency_ln>  (46) 
-0.798847

>  <r_i_glide_gscore>  (46) 
-4.02863

>  <r_i_glide_lipo>  (46) 
-0.388908

>  <r_i_glide_hbond>  (46) 
0

>  <r_i_glide_metal>  (46) 
-0

>  <r_i_glide_rewards>  (46) 
-1.54734

>  <r_i_glide_evdw>  (46) 
-30.2456

>  <r_i_glide_ecoul>  (46) 
-3.87217

>  <r_i_glide_erotb>  (46) 
0.0313225

>  <r_i_glide_esite>  (46) 
-0.0305913

>  <r_i_glide_emodel>  (46) 
-54.7061

>  <r_i_glide_energy>  (46) 
-34.1178

>  <r_i_glide_einternal>  (46) 
6.86708

>  <r_i_glide_intrahb_reward>  (46) 
-1.5

>  <i_i_glide_confnum>  (46) 
4

>  <i_i_glide_posenum>  (46) 
1

>  <r_i_glide_eff_state_penalty>  (46) 
0

>  <ligand_id>  (46) 
14

>  <original_smiles>  (46) 
CNC(=O)C1(O)C(=O)C2(O)CCC=C1C1OC3(O)C4(C)OC(OC)C5(CC(C2O)C1(O)C1C(O)C(OC)C1(O)C1(O)C(O)C3(O)C2OC2(C)CC5[S+]1[O-])C(O)C4O

>  <smiles>  (46) 
[H]OC1(C(=O)N([H])C([H])([H])[H])C(=O)C2(O[H])C([H])([H])C([H])([H])C([H])=C1C1([H])OC3(O[H])C4(C([H])([H])[H])OC([H])(OC([H])([H])[H])C5(C([H])([H])C([H])(C2([H])O[H])C1(O[H])C1([H])C([H])(O[H])C([H])(OC([H])([H])[H])C1(O[H])C1(O[H])S(=O)C5([H])C([H])([H])C2(C([H])([H])[H])OC2([H])C3(O[H])C1([H])O[H])C([H])(O[H])C4([H])O[H]

$$$$
14:16:0
     RDKit          3D

106114  0  0  1  0  0  0  0  0999 V2000
    6.0418    4.2379    6.0387 C   0  0  0  0  0  0  0  0  0  0  0  0
    4.6880    3.7248    6.2570 N   0  0  0  0  0  0  0  0  0  0  0  0
    3.6445    3.9273    5.4538 C   0  0  0  0  0  0  0  0  0  0  0  0
    3.7818    4.1780    4.2488 O   0  0  0  0  0  0  0  0  0  0  0  0
    2.2687    4.0159    6.1725 C   0  0  1  0  0  0  0  0  0  0  0  0
    2.4477    5.2763    6.8050 O   0  0  0  0  0  0  0  0  0  0  0  0
    1.0470    4.2438    5.2502 C   0  0  0  0  0  0  0  0  0  0  0  0
    1.1370    5.0069    4.2822 O   0  0  0  0  0  0  0  0  0  0  0  0
   -0.3597    3.6907    5.6193 C   0  0  2  0  0  0  0  0  0  0  0  0
   -1.2618    4.4743    4.8229 O   0  0  0  0  0  0  0  0  0  0  0  0
   -0.8358    4.1725    7.0684 C   0  0  0  0  0  0  0  0  0  0  0  0
    0.1673    4.4509    8.2485 C   0  0  0  0  0  0  0  0  0  0  0  0
    1.2412    3.3920    8.3647 C   0  0  0  0  0  0  0  0  0  0  0  0
    1.9103    2.9674    7.2604 C   0  0  0  0  0  0  0  0  0  0  0  0
    2.1407    1.4434    7.0746 C   0  0  2  0  0  0  0  0  0  0  0  0
    3.2606    1.2538    6.1165 O   0  0  0  0  0  0  0  0  0  0  0  0
    4.2825    0.2726    5.7016 C   0  0  2  0  0  0  0  0  0  0  0  0
    5.4490    0.9344    6.1687 O   0  0  0  0  0  0  0  0  0  0  0  0
    4.3945    0.2435    3.9737 C   0  0  2  0  0  0  0  0  0  0  0  0
    5.8648   -0.2625    3.7284 C   0  0  0  0  0  0  0  0  0  0  0  0
    3.4049   -0.6436    4.2029 O   0  0  0  0  0  0  0  0  0  0  0  0
    2.1572   -0.0843    4.3463 C   0  0  1  0  0  0  0  0  0  0  0  0
    1.9858    1.3524    4.1110 O   0  0  0  0  0  0  0  0  0  0  0  0
    1.8967    2.1106    2.8936 C   0  0  0  0  0  0  0  0  0  0  0  0
    1.3625   -0.9188    3.5948 C   0  0  2  0  0  0  0  0  0  0  0  0
   -0.0248   -0.2775    4.1307 C   0  0  0  0  0  0  0  0  0  0  0  0
   -0.1795    0.7353    5.4581 C   0  0  2  0  0  0  0  0  0  0  0  0
   -0.7401    2.2098    5.0494 C   0  0  1  0  0  0  0  0  0  0  0  0
   -2.1663    2.1040    5.1636 O   0  0  0  0  0  0  0  0  0  0  0  0
    0.6522    0.6676    6.8911 C   0  0  2  0  0  0  0  0  0  0  0  0
   -0.3328    1.4109    7.5730 O   0  0  0  0  0  0  0  0  0  0  0  0
    0.2766   -0.4709    7.9974 C   0  0  2  0  0  0  0  0  0  0  0  0
    0.7142   -0.2813    9.4832 C   0  0  1  0  0  0  0  0  0  0  0  0
   -0.1623    0.4371   10.3237 O   0  0  0  0  0  0  0  0  0  0  0  0
    0.7742   -1.7882    9.6792 C   0  0  1  0  0  0  0  0  0  0  0  0
   -0.3606   -2.2519   10.4183 O   0  0  0  0  0  0  0  0  0  0  0  0
   -0.1642   -3.5397   10.9969 C   0  0  0  0  0  0  0  0  0  0  0  0
    0.6308   -1.9933    8.1412 C   0  0  1  0  0  0  0  0  0  0  0  0
   -0.4850   -2.8618    7.9705 O   0  0  0  0  0  0  0  0  0  0  0  0
    1.8108   -2.5667    7.2917 C   0  0  2  0  0  0  0  0  0  0  0  0
    2.0986   -3.8350    7.8819 O   0  0  0  0  0  0  0  0  0  0  0  0
    3.0726   -1.5991    7.4501 C   0  0  1  0  0  0  0  0  0  0  0  0
    3.5857   -1.9760    8.7240 O   0  0  0  0  0  0  0  0  0  0  0  0
    4.2746   -1.2428    6.4581 C   0  0  2  0  0  0  0  0  0  0  0  0
    5.3778   -1.1989    7.3821 O   0  0  0  0  0  0  0  0  0  0  0  0
    4.7892   -2.4360    5.6404 C   0  0  1  0  0  0  0  0  0  0  0  0
    4.1375   -3.6804    5.9235 O   0  0  0  0  0  0  0  0  0  0  0  0
    4.2182   -3.3323    4.5474 C   0  0  2  0  0  0  0  0  0  0  0  0
    5.2146   -4.1635    3.7674 C   0  0  0  0  0  0  0  0  0  0  0  0
    2.8896   -3.3500    3.7867 C   0  0  0  0  0  0  0  0  0  0  0  0
    1.6609   -2.4129    4.0763 C   0  0  1  0  0  0  0  0  0  0  0  0
    0.8973   -2.8512    5.6695 S   0  0  0  0  0  0  0  0  0  0  0  0
    0.4672   -4.3072    5.5823 O   0  0  0  0  0  0  0  0  0  0  0  0
    2.1213   -0.6548    2.2141 C   0  0  2  0  0  0  0  0  0  0  0  0
    1.9627   -1.7629    1.3184 O   0  0  0  0  0  0  0  0  0  0  0  0
    3.7412   -0.4118    2.5069 C   0  0  1  0  0  0  0  0  0  0  0  0
    4.1663    0.3521    1.3956 O   0  0  0  0  0  0  0  0  0  0  0  0
    6.7941    3.4887    6.2906 H   0  0  0  0  0  0  0  0  0  0  0  0
    6.2092    5.1061    6.6801 H   0  0  0  0  0  0  0  0  0  0  0  0
    6.2298    4.5893    5.0188 H   0  0  0  0  0  0  0  0  0  0  0  0
    4.4916    3.3422    7.1809 H   0  0  0  0  0  0  0  0  0  0  0  0
    3.2342    5.2118    7.3212 H   0  0  0  0  0  0  0  0  0  0  0  0
   -1.0069    4.3260    3.9223 H   0  0  0  0  0  0  0  0  0  0  0  0
   -1.3466    5.1354    6.9676 H   0  0  0  0  0  0  0  0  0  0  0  0
   -1.6295    3.5173    7.4297 H   0  0  0  0  0  0  0  0  0  0  0  0
    0.5688    5.4672    8.1996 H   0  0  0  0  0  0  0  0  0  0  0  0
   -0.3752    4.4475    9.1942 H   0  0  0  0  0  0  0  0  0  0  0  0
    1.0405    2.7071    9.1688 H   0  0  0  0  0  0  0  0  0  0  0  0
    2.5461    1.2581    8.0600 H   0  0  0  0  0  0  0  0  0  0  0  0
    5.5313    1.7361    5.6820 H   0  0  0  0  0  0  0  0  0  0  0  0
    6.2957    0.3169    2.9204 H   0  0  0  0  0  0  0  0  0  0  0  0
    5.9025   -1.3115    3.4259 H   0  0  0  0  0  0  0  0  0  0  0  0
    6.5932   -0.1995    4.5353 H   0  0  0  0  0  0  0  0  0  0  0  0
    2.0133   -0.4138    5.3468 H   0  0  0  0  0  0  0  0  0  0  0  0
    2.8423    2.1721    2.3760 H   0  0  0  0  0  0  0  0  0  0  0  0
    1.0441    1.8832    2.2553 H   0  0  0  0  0  0  0  0  0  0  0  0
    1.7100    3.1349    3.1120 H   0  0  0  0  0  0  0  0  0  0  0  0
   -0.4493    0.2455    3.2814 H   0  0  0  0  0  0  0  0  0  0  0  0
   -0.7335   -1.0943    4.2728 H   0  0  0  0  0  0  0  0  0  0  0  0
   -1.0968    0.2472    5.8113 H   0  0  0  0  0  0  0  0  0  0  0  0
   -0.5379    2.2856    3.9851 H   0  0  0  0  0  0  0  0  0  0  0  0
   -2.4757    1.5782    4.4406 H   0  0  0  0  0  0  0  0  0  0  0  0
   -0.2939    2.3175    7.3133 H   0  0  0  0  0  0  0  0  0  0  0  0
   -0.8051   -0.6006    8.0341 H   0  0  0  0  0  0  0  0  0  0  0  0
    1.7173    0.1190    9.6034 H   0  0  0  0  0  0  0  0  0  0  0  0
    0.2261    0.4813   11.1831 H   0  0  0  0  0  0  0  0  0  0  0  0
    1.7116   -2.0652   10.1460 H   0  0  0  0  0  0  0  0  0  0  0  0
   -1.0286   -3.8342   11.5930 H   0  0  0  0  0  0  0  0  0  0  0  0
    0.7073   -3.5604   11.6522 H   0  0  0  0  0  0  0  0  0  0  0  0
   -0.0210   -4.2866   10.2180 H   0  0  0  0  0  0  0  0  0  0  0  0
   -0.1064   -3.7205    8.0965 H   0  0  0  0  0  0  0  0  0  0  0  0
    3.0201   -3.9997    7.7195 H   0  0  0  0  0  0  0  0  0  0  0  0
    2.7046   -0.6724    7.7432 H   0  0  0  0  0  0  0  0  0  0  0  0
    4.3479   -1.4180    8.8234 H   0  0  0  0  0  0  0  0  0  0  0  0
    6.1375   -0.9011    6.9010 H   0  0  0  0  0  0  0  0  0  0  0  0
    5.8751   -2.4936    5.6379 H   0  0  0  0  0  0  0  0  0  0  0  0
    5.4708   -3.6807    2.8164 H   0  0  0  0  0  0  0  0  0  0  0  0
    4.8136   -5.1575    3.5598 H   0  0  0  0  0  0  0  0  0  0  0  0
    6.1413   -4.2913    4.3382 H   0  0  0  0  0  0  0  0  0  0  0  0
    3.1598   -3.2538    2.7477 H   0  0  0  0  0  0  0  0  0  0  0  0
    2.5388   -4.3829    3.8369 H   0  0  0  0  0  0  0  0  0  0  0  0
    0.9312   -2.9103    3.4465 H   0  0  0  0  0  0  0  0  0  0  0  0
    1.6447    0.1239    1.6122 H   0  0  0  0  0  0  0  0  0  0  0  0
    1.5546   -1.4466    0.5119 H   0  0  0  0  0  0  0  0  0  0  0  0
    4.1962   -1.3945    2.2720 H   0  0  0  0  0  0  0  0  0  0  0  0
    4.0819    1.2563    1.6617 H   0  0  0  0  0  0  0  0  0  0  0  0
  1  2  1  0
  1 58  1  0
  1 59  1  0
  1 60  1  0
  2  3  1  0
  2 61  1  0
  3  4  2  0
  3  5  1  0
  5 14  1  0
  5  6  1  1
  5  7  1  0
  6 62  1  0
  7  8  2  0
  7  9  1  0
  9 28  1  0
  9 10  1  6
  9 11  1  0
 10 63  1  0
 11 12  1  0
 11 64  1  0
 11 65  1  0
 12 13  1  0
 12 66  1  0
 12 67  1  0
 13 14  2  0
 13 68  1  0
 14 15  1  0
 15 30  1  0
 15 16  1  0
 15 69  1  1
 16 17  1  0
 17 44  1  0
 17 18  1  1
 17 19  1  0
 18 70  1  0
 19 56  1  0
 19 20  1  6
 19 21  1  0
 20 71  1  0
 20 72  1  0
 20 73  1  0
 21 22  1  0
 22 23  1  0
 22 25  1  0
 22 74  1  1
 23 24  1  0
 24 75  1  0
 24 76  1  0
 24 77  1  0
 25 51  1  0
 25 26  1  6
 25 54  1  0
 26 27  1  0
 26 78  1  0
 26 79  1  0
 27 28  1  0
 27 30  1  0
 27 80  1  1
 28 29  1  0
 28 81  1  6
 29 82  1  0
 30 31  1  1
 30 32  1  0
 31 83  1  0
 32 38  1  0
 32 33  1  0
 32 84  1  1
 33 34  1  0
 33 35  1  0
 33 85  1  6
 34 86  1  0
 35 36  1  0
 35 38  1  0
 35 87  1  1
 36 37  1  0
 37 88  1  0
 37 89  1  0
 37 90  1  0
 38 39  1  1
 38 40  1  0
 39 91  1  0
 52 40  1  1
 40 41  1  1
 40 42  1  0
 41 92  1  0
 42 43  1  0
 42 44  1  0
 42 93  1  1
 43 94  1  0
 44 45  1  1
 44 46  1  0
 45 95  1  0
 46 48  1  0
 46 47  1  0
 46 96  1  6
 47 48  1  0
 48 49  1  6
 48 50  1  0
 49 97  1  0
 49 98  1  0
 49 99  1  0
 50 51  1  0
 50100  1  0
 50101  1  0
 51 52  1  0
 51102  1  6
 52 53  2  0
 54 55  1  0
 54 56  1  0
 54103  1  6
 55104  1  0
 56 57  1  0
 56105  1  6
 57106  1  0
M  END
>  <i_m_ct_stereo_status>  (47) 
1

>  <s_m_source_file>  (47) 
/var/tmp/pbs.5075288.sched01/tmpzl_yb0kw/0ymjshsm9.sdf

>  <i_m_source_file_index>  (47) 
64

>  <i_lp_mmshare_version>  (47) 
48012

>  <i_f3d_flags>  (47) 
0

>  <s_epik_input>  (47) 
W09IXVtDQEhdMVtDQEBIXShPW0NIM10pW0NAXShbT0hdKShbQ0BAXShbT0hdKShbUytdMltPLV0pW0NASF0zW09IXSlbQ0BIXTFbQ0BdNChbT0hdKVtDQEhdKFtDSDJdNSlbQ0BASF0oW09IXSlbQ0BdKFtPSF0pKEMoPU8pW0NAXTYoW09IXSlDKD1PKVtOSF1bQ0gzXSlbQ0gyXVtDSDJdW0NIXT1DNltDQEBIXTRPW0NAXShbT0hdKShbQ0BdKFtDSDNdKShbQ0BIXShbT0hdKVtDQEBIXTdbT0hdKU9bQ0BIXThPW0NIM10pW0NAXTMoW09IXSlbQ0BASF0oTzkpW0NAXTkoW0NIM10pW0NIMl1bQ0BASF0yQzU3OA==

>  <s_epik_cmdline>  (47) 
J2VwaWtfcHl0aG9uJywgJy1waHQnLCAnMi4wJywgJy1waCcsICc3LjAnLCAnLXRuJywgJzgnLCAnLW1hJywgJzIwMCcsICctaW1hZScsICc8aW5maWxlLm1hZT4nLCAnLW9tYWUnLCAnPG91dGZpbGUubWFlPic=

>  <r_lp_tautomer_probability>  (47) 
1

>  <r_epik_Ionization_Penalty>  (47) 
1.40957e-05

>  <r_epik_Ionization_Penalty_Charging>  (47) 
0

>  <r_epik_Ionization_Penalty_Neutral>  (47) 
1.40957e-05

>  <r_epik_State_Penalty>  (47) 
0

>  <r_epik_Charging_Adjusted_Penalty>  (47) 
0

>  <i_epik_Tot_Q>  (47) 
0

>  <i_epik_Tot_abs_Q>  (47) 
2

>  <s_epik_Chemistry_Notes>  (47) 
This compound contains an acetal/aminal-like group ( X-CH(R)-Y where X, Y are N, S, or O) that may be acid/base labile, releasing an aldehyde.

>  <s_lp_Force_Field>  (47) 
OPLS3e

>  <r_lp_Energy>  (47) 
612.294

>  <b_lp_Chiralities_Consistent>  (47) 
1

>  <s_lp_Variant>  (47) 
14:0-17

>  <s_i_glide_gridfile>  (47) 
pfpi4k_grid

>  <i_i_glide_lignum>  (47) 
64

>  <i_i_glide_rotatable_bonds>  (47) 
16

>  <r_i_docking_score>  (47) 
-3.61884

>  <r_i_glide_ligand_efficiency>  (47) 
-0.0634885

>  <r_i_glide_ligand_efficiency_sa>  (47) 
-0.244335

>  <r_i_glide_ligand_efficiency_ln>  (47) 
-0.71759

>  <r_i_glide_gscore>  (47) 
-3.61884

>  <r_i_glide_lipo>  (47) 
-0.227155

>  <r_i_glide_hbond>  (47) 
-0.0575358

>  <r_i_glide_metal>  (47) 
-0

>  <r_i_glide_rewards>  (47) 
-0.506907

>  <r_i_glide_evdw>  (47) 
-18.6105

>  <r_i_glide_ecoul>  (47) 
-12.7952

>  <r_i_glide_erotb>  (47) 
0.0313225

>  <r_i_glide_esite>  (47) 
-0.00875781

>  <r_i_glide_emodel>  (47) 
-32.5484

>  <r_i_glide_energy>  (47) 
-31.4058

>  <r_i_glide_einternal>  (47) 
16.9071

>  <r_i_glide_intrahb_reward>  (47) 
-0.5

>  <i_i_glide_confnum>  (47) 
2

>  <i_i_glide_posenum>  (47) 
11

>  <r_i_glide_eff_state_penalty>  (47) 
0

>  <ligand_id>  (47) 
14

>  <original_smiles>  (47) 
CNC(=O)C1(O)C(=O)C2(O)CCC=C1C1OC3(O)C4(C)OC(OC)C5(CC(C2O)C1(O)C1C(O)C(OC)C1(O)C1(O)C(O)C3(O)C2OC2(C)CC5[S+]1[O-])C(O)C4O

>  <smiles>  (47) 
[H]OC1(C(=O)N([H])C([H])([H])[H])C(=O)C2(O[H])C([H])([H])C([H])([H])C([H])=C1C1([H])OC3(O[H])C4(C([H])([H])[H])OC([H])(OC([H])([H])[H])C5(C([H])([H])C([H])(C2([H])O[H])C1(O[H])C1([H])C([H])(O[H])C([H])(OC([H])([H])[H])C1(O[H])C1(O[H])S(=O)C5([H])C([H])([H])C2(C([H])([H])[H])OC2([H])C3(O[H])C1([H])O[H])C([H])(O[H])C4([H])O[H]

$$$$
14:16:1
     RDKit          3D

106114  0  0  1  0  0  0  0  0999 V2000
    4.1985   -9.0815    8.6392 C   0  0  0  0  0  0  0  0  0  0  0  0
    3.7899   -9.4227    7.2859 N   0  0  0  0  0  0  0  0  0  0  0  0
    2.5633   -9.1698    6.8095 C   0  0  0  0  0  0  0  0  0  0  0  0
    1.6903   -8.6597    7.5110 O   0  0  0  0  0  0  0  0  0  0  0  0
    2.3159   -9.6485    5.3523 C   0  0  1  0  0  0  0  0  0  0  0  0
    2.6437  -11.0259    5.4893 O   0  0  0  0  0  0  0  0  0  0  0  0
    0.8192   -9.6426    4.9136 C   0  0  0  0  0  0  0  0  0  0  0  0
   -0.0035   -9.9830    5.7564 O   0  0  0  0  0  0  0  0  0  0  0  0
    0.3817   -9.4024    3.4127 C   0  0  2  0  0  0  0  0  0  0  0  0
   -0.9617   -9.8408    3.2547 O   0  0  0  0  0  0  0  0  0  0  0  0
    1.1323  -10.3996    2.4324 C   0  0  0  0  0  0  0  0  0  0  0  0
    2.5889  -10.9261    2.6726 C   0  0  0  0  0  0  0  0  0  0  0  0
    3.5163   -9.8427    3.1812 C   0  0  0  0  0  0  0  0  0  0  0  0
    3.1680   -9.0449    4.2133 C   0  0  0  0  0  0  0  0  0  0  0  0
    3.4041   -7.5132    4.0577 C   0  0  2  0  0  0  0  0  0  0  0  0
    3.3595   -6.9243    5.4251 O   0  0  0  0  0  0  0  0  0  0  0  0
    3.8052   -5.7684    6.2388 C   0  0  2  0  0  0  0  0  0  0  0  0
    4.6835   -6.4190    7.1123 O   0  0  0  0  0  0  0  0  0  0  0  0
    2.5245   -5.1745    7.2521 C   0  0  2  0  0  0  0  0  0  0  0  0
    3.2738   -4.4496    8.4224 C   0  0  0  0  0  0  0  0  0  0  0  0
    2.2961   -4.5122    6.1203 O   0  0  0  0  0  0  0  0  0  0  0  0
    1.5902   -5.2237    5.1685 C   0  0  1  0  0  0  0  0  0  0  0  0
    1.0390   -6.5235    5.5483 O   0  0  0  0  0  0  0  0  0  0  0  0
   -0.1122   -6.8488    6.3308 C   0  0  0  0  0  0  0  0  0  0  0  0
    0.6704   -4.3080    4.7061 C   0  0  2  0  0  0  0  0  0  0  0  0
    0.2502   -5.2195    3.4337 C   0  0  0  0  0  0  0  0  0  0  0  0
    0.9653   -6.6104    2.8963 C   0  0  2  0  0  0  0  0  0  0  0  0
   -0.0061   -7.8936    2.9738 C   0  0  1  0  0  0  0  0  0  0  0  0
   -0.7304   -7.8893    1.7233 O   0  0  0  0  0  0  0  0  0  0  0  0
    2.5483   -6.8948    2.7336 C   0  0  2  0  0  0  0  0  0  0  0  0
    2.3557   -7.9192    1.7772 O   0  0  0  0  0  0  0  0  0  0  0  0
    3.3394   -6.1319    1.5348 C   0  0  2  0  0  0  0  0  0  0  0  0
    4.6939   -6.7253    1.1242 C   0  0  1  0  0  0  0  0  0  0  0  0
    4.6013   -7.7636    0.1703 O   0  0  0  0  0  0  0  0  0  0  0  0
    5.1904   -5.3473    0.6999 C   0  0  1  0  0  0  0  0  0  0  0  0
    5.1980   -5.2004   -0.7164 O   0  0  0  0  0  0  0  0  0  0  0  0
    5.9297   -4.0681   -1.1682 C   0  0  0  0  0  0  0  0  0  0  0  0
    3.9451   -4.6876    1.3599 C   0  0  1  0  0  0  0  0  0  0  0  0
    3.2763   -3.9710    0.3249 O   0  0  0  0  0  0  0  0  0  0  0  0
    4.1074   -3.7817    2.6384 C   0  0  2  0  0  0  0  0  0  0  0  0
    5.0194   -2.7503    2.2960 O   0  0  0  0  0  0  0  0  0  0  0  0
    4.7315   -4.6653    3.8219 C   0  0  1  0  0  0  0  0  0  0  0  0
    6.0880   -4.7557    3.4338 O   0  0  0  0  0  0  0  0  0  0  0  0
    4.6559   -4.5667    5.4205 C   0  0  2  0  0  0  0  0  0  0  0  0
    6.0154   -4.7131    5.8489 O   0  0  0  0  0  0  0  0  0  0  0  0
    4.5175   -3.1113    5.9656 C   0  0  1  0  0  0  0  0  0  0  0  0
    4.6000   -2.0780    4.9860 O   0  0  0  0  0  0  0  0  0  0  0  0
    3.4874   -1.9946    5.8655 C   0  0  2  0  0  0  0  0  0  0  0  0
    3.6029   -0.8700    6.8880 C   0  0  0  0  0  0  0  0  0  0  0  0
    2.1014   -1.8932    5.1978 C   0  0  0  0  0  0  0  0  0  0  0  0
    1.4583   -2.9872    4.2866 C   0  0  1  0  0  0  0  0  0  0  0  0
    2.3727   -3.0746    2.7119 S   0  0  0  0  0  0  0  0  0  0  0  0
    2.3131   -1.6857    2.0706 O   0  0  0  0  0  0  0  0  0  0  0  0
   -0.0618   -4.0465    6.1115 C   0  0  2  0  0  0  0  0  0  0  0  0
   -0.7030   -2.7734    6.1651 O   0  0  0  0  0  0  0  0  0  0  0  0
    1.0555   -4.2372    7.3478 C   0  0  1  0  0  0  0  0  0  0  0  0
    0.3243   -4.6432    8.4954 O   0  0  0  0  0  0  0  0  0  0  0  0
    5.2456   -8.7927    8.6139 H   0  0  0  0  0  0  0  0  0  0  0  0
    4.0653   -9.9353    9.3041 H   0  0  0  0  0  0  0  0  0  0  0  0
    3.6272   -8.2385    9.0396 H   0  0  0  0  0  0  0  0  0  0  0  0
    4.3942   -9.9830    6.6921 H   0  0  0  0  0  0  0  0  0  0  0  0
    2.0782  -11.4068    6.1588 H   0  0  0  0  0  0  0  0  0  0  0  0
   -1.2243  -10.2535    4.0564 H   0  0  0  0  0  0  0  0  0  0  0  0
    0.5104  -11.2855    2.3016 H   0  0  0  0  0  0  0  0  0  0  0  0
    1.1346   -9.9592    1.4467 H   0  0  0  0  0  0  0  0  0  0  0  0
    2.5899  -11.8374    3.2787 H   0  0  0  0  0  0  0  0  0  0  0  0
    2.9859  -11.1609    1.6913 H   0  0  0  0  0  0  0  0  0  0  0  0
    4.1381   -9.4429    2.3971 H   0  0  0  0  0  0  0  0  0  0  0  0
    4.4485   -7.5820    3.8026 H   0  0  0  0  0  0  0  0  0  0  0  0
    5.3677   -6.8197    6.5859 H   0  0  0  0  0  0  0  0  0  0  0  0
    2.8330   -4.7736    9.3639 H   0  0  0  0  0  0  0  0  0  0  0  0
    3.1762   -3.3668    8.3734 H   0  0  0  0  0  0  0  0  0  0  0  0
    4.3470   -4.6025    8.5029 H   0  0  0  0  0  0  0  0  0  0  0  0
    2.3528   -5.2384    4.4129 H   0  0  0  0  0  0  0  0  0  0  0  0
    0.0812   -6.7115    7.3872 H   0  0  0  0  0  0  0  0  0  0  0  0
   -1.0463   -6.4561    5.9550 H   0  0  0  0  0  0  0  0  0  0  0  0
   -0.3328   -7.8840    6.2850 H   0  0  0  0  0  0  0  0  0  0  0  0
   -0.7425   -5.5581    3.6677 H   0  0  0  0  0  0  0  0  0  0  0  0
    0.2431   -4.5315    2.5857 H   0  0  0  0  0  0  0  0  0  0  0  0
    0.7693   -6.3608    1.8620 H   0  0  0  0  0  0  0  0  0  0  0  0
   -0.7805   -7.6315    3.6952 H   0  0  0  0  0  0  0  0  0  0  0  0
   -0.4003   -8.5966    1.1708 H   0  0  0  0  0  0  0  0  0  0  0  0
    1.9551   -8.6720    2.1910 H   0  0  0  0  0  0  0  0  0  0  0  0
    2.7390   -6.1752    0.6126 H   0  0  0  0  0  0  0  0  0  0  0  0
    5.3040   -7.0608    1.9647 H   0  0  0  0  0  0  0  0  0  0  0  0
    4.5396   -8.5782    0.6558 H   0  0  0  0  0  0  0  0  0  0  0  0
    6.1658   -5.1309    1.1118 H   0  0  0  0  0  0  0  0  0  0  0  0
    5.9488   -4.0716   -2.2609 H   0  0  0  0  0  0  0  0  0  0  0  0
    6.9678   -4.0712   -0.8228 H   0  0  0  0  0  0  0  0  0  0  0  0
    5.4747   -3.1338   -0.8469 H   0  0  0  0  0  0  0  0  0  0  0  0
    3.4519   -4.4711   -0.4713 H   0  0  0  0  0  0  0  0  0  0  0  0
    5.4650   -2.9846    1.4891 H   0  0  0  0  0  0  0  0  0  0  0  0
    4.5468   -5.6570    3.5756 H   0  0  0  0  0  0  0  0  0  0  0  0
    6.4366   -3.8828    3.5255 H   0  0  0  0  0  0  0  0  0  0  0  0
    6.3475   -5.5285    5.4883 H   0  0  0  0  0  0  0  0  0  0  0  0
    5.1491   -2.9603    6.8414 H   0  0  0  0  0  0  0  0  0  0  0  0
    2.9084   -1.0212    7.7148 H   0  0  0  0  0  0  0  0  0  0  0  0
    3.3966    0.0905    6.4196 H   0  0  0  0  0  0  0  0  0  0  0  0
    4.6128   -0.8308    7.3004 H   0  0  0  0  0  0  0  0  0  0  0  0
    1.4263   -1.6596    5.9992 H   0  0  0  0  0  0  0  0  0  0  0  0
    2.1207   -0.9612    4.6287 H   0  0  0  0  0  0  0  0  0  0  0  0
    0.6020   -2.4288    3.9106 H   0  0  0  0  0  0  0  0  0  0  0  0
   -0.9736   -4.6176    6.2426 H   0  0  0  0  0  0  0  0  0  0  0  0
   -0.0550   -2.0876    6.0208 H   0  0  0  0  0  0  0  0  0  0  0  0
    1.2996   -3.1999    7.6038 H   0  0  0  0  0  0  0  0  0  0  0  0
    0.1946   -5.5800    8.4069 H   0  0  0  0  0  0  0  0  0  0  0  0
  1  2  1  0
  1 58  1  0
  1 59  1  0
  1 60  1  0
  2  3  1  0
  2 61  1  0
  3  4  2  0
  3  5  1  0
  5 14  1  0
  5  6  1  1
  5  7  1  0
  6 62  1  0
  7  8  2  0
  7  9  1  0
  9 28  1  0
  9 10  1  1
  9 11  1  0
 10 63  1  0
 11 12  1  0
 11 64  1  0
 11 65  1  0
 12 13  1  0
 12 66  1  0
 12 67  1  0
 13 14  2  0
 13 68  1  0
 14 15  1  0
 15 30  1  0
 15 16  1  0
 15 69  1  6
 16 17  1  0
 17 44  1  0
 17 18  1  1
 17 19  1  0
 18 70  1  0
 19 56  1  0
 19 20  1  6
 19 21  1  0
 20 71  1  0
 20 72  1  0
 20 73  1  0
 21 22  1  0
 22 23  1  0
 22 25  1  0
 22 74  1  6
 23 24  1  0
 24 75  1  0
 24 76  1  0
 24 77  1  0
 25 51  1  0
 25 26  1  6
 25 54  1  0
 26 27  1  0
 26 78  1  0
 26 79  1  0
 27 28  1  0
 27 30  1  0
 27 80  1  6
 28 29  1  0
 28 81  1  1
 29 82  1  0
 30 31  1  6
 30 32  1  0
 31 83  1  0
 32 38  1  0
 32 33  1  0
 32 84  1  6
 33 34  1  0
 33 35  1  0
 33 85  1  1
 34 86  1  0
 35 36  1  0
 35 38  1  0
 35 87  1  1
 36 37  1  0
 37 88  1  0
 37 89  1  0
 37 90  1  0
 38 39  1  6
 38 40  1  0
 39 91  1  0
 52 40  1  1
 40 41  1  6
 40 42  1  0
 41 92  1  0
 42 43  1  0
 42 44  1  0
 42 93  1  6
 43 94  1  0
 44 45  1  1
 44 46  1  0
 45 95  1  0
 46 48  1  0
 46 47  1  0
 46 96  1  1
 47 48  1  0
 48 49  1  1
 48 50  1  0
 49 97  1  0
 49 98  1  0
 49 99  1  0
 50 51  1  0
 50100  1  0
 50101  1  0
 51 52  1  0
 51102  1  6
 52 53  2  0
 54 55  1  0
 54 56  1  0
 54103  1  1
 55104  1  0
 56 57  1  0
 56105  1  1
 57106  1  0
M  END
>  <i_m_ct_stereo_status>  (48) 
1

>  <s_m_source_file>  (48) 
/var/tmp/pbs.5075288.sched01/tmpzl_yb0kw/0ymjshsm9.sdf

>  <i_m_source_file_index>  (48) 
64

>  <i_lp_mmshare_version>  (48) 
48012

>  <i_f3d_flags>  (48) 
0

>  <s_epik_input>  (48) 
W09IXVtDQEhdMVtDQEBIXShPW0NIM10pW0NAXShbT0hdKShbQ0BAXShbT0hdKShbUytdMltPLV0pW0NASF0zW09IXSlbQ0BIXTFbQ0BdNChbT0hdKVtDQEhdKFtDSDJdNSlbQ0BASF0oW09IXSlbQ0BdKFtPSF0pKEMoPU8pW0NAXTYoW09IXSlDKD1PKVtOSF1bQ0gzXSlbQ0gyXVtDSDJdW0NIXT1DNltDQEBIXTRPW0NAXShbT0hdKShbQ0BdKFtDSDNdKShbQ0BIXShbT0hdKVtDQEBIXTdbT0hdKU9bQ0BIXThPW0NIM10pW0NAXTMoW09IXSlbQ0BASF0oTzkpW0NAXTkoW0NIM10pW0NIMl1bQ0BASF0yQzU3OA==

>  <s_epik_cmdline>  (48) 
J2VwaWtfcHl0aG9uJywgJy1waHQnLCAnMi4wJywgJy1waCcsICc3LjAnLCAnLXRuJywgJzgnLCAnLW1hJywgJzIwMCcsICctaW1hZScsICc8aW5maWxlLm1hZT4nLCAnLW9tYWUnLCAnPG91dGZpbGUubWFlPic=

>  <r_lp_tautomer_probability>  (48) 
1

>  <r_epik_Ionization_Penalty>  (48) 
1.40957e-05

>  <r_epik_Ionization_Penalty_Charging>  (48) 
0

>  <r_epik_Ionization_Penalty_Neutral>  (48) 
1.40957e-05

>  <r_epik_State_Penalty>  (48) 
0

>  <r_epik_Charging_Adjusted_Penalty>  (48) 
0

>  <i_epik_Tot_Q>  (48) 
0

>  <i_epik_Tot_abs_Q>  (48) 
2

>  <s_epik_Chemistry_Notes>  (48) 
This compound contains an acetal/aminal-like group ( X-CH(R)-Y where X, Y are N, S, or O) that may be acid/base labile, releasing an aldehyde.

>  <s_lp_Force_Field>  (48) 
OPLS3e

>  <r_lp_Energy>  (48) 
612.294

>  <b_lp_Chiralities_Consistent>  (48) 
1

>  <s_lp_Variant>  (48) 
14:0-17

>  <s_i_glide_gridfile>  (48) 
pfpi4k_grid

>  <i_i_glide_lignum>  (48) 
64

>  <i_i_glide_rotatable_bonds>  (48) 
16

>  <r_i_docking_score>  (48) 
-2.43361

>  <r_i_glide_ligand_efficiency>  (48) 
-0.042695

>  <r_i_glide_ligand_efficiency_sa>  (48) 
-0.164312

>  <r_i_glide_ligand_efficiency_ln>  (48) 
-0.482568

>  <r_i_glide_gscore>  (48) 
-2.43361

>  <r_i_glide_lipo>  (48) 
-0.478872

>  <r_i_glide_hbond>  (48) 
0

>  <r_i_glide_metal>  (48) 
-0

>  <r_i_glide_rewards>  (48) 
0

>  <r_i_glide_evdw>  (48) 
-10.4025

>  <r_i_glide_ecoul>  (48) 
-9.14815

>  <r_i_glide_erotb>  (48) 
0.0313225

>  <r_i_glide_esite>  (48) 
-0.11807

>  <r_i_glide_emodel>  (48) 
-15.4528

>  <r_i_glide_energy>  (48) 
-19.5507

>  <r_i_glide_einternal>  (48) 
10.5668

>  <r_i_glide_intrahb_reward>  (48) 
-0

>  <i_i_glide_confnum>  (48) 
2

>  <i_i_glide_posenum>  (48) 
1

>  <r_i_glide_eff_state_penalty>  (48) 
0

>  <ligand_id>  (48) 
14

>  <original_smiles>  (48) 
CNC(=O)C1(O)C(=O)C2(O)CCC=C1C1OC3(O)C4(C)OC(OC)C5(CC(C2O)C1(O)C1C(O)C(OC)C1(O)C1(O)C(O)C3(O)C2OC2(C)CC5[S+]1[O-])C(O)C4O

>  <smiles>  (48) 
[H]OC1(C(=O)N([H])C([H])([H])[H])C(=O)C2(O[H])C([H])([H])C([H])([H])C([H])=C1C1([H])OC3(O[H])C4(C([H])([H])[H])OC([H])(OC([H])([H])[H])C5(C([H])([H])C([H])(C2([H])O[H])C1(O[H])C1([H])C([H])(O[H])C([H])(OC([H])([H])[H])C1(O[H])C1(O[H])S(=O)C5([H])C([H])([H])C2(C([H])([H])[H])OC2([H])C3(O[H])C1([H])O[H])C([H])(O[H])C4([H])O[H]

$$$$
14:17:0
     RDKit          3D

106114  0  0  1  0  0  0  0  0999 V2000
    7.8982   -6.5432    0.5557 C   0  0  0  0  0  0  0  0  0  0  0  0
    6.9074   -5.5116    0.8548 N   0  0  0  0  0  0  0  0  0  0  0  0
    6.6294   -5.1095    2.1165 C   0  0  0  0  0  0  0  0  0  0  0  0
    7.2408   -5.5748    3.0674 O   0  0  0  0  0  0  0  0  0  0  0  0
    5.6232   -3.9749    2.3507 C   0  0  1  0  0  0  0  0  0  0  0  0
    6.4261   -2.9190    1.8540 O   0  0  0  0  0  0  0  0  0  0  0  0
    4.4295   -3.7402    1.4389 C   0  0  0  0  0  0  0  0  0  0  0  0
    4.2720   -4.3978    0.4027 O   0  0  0  0  0  0  0  0  0  0  0  0
    3.4994   -2.5500    1.8026 C   0  0  2  0  0  0  0  0  0  0  0  0
    3.1694   -1.9939    0.5313 O   0  0  0  0  0  0  0  0  0  0  0  0
    4.1580   -1.2540    2.4974 C   0  0  0  0  0  0  0  0  0  0  0  0
    5.2349   -1.2564    3.6530 C   0  0  0  0  0  0  0  0  0  0  0  0
    5.3839   -2.5776    4.3930 C   0  0  0  0  0  0  0  0  0  0  0  0
    5.1283   -3.7585    3.8403 C   0  0  0  0  0  0  0  0  0  0  0  0
    4.0830   -4.6353    4.6544 C   0  0  2  0  0  0  0  0  0  0  0  0
    3.6649   -5.9992    4.2555 O   0  0  0  0  0  0  0  0  0  0  0  0
    4.1440   -7.3576    4.3556 C   0  0  2  0  0  0  0  0  0  0  0  0
    5.5248   -7.3151    4.0568 O   0  0  0  0  0  0  0  0  0  0  0  0
    3.5152   -8.3611    3.0909 C   0  0  1  0  0  0  0  0  0  0  0  0
    4.3524   -9.6398    2.9072 C   0  0  0  0  0  0  0  0  0  0  0  0
    2.1046   -8.8825    3.0453 O   0  0  0  0  0  0  0  0  0  0  0  0
    1.0042   -8.1013    2.4836 C   0  0  1  0  0  0  0  0  0  0  0  0
   -0.2816   -8.5705    2.7420 O   0  0  0  0  0  0  0  0  0  0  0  0
   -0.4476   -9.9893    2.6122 C   0  0  0  0  0  0  0  0  0  0  0  0
    1.3655   -6.7373    3.1557 C   0  0  1  0  0  0  0  0  0  0  0  0
    0.7431   -5.2805    3.1210 C   0  0  0  0  0  0  0  0  0  0  0  0
    1.6545   -3.9535    3.5584 C   0  0  2  0  0  0  0  0  0  0  0  0
    2.0595   -3.0226    2.2868 C   0  0  1  0  0  0  0  0  0  0  0  0
    1.2544   -1.8224    2.2932 O   0  0  0  0  0  0  0  0  0  0  0  0
    2.6803   -3.8337    4.8436 C   0  0  2  0  0  0  0  0  0  0  0  0
    2.7196   -2.4237    4.7357 O   0  0  0  0  0  0  0  0  0  0  0  0
    2.1918   -3.6145    6.3715 C   0  0  2  0  0  0  0  0  0  0  0  0
    2.9772   -2.6838    7.3553 C   0  0  1  0  0  0  0  0  0  0  0  0
    2.1788   -1.7070    7.9974 O   0  0  0  0  0  0  0  0  0  0  0  0
    3.3933   -3.9107    8.1499 C   0  0  1  0  0  0  0  0  0  0  0  0
    3.4275   -3.7353    9.5590 O   0  0  0  0  0  0  0  0  0  0  0  0
    4.6193   -3.0952   10.0086 C   0  0  0  0  0  0  0  0  0  0  0  0
    2.1674   -4.6472    7.5801 C   0  0  1  0  0  0  0  0  0  0  0  0
    1.0273   -4.3982    8.4059 O   0  0  0  0  0  0  0  0  0  0  0  0
    2.1253   -6.1875    7.2964 C   0  0  2  0  0  0  0  0  0  0  0  0
    1.5857   -6.9143    8.3979 O   0  0  0  0  0  0  0  0  0  0  0  0
    3.5632   -6.8327    6.9770 C   0  0  1  0  0  0  0  0  0  0  0  0
    4.0540   -7.2453    8.2619 O   0  0  0  0  0  0  0  0  0  0  0  0
    3.9810   -7.9111    5.8704 C   0  0  2  0  0  0  0  0  0  0  0  0
    5.2882   -8.2568    6.3542 O   0  0  0  0  0  0  0  0  0  0  0  0
    3.3888   -9.2719    5.9828 C   0  0  1  0  0  0  0  0  0  0  0  0
    2.4494   -9.4578    7.0651 O   0  0  0  0  0  0  0  0  0  0  0  0
    1.9473   -9.6567    5.7045 C   0  0  2  0  0  0  0  0  0  0  0  0
    1.7206  -11.0818    5.2812 C   0  0  0  0  0  0  0  0  0  0  0  0
    0.8108   -8.6940    5.3942 C   0  0  0  0  0  0  0  0  0  0  0  0
    1.1695   -7.2843    4.7070 C   0  0  1  0  0  0  0  0  0  0  0  0
    0.8727   -6.0286    5.9675 S   0  0  0  0  0  0  0  0  0  0  0  0
   -0.5556   -6.2491    6.5139 O   0  0  0  0  0  0  0  0  0  0  0  0
    2.5168   -6.4637    2.0348 C   0  0  2  0  0  0  0  0  0  0  0  0
    2.0019   -6.1065    0.7447 O   0  0  0  0  0  0  0  0  0  0  0  0
    3.4907   -7.6120    1.7836 C   0  0  1  0  0  0  0  0  0  0  0  0
    4.7437   -7.2267    1.3206 O   0  0  0  0  0  0  0  0  0  0  0  0
    7.4381   -7.5306    0.5609 H   0  0  0  0  0  0  0  0  0  0  0  0
    8.7320   -6.5909    1.2615 H   0  0  0  0  0  0  0  0  0  0  0  0
    8.3581   -6.3842   -0.4147 H   0  0  0  0  0  0  0  0  0  0  0  0
    6.3658   -5.0691    0.1114 H   0  0  0  0  0  0  0  0  0  0  0  0
    6.1092   -2.1093    2.1895 H   0  0  0  0  0  0  0  0  0  0  0  0
    2.3736   -1.4913    0.6224 H   0  0  0  0  0  0  0  0  0  0  0  0
    4.6182   -0.6492    1.7129 H   0  0  0  0  0  0  0  0  0  0  0  0
    3.3475   -0.6112    2.8482 H   0  0  0  0  0  0  0  0  0  0  0  0
    6.2018   -0.8744    3.3217 H   0  0  0  0  0  0  0  0  0  0  0  0
    4.9107   -0.5322    4.4060 H   0  0  0  0  0  0  0  0  0  0  0  0
    5.1490   -2.4354    5.4352 H   0  0  0  0  0  0  0  0  0  0  0  0
    4.5674   -4.6339    5.6122 H   0  0  0  0  0  0  0  0  0  0  0  0
    5.6021   -7.1341    3.1335 H   0  0  0  0  0  0  0  0  0  0  0  0
    5.4185   -9.4600    2.7887 H   0  0  0  0  0  0  0  0  0  0  0  0
    4.0404  -10.1640    1.9990 H   0  0  0  0  0  0  0  0  0  0  0  0
    4.2120  -10.3465    3.7130 H   0  0  0  0  0  0  0  0  0  0  0  0
    1.0090   -8.1414    1.3971 H   0  0  0  0  0  0  0  0  0  0  0  0
   -1.4822  -10.2217    2.8498 H   0  0  0  0  0  0  0  0  0  0  0  0
    0.1732  -10.4903    3.3165 H   0  0  0  0  0  0  0  0  0  0  0  0
   -0.2810  -10.3885    1.6461 H   0  0  0  0  0  0  0  0  0  0  0  0
    0.3316   -5.1577    2.1312 H   0  0  0  0  0  0  0  0  0  0  0  0
   -0.1697   -5.2877    3.7114 H   0  0  0  0  0  0  0  0  0  0  0  0
    0.7865   -3.4056    3.9334 H   0  0  0  0  0  0  0  0  0  0  0  0
    1.8079   -3.6379    1.4360 H   0  0  0  0  0  0  0  0  0  0  0  0
    1.5504   -1.2388    2.9535 H   0  0  0  0  0  0  0  0  0  0  0  0
    1.8546   -2.0933    4.8488 H   0  0  0  0  0  0  0  0  0  0  0  0
    1.1788   -3.2014    6.3438 H   0  0  0  0  0  0  0  0  0  0  0  0
    3.8507   -2.1983    6.9375 H   0  0  0  0  0  0  0  0  0  0  0  0
    1.5828   -2.1768    8.5540 H   0  0  0  0  0  0  0  0  0  0  0  0
    4.3425   -4.2656    7.7639 H   0  0  0  0  0  0  0  0  0  0  0  0
    4.5812   -2.9123   11.0823 H   0  0  0  0  0  0  0  0  0  0  0  0
    4.7795   -2.1361    9.5176 H   0  0  0  0  0  0  0  0  0  0  0  0
    5.4877   -3.7214    9.8114 H   0  0  0  0  0  0  0  0  0  0  0  0
    1.1485   -5.0023    9.1138 H   0  0  0  0  0  0  0  0  0  0  0  0
    1.6338   -7.8307    8.1849 H   0  0  0  0  0  0  0  0  0  0  0  0
    4.2618   -6.0625    6.8223 H   0  0  0  0  0  0  0  0  0  0  0  0
    3.5930   -8.0214    8.5032 H   0  0  0  0  0  0  0  0  0  0  0  0
    5.6465   -8.9051    5.7820 H   0  0  0  0  0  0  0  0  0  0  0  0
    4.0783  -10.1089    5.8870 H   0  0  0  0  0  0  0  0  0  0  0  0
    1.8232  -11.2572    4.1999 H   0  0  0  0  0  0  0  0  0  0  0  0
    0.7187  -11.3887    5.6063 H   0  0  0  0  0  0  0  0  0  0  0  0
    2.4453  -11.7414    5.7682 H   0  0  0  0  0  0  0  0  0  0  0  0
    0.0209   -9.2458    4.9380 H   0  0  0  0  0  0  0  0  0  0  0  0
    0.4286   -8.4453    6.4105 H   0  0  0  0  0  0  0  0  0  0  0  0
    0.1004   -7.1870    4.5369 H   0  0  0  0  0  0  0  0  0  0  0  0
    3.0637   -5.5789    2.2588 H   0  0  0  0  0  0  0  0  0  0  0  0
    2.7120   -5.7876    0.2077 H   0  0  0  0  0  0  0  0  0  0  0  0
    3.1213   -8.2671    0.9831 H   0  0  0  0  0  0  0  0  0  0  0  0
    4.6585   -6.8929    0.4445 H   0  0  0  0  0  0  0  0  0  0  0  0
  1  2  1  0
  1 58  1  0
  1 59  1  0
  1 60  1  0
  2  3  1  0
  2 61  1  0
  3  4  2  0
  3  5  1  0
  5 14  1  0
  5  6  1  6
  5  7  1  0
  6 62  1  0
  7  8  2  0
  7  9  1  0
  9 28  1  0
  9 10  1  6
  9 11  1  0
 10 63  1  0
 11 12  1  0
 11 64  1  0
 11 65  1  0
 12 13  1  0
 12 66  1  0
 12 67  1  0
 13 14  2  0
 13 68  1  0
 14 15  1  0
 15 30  1  0
 15 16  1  0
 15 69  1  1
 16 17  1  0
 17 44  1  0
 17 18  1  6
 17 19  1  0
 18 70  1  0
 19 56  1  0
 19 20  1  6
 19 21  1  0
 20 71  1  0
 20 72  1  0
 20 73  1  0
 21 22  1  0
 22 23  1  0
 22 25  1  0
 22 74  1  6
 23 24  1  0
 24 75  1  0
 24 76  1  0
 24 77  1  0
 25 51  1  0
 25 26  1  6
 25 54  1  0
 26 27  1  0
 26 78  1  0
 26 79  1  0
 27 28  1  0
 27 30  1  0
 27 80  1  1
 28 29  1  0
 28 81  1  6
 29 82  1  0
 30 31  1  6
 30 32  1  0
 31 83  1  0
 32 38  1  0
 32 33  1  0
 32 84  1  6
 33 34  1  0
 33 35  1  0
 33 85  1  6
 34 86  1  0
 35 36  1  0
 35 38  1  0
 35 87  1  6
 36 37  1  0
 37 88  1  0
 37 89  1  0
 37 90  1  0
 38 39  1  1
 38 40  1  0
 39 91  1  0
 52 40  1  1
 40 41  1  1
 40 42  1  0
 41 92  1  0
 42 43  1  0
 42 44  1  0
 42 93  1  6
 43 94  1  0
 44 45  1  1
 44 46  1  0
 45 95  1  0
 46 48  1  0
 46 47  1  0
 46 96  1  1
 47 48  1  0
 48 49  1  1
 48 50  1  0
 49 97  1  0
 49 98  1  0
 49 99  1  0
 50 51  1  0
 50100  1  0
 50101  1  0
 51 52  1  0
 51102  1  1
 52 53  2  0
 54 55  1  0
 54 56  1  0
 54103  1  1
 55104  1  0
 56 57  1  0
 56105  1  6
 57106  1  0
M  END
>  <i_m_ct_stereo_status>  (49) 
1

>  <s_m_source_file>  (49) 
/var/tmp/pbs.5075288.sched01/tmpq0rgj53d/65gxdktgdh.sdf

>  <i_m_source_file_index>  (49) 
1

>  <i_lp_mmshare_version>  (49) 
48012

>  <i_f3d_flags>  (49) 
0

>  <s_epik_input>  (49) 
W09IXVtDQEhdMVtDQEBIXShPW0NIM10pW0NAXShbT0hdKShbQ0BAXShbT0hdKShbUytdMltPLV0pW0NASF0zW09IXSlbQ0BIXTFbQ0BdNChbT0hdKVtDQEhdKFtDSDJdNSlbQ0BASF0oW09IXSlbQ0BdKFtPSF0pKEMoPU8pW0NAXTYoW09IXSlDKD1PKVtOSF1bQ0gzXSlbQ0gyXVtDSDJdW0NIXT1DNltDQEBIXTRPW0NAXShbT0hdKShbQ0BdKFtDSDNdKShbQ0BIXShbT0hdKVtDQEBIXTdbT0hdKU9bQ0BIXThPW0NIM10pW0NAXTMoW09IXSlbQ0BASF0oTzkpW0NAXTkoW0NIM10pW0NIMl1bQ0BASF0yQzU3OA==

>  <s_epik_cmdline>  (49) 
J2VwaWtfcHl0aG9uJywgJy1waHQnLCAnMi4wJywgJy1waCcsICc3LjAnLCAnLXRuJywgJzgnLCAnLW1hJywgJzIwMCcsICctaW1hZScsICc8aW5maWxlLm1hZT4nLCAnLW9tYWUnLCAnPG91dGZpbGUubWFlPic=

>  <r_lp_tautomer_probability>  (49) 
1

>  <r_epik_Ionization_Penalty>  (49) 
1.40957e-05

>  <r_epik_Ionization_Penalty_Charging>  (49) 
0

>  <r_epik_Ionization_Penalty_Neutral>  (49) 
1.40957e-05

>  <r_epik_State_Penalty>  (49) 
-0

>  <r_epik_Charging_Adjusted_Penalty>  (49) 
0

>  <i_epik_Tot_Q>  (49) 
0

>  <i_epik_Tot_abs_Q>  (49) 
2

>  <s_epik_Chemistry_Notes>  (49) 
This compound contains an acetal/aminal-like group ( X-CH(R)-Y where X, Y are N, S, or O) that may be acid/base labile, releasing an aldehyde.

>  <s_lp_Force_Field>  (49) 
OPLS3e

>  <r_lp_Energy>  (49) 
484.472

>  <b_lp_Chiralities_Consistent>  (49) 
1

>  <s_lp_Variant>  (49) 
14:0-18

>  <s_i_glide_gridfile>  (49) 
pfpi4k_grid

>  <i_i_glide_lignum>  (49) 
1

>  <i_i_glide_rotatable_bonds>  (49) 
16

>  <r_i_docking_score>  (49) 
-4.57118

>  <r_i_glide_ligand_efficiency>  (49) 
-0.0801961

>  <r_i_glide_ligand_efficiency_sa>  (49) 
-0.308635

>  <r_i_glide_ligand_efficiency_ln>  (49) 
-0.906431

>  <r_i_glide_gscore>  (49) 
-4.57118

>  <r_i_glide_lipo>  (49) 
-0.228691

>  <r_i_glide_hbond>  (49) 
0

>  <r_i_glide_metal>  (49) 
-0

>  <r_i_glide_rewards>  (49) 
-3.08718

>  <r_i_glide_evdw>  (49) 
-19.2131

>  <r_i_glide_ecoul>  (49) 
-3.25478

>  <r_i_glide_erotb>  (49) 
0.0313225

>  <r_i_glide_esite>  (49) 
-0.0304033

>  <r_i_glide_emodel>  (49) 
-56.8333

>  <r_i_glide_energy>  (49) 
-22.4678

>  <r_i_glide_einternal>  (49) 
6.0372

>  <r_i_glide_intrahb_reward>  (49) 
-3

>  <i_i_glide_confnum>  (49) 
3

>  <i_i_glide_posenum>  (49) 
27

>  <r_i_glide_eff_state_penalty>  (49) 
0

>  <ligand_id>  (49) 
14

>  <original_smiles>  (49) 
CNC(=O)C1(O)C(=O)C2(O)CCC=C1C1OC3(O)C4(C)OC(OC)C5(CC(C2O)C1(O)C1C(O)C(OC)C1(O)C1(O)C(O)C3(O)C2OC2(C)CC5[S+]1[O-])C(O)C4O

>  <smiles>  (49) 
[H]OC1(C(=O)N([H])C([H])([H])[H])C(=O)C2(O[H])C([H])([H])C([H])([H])C([H])=C1C1([H])OC3(O[H])C4(C([H])([H])[H])OC([H])(OC([H])([H])[H])C5(C([H])([H])C([H])(C2([H])O[H])C1(O[H])C1([H])C([H])(O[H])C([H])(OC([H])([H])[H])C1(O[H])C1(O[H])S(=O)C5([H])C([H])([H])C2(C([H])([H])[H])OC2([H])C3(O[H])C1([H])O[H])C([H])(O[H])C4([H])O[H]

$$$$
14:17:1
     RDKit          3D

106114  0  0  1  0  0  0  0  0999 V2000
    7.9941   -6.4169    1.9285 C   0  0  0  0  0  0  0  0  0  0  0  0
    6.9718   -5.5007    2.4273 N   0  0  0  0  0  0  0  0  0  0  0  0
    6.0132   -4.9008    1.7028 C   0  0  0  0  0  0  0  0  0  0  0  0
    5.9606   -5.0102    0.4760 O   0  0  0  0  0  0  0  0  0  0  0  0
    5.1236   -3.8935    2.4709 C   0  0  1  0  0  0  0  0  0  0  0  0
    5.8517   -2.7298    2.0988 O   0  0  0  0  0  0  0  0  0  0  0  0
    3.7209   -3.5634    1.9513 C   0  0  0  0  0  0  0  0  0  0  0  0
    3.2873   -4.0258    0.8927 O   0  0  0  0  0  0  0  0  0  0  0  0
    2.8541   -2.5754    2.7976 C   0  0  2  0  0  0  0  0  0  0  0  0
    2.2048   -1.7790    1.8173 O   0  0  0  0  0  0  0  0  0  0  0  0
    3.6462   -1.4049    3.5652 C   0  0  0  0  0  0  0  0  0  0  0  0
    4.9912   -1.5639    4.3798 C   0  0  0  0  0  0  0  0  0  0  0  0
    5.3875   -2.9887    4.7533 C   0  0  0  0  0  0  0  0  0  0  0  0
    5.0098   -4.0562    4.0185 C   0  0  0  0  0  0  0  0  0  0  0  0
    4.2021   -5.1464    4.8570 C   0  0  2  0  0  0  0  0  0  0  0  0
    3.6877   -6.4169    4.2945 O   0  0  0  0  0  0  0  0  0  0  0  0
    4.1838   -7.7401    3.9532 C   0  0  2  0  0  0  0  0  0  0  0  0
    5.4048   -7.5375    3.3155 O   0  0  0  0  0  0  0  0  0  0  0  0
    3.2527   -8.4737    2.7155 C   0  0  1  0  0  0  0  0  0  0  0  0
    4.0221   -9.6383    2.0386 C   0  0  0  0  0  0  0  0  0  0  0  0
    1.8764   -9.0641    2.8944 O   0  0  0  0  0  0  0  0  0  0  0  0
    0.6743   -8.2258    2.8357 C   0  0  1  0  0  0  0  0  0  0  0  0
   -0.5103   -8.7936    3.3005 O   0  0  0  0  0  0  0  0  0  0  0  0
   -1.0813   -9.7296    2.3995 C   0  0  0  0  0  0  0  0  0  0  0  0
    1.1785   -7.0534    3.6909 C   0  0  1  0  0  0  0  0  0  0  0  0
    0.5346   -5.6817    4.1604 C   0  0  0  0  0  0  0  0  0  0  0  0
    1.5332   -4.4368    4.6234 C   0  0  2  0  0  0  0  0  0  0  0  0
    1.5677   -3.2586    3.5009 C   0  0  1  0  0  0  0  0  0  0  0  0
    0.7078   -2.2123    3.9604 O   0  0  0  0  0  0  0  0  0  0  0  0
    2.8869   -4.5105    5.5709 C   0  0  2  0  0  0  0  0  0  0  0  0
    2.8999   -3.1114    5.7685 O   0  0  0  0  0  0  0  0  0  0  0  0
    2.8368   -4.6570    7.1901 C   0  0  2  0  0  0  0  0  0  0  0  0
    3.8584   -3.8852    8.0971 C   0  0  1  0  0  0  0  0  0  0  0  0
    3.3178   -3.0455    9.1099 O   0  0  0  0  0  0  0  0  0  0  0  0
    4.4897   -5.2200    8.4800 C   0  0  1  0  0  0  0  0  0  0  0  0
    4.9151   -5.3039    9.8400 O   0  0  0  0  0  0  0  0  0  0  0  0
    6.1497   -4.6266   10.0795 C   0  0  0  0  0  0  0  0  0  0  0  0
    3.1593   -5.9309    8.1018 C   0  0  1  0  0  0  0  0  0  0  0  0
    2.2525   -5.9520    9.2029 O   0  0  0  0  0  0  0  0  0  0  0  0
    3.0644   -7.3792    7.4927 C   0  0  2  0  0  0  0  0  0  0  0  0
    2.8555   -8.3673    8.5013 O   0  0  0  0  0  0  0  0  0  0  0  0
    4.3681   -7.8227    6.6722 C   0  0  1  0  0  0  0  0  0  0  0  0
    5.2153   -8.4474    7.6465 O   0  0  0  0  0  0  0  0  0  0  0  0
    4.4681   -8.6016    5.2865 C   0  0  2  0  0  0  0  0  0  0  0  0
    5.8615   -8.9413    5.3036 O   0  0  0  0  0  0  0  0  0  0  0  0
    3.9251  -10.0116    5.2597 C   0  0  1  0  0  0  0  0  0  0  0  0
    3.3253  -10.4591    6.4602 O   0  0  0  0  0  0  0  0  0  0  0  0
    2.4945  -10.4195    5.2879 C   0  0  2  0  0  0  0  0  0  0  0  0
    2.1219  -11.7724    4.6998 C   0  0  0  0  0  0  0  0  0  0  0  0
    1.3092   -9.4960    5.4431 C   0  0  0  0  0  0  0  0  0  0  0  0
    1.4116   -7.9481    5.0721 C   0  0  1  0  0  0  0  0  0  0  0  0
    1.4579   -7.0412    6.6281 S   0  0  0  0  0  0  0  0  0  0  0  0
    0.2703   -7.4515    7.4990 O   0  0  0  0  0  0  0  0  0  0  0  0
    1.9976   -6.4654    2.4082 C   0  0  2  0  0  0  0  0  0  0  0  0
    1.1827   -5.8925    1.3870 O   0  0  0  0  0  0  0  0  0  0  0  0
    2.8946   -7.4532    1.6647 C   0  0  1  0  0  0  0  0  0  0  0  0
    3.9893   -6.8892    1.0151 O   0  0  0  0  0  0  0  0  0  0  0  0
    8.9584   -5.9166    1.8015 H   0  0  0  0  0  0  0  0  0  0  0  0
    7.7112   -6.8832    0.9812 H   0  0  0  0  0  0  0  0  0  0  0  0
    8.1415   -7.2208    2.6535 H   0  0  0  0  0  0  0  0  0  0  0  0
    6.9346   -5.3772    3.4286 H   0  0  0  0  0  0  0  0  0  0  0  0
    5.4236   -1.9798    2.4989 H   0  0  0  0  0  0  0  0  0  0  0  0
    1.6202   -1.1769    2.2643 H   0  0  0  0  0  0  0  0  0  0  0  0
    3.8821   -0.6164    2.8416 H   0  0  0  0  0  0  0  0  0  0  0  0
    2.9418   -0.9095    4.2364 H   0  0  0  0  0  0  0  0  0  0  0  0
    5.8113   -1.0437    3.8886 H   0  0  0  0  0  0  0  0  0  0  0  0
    4.8860   -1.0274    5.3236 H   0  0  0  0  0  0  0  0  0  0  0  0
    5.4307   -3.0942    5.8114 H   0  0  0  0  0  0  0  0  0  0  0  0
    4.9268   -5.3183    5.6250 H   0  0  0  0  0  0  0  0  0  0  0  0
    5.2125   -7.1777    2.4544 H   0  0  0  0  0  0  0  0  0  0  0  0
    5.0137   -9.3686    1.6831 H   0  0  0  0  0  0  0  0  0  0  0  0
    3.4673   -9.9663    1.1562 H   0  0  0  0  0  0  0  0  0  0  0  0
    4.1125  -10.5140    2.6700 H   0  0  0  0  0  0  0  0  0  0  0  0
    0.4076   -8.0221    1.7958 H   0  0  0  0  0  0  0  0  0  0  0  0
   -1.9156  -10.2171    2.8872 H   0  0  0  0  0  0  0  0  0  0  0  0
   -0.3805  -10.5066    2.0851 H   0  0  0  0  0  0  0  0  0  0  0  0
   -1.4825   -9.2244    1.5190 H   0  0  0  0  0  0  0  0  0  0  0  0
   -0.1328   -5.3501    3.3724 H   0  0  0  0  0  0  0  0  0  0  0  0
   -0.2069   -5.8610    4.9434 H   0  0  0  0  0  0  0  0  0  0  0  0
    0.8201   -4.0326    5.3515 H   0  0  0  0  0  0  0  0  0  0  0  0
    1.0190   -3.6735    2.6623 H   0  0  0  0  0  0  0  0  0  0  0  0
    1.1740   -1.7048    4.6133 H   0  0  0  0  0  0  0  0  0  0  0  0
    2.1432   -2.8652    6.2870 H   0  0  0  0  0  0  0  0  0  0  0  0
    1.8544   -4.3023    7.5235 H   0  0  0  0  0  0  0  0  0  0  0  0
    4.5982   -3.2904    7.5770 H   0  0  0  0  0  0  0  0  0  0  0  0
    2.8765   -3.5757    9.7542 H   0  0  0  0  0  0  0  0  0  0  0  0
    5.3182   -5.4226    7.8003 H   0  0  0  0  0  0  0  0  0  0  0  0
    6.4163   -4.6845   11.1337 H   0  0  0  0  0  0  0  0  0  0  0  0
    6.0923   -3.5708    9.8133 H   0  0  0  0  0  0  0  0  0  0  0  0
    6.9661   -5.0691    9.5078 H   0  0  0  0  0  0  0  0  0  0  0  0
    2.5012   -5.2452    9.7663 H   0  0  0  0  0  0  0  0  0  0  0  0
    2.8494   -9.2164    8.0762 H   0  0  0  0  0  0  0  0  0  0  0  0
    4.9923   -6.9798    6.5208 H   0  0  0  0  0  0  0  0  0  0  0  0
    4.8111   -9.2816    7.8692 H   0  0  0  0  0  0  0  0  0  0  0  0
    6.0590   -9.4071    4.5052 H   0  0  0  0  0  0  0  0  0  0  0  0
    4.5762  -10.7433    4.7977 H   0  0  0  0  0  0  0  0  0  0  0  0
    1.7771  -11.6682    3.6686 H   0  0  0  0  0  0  0  0  0  0  0  0
    1.3322  -12.2367    5.2753 H   0  0  0  0  0  0  0  0  0  0  0  0
    2.9861  -12.4376    4.6984 H   0  0  0  0  0  0  0  0  0  0  0  0
    0.4720   -9.9844    4.9571 H   0  0  0  0  0  0  0  0  0  0  0  0
    1.0259   -9.5927    6.4933 H   0  0  0  0  0  0  0  0  0  0  0  0
    0.3319   -7.9138    5.2233 H   0  0  0  0  0  0  0  0  0  0  0  0
    2.5638   -5.6084    2.6717 H   0  0  0  0  0  0  0  0  0  0  0  0
    1.7789   -5.5441    0.7300 H   0  0  0  0  0  0  0  0  0  0  0  0
    2.3519   -7.9656    0.8814 H   0  0  0  0  0  0  0  0  0  0  0  0
    3.7073   -6.3889    0.2541 H   0  0  0  0  0  0  0  0  0  0  0  0
  1  2  1  0
  1 58  1  0
  1 59  1  0
  1 60  1  0
  2  3  1  0
  2 61  1  0
  3  4  2  0
  3  5  1  0
  5 14  1  0
  5  6  1  1
  5  7  1  0
  6 62  1  0
  7  8  2  0
  7  9  1  0
  9 28  1  0
  9 10  1  6
  9 11  1  0
 10 63  1  0
 11 12  1  0
 11 64  1  0
 11 65  1  0
 12 13  1  0
 12 66  1  0
 12 67  1  0
 13 14  2  0
 13 68  1  0
 14 15  1  0
 15 30  1  0
 15 16  1  0
 15 69  1  1
 16 17  1  0
 17 44  1  0
 17 18  1  6
 17 19  1  0
 18 70  1  0
 19 56  1  0
 19 20  1  6
 19 21  1  0
 20 71  1  0
 20 72  1  0
 20 73  1  0
 21 22  1  0
 22 23  1  0
 22 25  1  0
 22 74  1  6
 23 24  1  0
 24 75  1  0
 24 76  1  0
 24 77  1  0
 25 51  1  0
 25 26  1  1
 25 54  1  0
 26 27  1  0
 26 78  1  0
 26 79  1  0
 27 28  1  0
 27 30  1  0
 27 80  1  1
 28 29  1  0
 28 81  1  6
 29 82  1  0
 30 31  1  1
 30 32  1  0
 31 83  1  0
 32 38  1  0
 32 33  1  0
 32 84  1  1
 33 34  1  0
 33 35  1  0
 33 85  1  6
 34 86  1  0
 35 36  1  0
 35 38  1  0
 35 87  1  6
 36 37  1  0
 37 88  1  0
 37 89  1  0
 37 90  1  0
 38 39  1  1
 38 40  1  0
 39 91  1  0
 52 40  1  1
 40 41  1  1
 40 42  1  0
 41 92  1  0
 42 43  1  0
 42 44  1  0
 42 93  1  6
 43 94  1  0
 44 45  1  6
 44 46  1  0
 45 95  1  0
 46 48  1  0
 46 47  1  0
 46 96  1  6
 47 48  1  0
 48 49  1  6
 48 50  1  0
 49 97  1  0
 49 98  1  0
 49 99  1  0
 50 51  1  0
 50100  1  0
 50101  1  0
 51 52  1  0
 51102  1  6
 52 53  2  0
 54 55  1  0
 54 56  1  0
 54103  1  1
 55104  1  0
 56 57  1  0
 56105  1  6
 57106  1  0
M  END
>  <i_m_ct_stereo_status>  (50) 
1

>  <s_m_source_file>  (50) 
/var/tmp/pbs.5075288.sched01/tmpq0rgj53d/65gxdktgdh.sdf

>  <i_m_source_file_index>  (50) 
1

>  <i_lp_mmshare_version>  (50) 
48012

>  <i_f3d_flags>  (50) 
0

>  <s_epik_input>  (50) 
W09IXVtDQEhdMVtDQEBIXShPW0NIM10pW0NAXShbT0hdKShbQ0BAXShbT0hdKShbUytdMltPLV0pW0NASF0zW09IXSlbQ0BIXTFbQ0BdNChbT0hdKVtDQEhdKFtDSDJdNSlbQ0BASF0oW09IXSlbQ0BdKFtPSF0pKEMoPU8pW0NAXTYoW09IXSlDKD1PKVtOSF1bQ0gzXSlbQ0gyXVtDSDJdW0NIXT1DNltDQEBIXTRPW0NAXShbT0hdKShbQ0BdKFtDSDNdKShbQ0BIXShbT0hdKVtDQEBIXTdbT0hdKU9bQ0BIXThPW0NIM10pW0NAXTMoW09IXSlbQ0BASF0oTzkpW0NAXTkoW0NIM10pW0NIMl1bQ0BASF0yQzU3OA==

>  <s_epik_cmdline>  (50) 
J2VwaWtfcHl0aG9uJywgJy1waHQnLCAnMi4wJywgJy1waCcsICc3LjAnLCAnLXRuJywgJzgnLCAnLW1hJywgJzIwMCcsICctaW1hZScsICc8aW5maWxlLm1hZT4nLCAnLW9tYWUnLCAnPG91dGZpbGUubWFlPic=

>  <r_lp_tautomer_probability>  (50) 
1

>  <r_epik_Ionization_Penalty>  (50) 
1.40957e-05

>  <r_epik_Ionization_Penalty_Charging>  (50) 
0

>  <r_epik_Ionization_Penalty_Neutral>  (50) 
1.40957e-05

>  <r_epik_State_Penalty>  (50) 
-0

>  <r_epik_Charging_Adjusted_Penalty>  (50) 
0

>  <i_epik_Tot_Q>  (50) 
0

>  <i_epik_Tot_abs_Q>  (50) 
2

>  <s_epik_Chemistry_Notes>  (50) 
This compound contains an acetal/aminal-like group ( X-CH(R)-Y where X, Y are N, S, or O) that may be acid/base labile, releasing an aldehyde.

>  <s_lp_Force_Field>  (50) 
OPLS3e

>  <r_lp_Energy>  (50) 
484.472

>  <b_lp_Chiralities_Consistent>  (50) 
1

>  <s_lp_Variant>  (50) 
14:0-18

>  <s_i_glide_gridfile>  (50) 
pfpi4k_grid

>  <i_i_glide_lignum>  (50) 
1

>  <i_i_glide_rotatable_bonds>  (50) 
16

>  <r_i_docking_score>  (50) 
-4.34682

>  <r_i_glide_ligand_efficiency>  (50) 
-0.07626

>  <r_i_glide_ligand_efficiency_sa>  (50) 
-0.293487

>  <r_i_glide_ligand_efficiency_ln>  (50) 
-0.861942

>  <r_i_glide_gscore>  (50) 
-4.34682

>  <r_i_glide_lipo>  (50) 
-0.341676

>  <r_i_glide_hbond>  (50) 
0

>  <r_i_glide_metal>  (50) 
-0

>  <r_i_glide_rewards>  (50) 
-2.08633

>  <r_i_glide_evdw>  (50) 
-29.6284

>  <r_i_glide_ecoul>  (50) 
-2.90934

>  <r_i_glide_erotb>  (50) 
0.0313225

>  <r_i_glide_esite>  (50) 
-0.0323199

>  <r_i_glide_emodel>  (50) 
-60.385

>  <r_i_glide_energy>  (50) 
-32.5377

>  <r_i_glide_einternal>  (50) 
2.8979

>  <r_i_glide_intrahb_reward>  (50) 
-2

>  <i_i_glide_confnum>  (50) 
4

>  <i_i_glide_posenum>  (50) 
23

>  <r_i_glide_eff_state_penalty>  (50) 
0

>  <ligand_id>  (50) 
14

>  <original_smiles>  (50) 
CNC(=O)C1(O)C(=O)C2(O)CCC=C1C1OC3(O)C4(C)OC(OC)C5(CC(C2O)C1(O)C1C(O)C(OC)C1(O)C1(O)C(O)C3(O)C2OC2(C)CC5[S+]1[O-])C(O)C4O

>  <smiles>  (50) 
[H]OC1(C(=O)N([H])C([H])([H])[H])C(=O)C2(O[H])C([H])([H])C([H])([H])C([H])=C1C1([H])OC3(O[H])C4(C([H])([H])[H])OC([H])(OC([H])([H])[H])C5(C([H])([H])C([H])(C2([H])O[H])C1(O[H])C1([H])C([H])(O[H])C([H])(OC([H])([H])[H])C1(O[H])C1(O[H])S(=O)C5([H])C([H])([H])C2(C([H])([H])[H])OC2([H])C3(O[H])C1([H])O[H])C([H])(O[H])C4([H])O[H]

$$$$
14:17:2
     RDKit          3D

106114  0  0  1  0  0  0  0  0999 V2000
    7.7795   -6.2543    2.0017 C   0  0  0  0  0  0  0  0  0  0  0  0
    6.7103   -5.4482    2.5816 N   0  0  0  0  0  0  0  0  0  0  0  0
    5.6826   -4.8782    1.9359 C   0  0  0  0  0  0  0  0  0  0  0  0
    5.6491   -4.8428    0.6958 O   0  0  0  0  0  0  0  0  0  0  0  0
    4.7477   -4.0027    2.8032 C   0  0  1  0  0  0  0  0  0  0  0  0
    5.4119   -2.7786    2.5261 O   0  0  0  0  0  0  0  0  0  0  0  0
    3.3245   -3.6880    2.3236 C   0  0  0  0  0  0  0  0  0  0  0  0
    2.9307   -3.9793    1.1917 O   0  0  0  0  0  0  0  0  0  0  0  0
    2.4033   -2.8501    3.2731 C   0  0  2  0  0  0  0  0  0  0  0  0
    1.6375   -1.9952    2.4260 O   0  0  0  0  0  0  0  0  0  0  0  0
    3.1393   -1.7103    4.1271 C   0  0  0  0  0  0  0  0  0  0  0  0
    4.5127   -1.8573    4.8992 C   0  0  0  0  0  0  0  0  0  0  0  0
    5.0044   -3.2765    5.1434 C   0  0  0  0  0  0  0  0  0  0  0  0
    4.6562   -4.2971    4.3269 C   0  0  0  0  0  0  0  0  0  0  0  0
    3.9487   -5.5062    5.0718 C   0  0  2  0  0  0  0  0  0  0  0  0
    3.4913   -6.7477    4.4128 O   0  0  0  0  0  0  0  0  0  0  0  0
    4.0699   -8.0017    3.9450 C   0  0  2  0  0  0  0  0  0  0  0  0
    5.2790   -7.6512    3.3541 O   0  0  0  0  0  0  0  0  0  0  0  0
    3.1778   -8.6677    2.6493 C   0  0  1  0  0  0  0  0  0  0  0  0
    4.0182   -9.7232    1.8756 C   0  0  0  0  0  0  0  0  0  0  0  0
    1.8635   -9.3606    2.8191 O   0  0  0  0  0  0  0  0  0  0  0  0
    0.5992   -8.6331    2.8295 C   0  0  1  0  0  0  0  0  0  0  0  0
   -0.5180   -9.3655    3.2427 O   0  0  0  0  0  0  0  0  0  0  0  0
   -1.7706   -8.7420    3.0219 C   0  0  0  0  0  0  0  0  0  0  0  0
    1.0369   -7.4903    3.7690 C   0  0  1  0  0  0  0  0  0  0  0  0
    0.3012   -6.2111    4.3697 C   0  0  0  0  0  0  0  0  0  0  0  0
    1.2313   -4.9528    4.9328 C   0  0  2  0  0  0  0  0  0  0  0  0
    1.1772   -3.6847    3.9186 C   0  0  1  0  0  0  0  0  0  0  0  0
    0.2529   -2.7436    4.4628 O   0  0  0  0  0  0  0  0  0  0  0  0
    2.6108   -5.0208    5.8443 C   0  0  2  0  0  0  0  0  0  0  0  0
    2.5235   -3.6541    6.1618 O   0  0  0  0  0  0  0  0  0  0  0  0
    2.5981   -5.3052    7.4421 C   0  0  2  0  0  0  0  0  0  0  0  0
    3.5853   -4.5559    8.4165 C   0  0  1  0  0  0  0  0  0  0  0  0
    3.0069   -3.8950    9.5261 O   0  0  0  0  0  0  0  0  0  0  0  0
    4.3017   -5.8759    8.6702 C   0  0  1  0  0  0  0  0  0  0  0  0
    4.7635   -6.0693   10.0082 O   0  0  0  0  0  0  0  0  0  0  0  0
    5.9374   -5.3157   10.2979 C   0  0  0  0  0  0  0  0  0  0  0  0
    3.0090   -6.6316    8.2411 C   0  0  1  0  0  0  0  0  0  0  0  0
    2.1556   -6.8026    9.3615 O   0  0  0  0  0  0  0  0  0  0  0  0
    2.9814   -8.0360    7.5116 C   0  0  2  0  0  0  0  0  0  0  0  0
    2.8596   -9.1065    8.4447 O   0  0  0  0  0  0  0  0  0  0  0  0
    4.2996   -8.3149    6.6378 C   0  0  1  0  0  0  0  0  0  0  0  0
    5.1930   -8.9671    7.5490 O   0  0  0  0  0  0  0  0  0  0  0  0
    4.4414   -8.9624    5.1917 C   0  0  2  0  0  0  0  0  0  0  0  0
    5.8583   -9.2000    5.1612 O   0  0  0  0  0  0  0  0  0  0  0  0
    3.9805  -10.3888    5.0479 C   0  0  1  0  0  0  0  0  0  0  0  0
    3.4359  -10.9755    6.2095 O   0  0  0  0  0  0  0  0  0  0  0  0
    2.5916  -10.8811    5.0518 C   0  0  2  0  0  0  0  0  0  0  0  0
    2.2917  -12.2025    4.3607 C   0  0  0  0  0  0  0  0  0  0  0  0
    1.3419  -10.0649    5.3018 C   0  0  0  0  0  0  0  0  0  0  0  0
    1.3402   -8.4817    5.0673 C   0  0  1  0  0  0  0  0  0  0  0  0
    1.3423   -7.6974    6.6976 S   0  0  0  0  0  0  0  0  0  0  0  0
    0.2272   -8.2910    7.5416 O   0  0  0  0  0  0  0  0  0  0  0  0
    1.7850   -6.7371    2.5369 C   0  0  2  0  0  0  0  0  0  0  0  0
    0.8520   -6.1714    1.6107 O   0  0  0  0  0  0  0  0  0  0  0  0
    2.7345   -7.5981    1.7014 C   0  0  1  0  0  0  0  0  0  0  0  0
    3.7638   -6.9302    1.0523 O   0  0  0  0  0  0  0  0  0  0  0  0
    8.6973   -5.6689    1.9022 H   0  0  0  0  0  0  0  0  0  0  0  0
    7.5077   -6.6639    1.0244 H   0  0  0  0  0  0  0  0  0  0  0  0
    8.0051   -7.1014    2.6592 H   0  0  0  0  0  0  0  0  0  0  0  0
    6.6623   -5.4343    3.5928 H   0  0  0  0  0  0  0  0  0  0  0  0
    5.3494   -2.6552    1.5821 H   0  0  0  0  0  0  0  0  0  0  0  0
    2.2371   -1.5135    1.8672 H   0  0  0  0  0  0  0  0  0  0  0  0
    3.3182   -0.8471    3.4742 H   0  0  0  0  0  0  0  0  0  0  0  0
    2.4084   -1.3253    4.8438 H   0  0  0  0  0  0  0  0  0  0  0  0
    5.2999   -1.2612    4.4380 H   0  0  0  0  0  0  0  0  0  0  0  0
    4.3899   -1.3999    5.8849 H   0  0  0  0  0  0  0  0  0  0  0  0
    5.0939   -3.4721    6.1859 H   0  0  0  0  0  0  0  0  0  0  0  0
    4.6957   -5.6951    5.8127 H   0  0  0  0  0  0  0  0  0  0  0  0
    5.6454   -8.4358    2.9409 H   0  0  0  0  0  0  0  0  0  0  0  0
    4.9855   -9.3731    1.5293 H   0  0  0  0  0  0  0  0  0  0  0  0
    3.4584  -10.0020    0.9816 H   0  0  0  0  0  0  0  0  0  0  0  0
    4.1603  -10.6520    2.4235 H   0  0  0  0  0  0  0  0  0  0  0  0
    0.3141   -8.4071    1.8016 H   0  0  0  0  0  0  0  0  0  0  0  0
   -2.5605   -9.4479    3.2744 H   0  0  0  0  0  0  0  0  0  0  0  0
   -1.9147   -8.4540    1.9791 H   0  0  0  0  0  0  0  0  0  0  0  0
   -1.8961   -7.8634    3.6564 H   0  0  0  0  0  0  0  0  0  0  0  0
   -0.4172   -5.8321    3.6430 H   0  0  0  0  0  0  0  0  0  0  0  0
   -0.4092   -6.4952    5.1511 H   0  0  0  0  0  0  0  0  0  0  0  0
    0.5149   -4.6424    5.7012 H   0  0  0  0  0  0  0  0  0  0  0  0
    0.6321   -4.0426    3.0485 H   0  0  0  0  0  0  0  0  0  0  0  0
    0.1998   -2.0496    3.8116 H   0  0  0  0  0  0  0  0  0  0  0  0
    3.2761   -3.3891    6.6689 H   0  0  0  0  0  0  0  0  0  0  0  0
    1.6075   -5.0451    7.8323 H   0  0  0  0  0  0  0  0  0  0  0  0
    4.2801   -3.8655    7.9584 H   0  0  0  0  0  0  0  0  0  0  0  0
    3.7232   -3.6150   10.0787 H   0  0  0  0  0  0  0  0  0  0  0  0
    5.1164   -5.9705    7.9561 H   0  0  0  0  0  0  0  0  0  0  0  0
    6.2184   -5.4433   11.3411 H   0  0  0  0  0  0  0  0  0  0  0  0
    5.8015   -4.2450   10.1283 H   0  0  0  0  0  0  0  0  0  0  0  0
    6.7784   -5.6396    9.6846 H   0  0  0  0  0  0  0  0  0  0  0  0
    2.5722   -7.4856    9.8730 H   0  0  0  0  0  0  0  0  0  0  0  0
    2.7093   -9.9003    7.9402 H   0  0  0  0  0  0  0  0  0  0  0  0
    4.8789   -7.4216    6.5593 H   0  0  0  0  0  0  0  0  0  0  0  0
    4.8089   -9.8233    7.7373 H   0  0  0  0  0  0  0  0  0  0  0  0
    6.0764   -9.7214    4.4010 H   0  0  0  0  0  0  0  0  0  0  0  0
    4.6723  -11.0396    4.5158 H   0  0  0  0  0  0  0  0  0  0  0  0
    1.9304  -12.0356    3.3457 H   0  0  0  0  0  0  0  0  0  0  0  0
    1.5452  -12.7669    4.9010 H   0  0  0  0  0  0  0  0  0  0  0  0
    3.2046  -12.7971    4.2950 H   0  0  0  0  0  0  0  0  0  0  0  0
    0.5359  -10.5682    4.7923 H   0  0  0  0  0  0  0  0  0  0  0  0
    1.0810  -10.2566    6.3430 H   0  0  0  0  0  0  0  0  0  0  0  0
    0.2625   -8.5315    5.2317 H   0  0  0  0  0  0  0  0  0  0  0  0
    2.3080   -5.8714    2.8589 H   0  0  0  0  0  0  0  0  0  0  0  0
    0.5434   -6.8676    1.0349 H   0  0  0  0  0  0  0  0  0  0  0  0
    2.1971   -8.0803    0.8868 H   0  0  0  0  0  0  0  0  0  0  0  0
    4.2430   -7.5357    0.4968 H   0  0  0  0  0  0  0  0  0  0  0  0
  1  2  1  0
  1 58  1  0
  1 59  1  0
  1 60  1  0
  2  3  1  0
  2 61  1  0
  3  4  2  0
  3  5  1  0
  5 14  1  0
  5  6  1  1
  5  7  1  0
  6 62  1  0
  7  8  2  0
  7  9  1  0
  9 28  1  0
  9 10  1  6
  9 11  1  0
 10 63  1  0
 11 12  1  0
 11 64  1  0
 11 65  1  0
 12 13  1  0
 12 66  1  0
 12 67  1  0
 13 14  2  0
 13 68  1  0
 14 15  1  0
 15 30  1  0
 15 16  1  0
 15 69  1  1
 16 17  1  0
 17 44  1  0
 17 18  1  6
 17 19  1  0
 18 70  1  0
 19 56  1  0
 19 20  1  6
 19 21  1  0
 20 71  1  0
 20 72  1  0
 20 73  1  0
 21 22  1  0
 22 23  1  0
 22 25  1  0
 22 74  1  6
 23 24  1  0
 24 75  1  0
 24 76  1  0
 24 77  1  0
 25 51  1  0
 25 26  1  1
 25 54  1  0
 26 27  1  0
 26 78  1  0
 26 79  1  0
 27 28  1  0
 27 30  1  0
 27 80  1  1
 28 29  1  0
 28 81  1  6
 29 82  1  0
 30 31  1  1
 30 32  1  0
 31 83  1  0
 32 38  1  0
 32 33  1  0
 32 84  1  1
 33 34  1  0
 33 35  1  0
 33 85  1  6
 34 86  1  0
 35 36  1  0
 35 38  1  0
 35 87  1  6
 36 37  1  0
 37 88  1  0
 37 89  1  0
 37 90  1  0
 38 39  1  1
 38 40  1  0
 39 91  1  0
 52 40  1  1
 40 41  1  1
 40 42  1  0
 41 92  1  0
 42 43  1  0
 42 44  1  0
 42 93  1  6
 43 94  1  0
 44 45  1  6
 44 46  1  0
 45 95  1  0
 46 48  1  0
 46 47  1  0
 46 96  1  6
 47 48  1  0
 48 49  1  6
 48 50  1  0
 49 97  1  0
 49 98  1  0
 49 99  1  0
 50 51  1  0
 50100  1  0
 50101  1  0
 51 52  1  0
 51102  1  6
 52 53  2  0
 54 55  1  0
 54 56  1  0
 54103  1  1
 55104  1  0
 56 57  1  0
 56105  1  6
 57106  1  0
M  END
>  <i_m_ct_stereo_status>  (51) 
1

>  <s_m_source_file>  (51) 
/var/tmp/pbs.5075288.sched01/tmpq0rgj53d/65gxdktgdh.sdf

>  <i_m_source_file_index>  (51) 
1

>  <i_lp_mmshare_version>  (51) 
48012

>  <i_f3d_flags>  (51) 
0

>  <s_epik_input>  (51) 
W09IXVtDQEhdMVtDQEBIXShPW0NIM10pW0NAXShbT0hdKShbQ0BAXShbT0hdKShbUytdMltPLV0pW0NASF0zW09IXSlbQ0BIXTFbQ0BdNChbT0hdKVtDQEhdKFtDSDJdNSlbQ0BASF0oW09IXSlbQ0BdKFtPSF0pKEMoPU8pW0NAXTYoW09IXSlDKD1PKVtOSF1bQ0gzXSlbQ0gyXVtDSDJdW0NIXT1DNltDQEBIXTRPW0NAXShbT0hdKShbQ0BdKFtDSDNdKShbQ0BIXShbT0hdKVtDQEBIXTdbT0hdKU9bQ0BIXThPW0NIM10pW0NAXTMoW09IXSlbQ0BASF0oTzkpW0NAXTkoW0NIM10pW0NIMl1bQ0BASF0yQzU3OA==

>  <s_epik_cmdline>  (51) 
J2VwaWtfcHl0aG9uJywgJy1waHQnLCAnMi4wJywgJy1waCcsICc3LjAnLCAnLXRuJywgJzgnLCAnLW1hJywgJzIwMCcsICctaW1hZScsICc8aW5maWxlLm1hZT4nLCAnLW9tYWUnLCAnPG91dGZpbGUubWFlPic=

>  <r_lp_tautomer_probability>  (51) 
1

>  <r_epik_Ionization_Penalty>  (51) 
1.40957e-05

>  <r_epik_Ionization_Penalty_Charging>  (51) 
0

>  <r_epik_Ionization_Penalty_Neutral>  (51) 
1.40957e-05

>  <r_epik_State_Penalty>  (51) 
-0

>  <r_epik_Charging_Adjusted_Penalty>  (51) 
0

>  <i_epik_Tot_Q>  (51) 
0

>  <i_epik_Tot_abs_Q>  (51) 
2

>  <s_epik_Chemistry_Notes>  (51) 
This compound contains an acetal/aminal-like group ( X-CH(R)-Y where X, Y are N, S, or O) that may be acid/base labile, releasing an aldehyde.

>  <s_lp_Force_Field>  (51) 
OPLS3e

>  <r_lp_Energy>  (51) 
484.472

>  <b_lp_Chiralities_Consistent>  (51) 
1

>  <s_lp_Variant>  (51) 
14:0-18

>  <s_i_glide_gridfile>  (51) 
pfpi4k_grid

>  <i_i_glide_lignum>  (51) 
1

>  <i_i_glide_rotatable_bonds>  (51) 
16

>  <r_i_docking_score>  (51) 
-3.18348

>  <r_i_glide_ligand_efficiency>  (51) 
-0.0558506

>  <r_i_glide_ligand_efficiency_sa>  (51) 
-0.214941

>  <r_i_glide_ligand_efficiency_ln>  (51) 
-0.631261

>  <r_i_glide_gscore>  (51) 
-3.18348

>  <r_i_glide_lipo>  (51) 
-0.0764174

>  <r_i_glide_hbond>  (51) 
0

>  <r_i_glide_metal>  (51) 
-0

>  <r_i_glide_rewards>  (51) 
-1.05496

>  <r_i_glide_evdw>  (51) 
-32.6084

>  <r_i_glide_ecoul>  (51) 
-2.77676

>  <r_i_glide_erotb>  (51) 
0.0313225

>  <r_i_glide_esite>  (51) 
-0.0364956

>  <r_i_glide_emodel>  (51) 
-45.9693

>  <r_i_glide_energy>  (51) 
-35.3851

>  <r_i_glide_einternal>  (51) 
11.0176

>  <r_i_glide_intrahb_reward>  (51) 
-1

>  <i_i_glide_confnum>  (51) 
4

>  <i_i_glide_posenum>  (51) 
13

>  <r_i_glide_eff_state_penalty>  (51) 
0

>  <ligand_id>  (51) 
14

>  <original_smiles>  (51) 
CNC(=O)C1(O)C(=O)C2(O)CCC=C1C1OC3(O)C4(C)OC(OC)C5(CC(C2O)C1(O)C1C(O)C(OC)C1(O)C1(O)C(O)C3(O)C2OC2(C)CC5[S+]1[O-])C(O)C4O

>  <smiles>  (51) 
[H]OC1(C(=O)N([H])C([H])([H])[H])C(=O)C2(O[H])C([H])([H])C([H])([H])C([H])=C1C1([H])OC3(O[H])C4(C([H])([H])[H])OC([H])(OC([H])([H])[H])C5(C([H])([H])C([H])(C2([H])O[H])C1(O[H])C1([H])C([H])(O[H])C([H])(OC([H])([H])[H])C1(O[H])C1(O[H])S(=O)C5([H])C([H])([H])C2(C([H])([H])[H])OC2([H])C3(O[H])C1([H])O[H])C([H])(O[H])C4([H])O[H]

$$$$
14:19:0
     RDKit          3D

106114  0  0  1  0  0  0  0  0999 V2000
    9.0101   -8.1832    3.8685 C   0  0  0  0  0  0  0  0  0  0  0  0
    8.1028   -7.4397    2.9971 N   0  0  0  0  0  0  0  0  0  0  0  0
    7.4163   -6.3355    3.4203 C   0  0  0  0  0  0  0  0  0  0  0  0
    7.6382   -5.8545    4.5056 O   0  0  0  0  0  0  0  0  0  0  0  0
    6.4799   -5.6151    2.4231 C   0  0  1  0  0  0  0  0  0  0  0  0
    7.4116   -5.2837    1.4020 O   0  0  0  0  0  0  0  0  0  0  0  0
    5.4120   -6.4697    1.7165 C   0  0  0  0  0  0  0  0  0  0  0  0
    5.4598   -7.7004    1.7707 O   0  0  0  0  0  0  0  0  0  0  0  0
    4.3293   -5.7726    0.8319 C   0  0  2  0  0  0  0  0  0  0  0  0
    4.2030   -6.6403   -0.2726 O   0  0  0  0  0  0  0  0  0  0  0  0
    4.7963   -4.4248    0.0777 C   0  0  0  0  0  0  0  0  0  0  0  0
    5.7225   -3.2768    0.6725 C   0  0  0  0  0  0  0  0  0  0  0  0
    5.7962   -3.2350    2.1892 C   0  0  0  0  0  0  0  0  0  0  0  0
    5.7214   -4.3533    2.9333 C   0  0  0  0  0  0  0  0  0  0  0  0
    4.6294   -4.3468    4.0802 C   0  0  2  0  0  0  0  0  0  0  0  0
    4.5144   -5.5063    4.9251 O   0  0  0  0  0  0  0  0  0  0  0  0
    4.6027   -5.7723    6.3492 C   0  0  2  0  0  0  0  0  0  0  0  0
    5.9769   -5.7156    6.6561 O   0  0  0  0  0  0  0  0  0  0  0  0
    4.2308   -7.4719    6.5468 C   0  0  1  0  0  0  0  0  0  0  0  0
    5.1398   -8.1207    7.6273 C   0  0  0  0  0  0  0  0  0  0  0  0
    2.8617   -8.0511    6.8552 O   0  0  0  0  0  0  0  0  0  0  0  0
    1.8167   -8.2699    5.8494 C   0  0  1  0  0  0  0  0  0  0  0  0
    0.5084   -8.3364    6.3150 O   0  0  0  0  0  0  0  0  0  0  0  0
    0.2158   -9.5437    7.0056 C   0  0  0  0  0  0  0  0  0  0  0  0
    2.0468   -7.0308    4.9890 C   0  0  1  0  0  0  0  0  0  0  0  0
    1.4185   -6.4689    3.6520 C   0  0  0  0  0  0  0  0  0  0  0  0
    2.2496   -5.2852    2.8491 C   0  0  2  0  0  0  0  0  0  0  0  0
    2.8167   -5.8739    1.4253 C   0  0  1  0  0  0  0  0  0  0  0  0
    1.8701   -5.4613    0.4389 O   0  0  0  0  0  0  0  0  0  0  0  0
    3.1466   -4.0364    3.4496 C   0  0  2  0  0  0  0  0  0  0  0  0
    3.1380   -3.3924    2.2053 O   0  0  0  0  0  0  0  0  0  0  0  0
    2.6120   -2.7057    4.1199 C   0  0  1  0  0  0  0  0  0  0  0  0
    2.4192   -1.2543    3.5488 C   0  0  1  0  0  0  0  0  0  0  0  0
    1.6552   -1.0393    2.3707 O   0  0  0  0  0  0  0  0  0  0  0  0
    1.6786   -0.9663    4.8644 C   0  0  1  0  0  0  0  0  0  0  0  0
    0.5677   -0.0762    4.7182 O   0  0  0  0  0  0  0  0  0  0  0  0
    0.9545    1.2910    4.5600 C   0  0  0  0  0  0  0  0  0  0  0  0
    1.3464   -2.4900    4.9427 C   0  0  1  0  0  0  0  0  0  0  0  0
    0.2157   -2.7333    4.1445 O   0  0  0  0  0  0  0  0  0  0  0  0
    1.3093   -3.2394    6.3065 C   0  0  2  0  0  0  0  0  0  0  0  0
    0.5325   -2.3716    7.1087 O   0  0  0  0  0  0  0  0  0  0  0  0
    2.8116   -3.3718    7.0515 C   0  0  1  0  0  0  0  0  0  0  0  0
    2.6222   -2.6733    8.2826 O   0  0  0  0  0  0  0  0  0  0  0  0
    3.9534   -4.5787    7.3722 C   0  0  2  0  0  0  0  0  0  0  0  0
    5.0058   -3.6987    7.7465 O   0  0  0  0  0  0  0  0  0  0  0  0
    3.7766   -5.3030    8.6845 C   0  0  1  0  0  0  0  0  0  0  0  0
    2.7222   -4.9628    9.5700 O   0  0  0  0  0  0  0  0  0  0  0  0
    2.5858   -6.1827    8.8281 C   0  0  2  0  0  0  0  0  0  0  0  0
    2.5495   -7.3779    9.7691 C   0  0  0  0  0  0  0  0  0  0  0  0
    1.4706   -6.1177    7.7934 C   0  0  0  0  0  0  0  0  0  0  0  0
    1.7510   -5.9335    6.1744 C   0  0  2  0  0  0  0  0  0  0  0  0
    0.3686   -4.8048    5.8483 S   0  0  0  0  0  0  0  0  0  0  0  0
   -0.8244   -5.0446    6.7800 O   0  0  0  0  0  0  0  0  0  0  0  0
    3.3559   -7.7002    4.3001 C   0  0  2  0  0  0  0  0  0  0  0  0
    3.0802   -8.7565    3.3752 O   0  0  0  0  0  0  0  0  0  0  0  0
    4.4166   -8.2467    5.2620 C   0  0  1  0  0  0  0  0  0  0  0  0
    5.7207   -8.2451    4.7791 O   0  0  0  0  0  0  0  0  0  0  0  0
    8.4501   -8.9406    4.4096 H   0  0  0  0  0  0  0  0  0  0  0  0
    9.5255   -7.5584    4.5941 H   0  0  0  0  0  0  0  0  0  0  0  0
    9.7735   -8.6823    3.2731 H   0  0  0  0  0  0  0  0  0  0  0  0
    8.0043   -7.7841    2.0531 H   0  0  0  0  0  0  0  0  0  0  0  0
    7.7977   -6.0933    1.0922 H   0  0  0  0  0  0  0  0  0  0  0  0
    3.7877   -6.2347   -1.0038 H   0  0  0  0  0  0  0  0  0  0  0  0
    5.3189   -4.7155   -0.8343 H   0  0  0  0  0  0  0  0  0  0  0  0
    3.8905   -3.9250   -0.2865 H   0  0  0  0  0  0  0  0  0  0  0  0
    6.7191   -3.2983    0.2365 H   0  0  0  0  0  0  0  0  0  0  0  0
    5.3217   -2.3153    0.3575 H   0  0  0  0  0  0  0  0  0  0  0  0
    5.3586   -2.3292    2.5795 H   0  0  0  0  0  0  0  0  0  0  0  0
    5.0041   -3.5595    4.7291 H   0  0  0  0  0  0  0  0  0  0  0  0
    6.4288   -6.2695    6.0262 H   0  0  0  0  0  0  0  0  0  0  0  0
    6.2025   -8.0851    7.3846 H   0  0  0  0  0  0  0  0  0  0  0  0
    4.8964   -9.1837    7.7227 H   0  0  0  0  0  0  0  0  0  0  0  0
    5.0139   -7.6888    8.6133 H   0  0  0  0  0  0  0  0  0  0  0  0
    1.9605   -9.2334    5.3606 H   0  0  0  0  0  0  0  0  0  0  0  0
   -0.7964   -9.4921    7.4053 H   0  0  0  0  0  0  0  0  0  0  0  0
    0.8954   -9.7218    7.8417 H   0  0  0  0  0  0  0  0  0  0  0  0
    0.2521  -10.4098    6.3423 H   0  0  0  0  0  0  0  0  0  0  0  0
    1.2402   -7.2999    2.9775 H   0  0  0  0  0  0  0  0  0  0  0  0
    0.3761   -6.1904    3.7627 H   0  0  0  0  0  0  0  0  0  0  0  0
    1.3661   -4.7336    2.5304 H   0  0  0  0  0  0  0  0  0  0  0  0
    2.6554   -6.9455    1.4779 H   0  0  0  0  0  0  0  0  0  0  0  0
    2.2154   -5.6839   -0.4151 H   0  0  0  0  0  0  0  0  0  0  0  0
    3.6452   -2.6001    2.2627 H   0  0  0  0  0  0  0  0  0  0  0  0
    3.4548   -2.3921    4.7102 H   0  0  0  0  0  0  0  0  0  0  0  0
    3.3499   -0.6799    3.5126 H   0  0  0  0  0  0  0  0  0  0  0  0
    2.2301   -1.0535    1.6180 H   0  0  0  0  0  0  0  0  0  0  0  0
    2.3488   -0.6666    5.6690 H   0  0  0  0  0  0  0  0  0  0  0  0
    0.1115    1.9014    4.2257 H   0  0  0  0  0  0  0  0  0  0  0  0
    1.7449    1.4193    3.8206 H   0  0  0  0  0  0  0  0  0  0  0  0
    1.3137    1.7028    5.5031 H   0  0  0  0  0  0  0  0  0  0  0  0
    0.3485   -2.1575    3.4033 H   0  0  0  0  0  0  0  0  0  0  0  0
    1.0063   -2.3999    7.9461 H   0  0  0  0  0  0  0  0  0  0  0  0
    3.3968   -2.5837    6.6027 H   0  0  0  0  0  0  0  0  0  0  0  0
    3.4930   -2.5712    8.6414 H   0  0  0  0  0  0  0  0  0  0  0  0
    5.7726   -4.2533    7.8635 H   0  0  0  0  0  0  0  0  0  0  0  0
    4.6894   -5.6112    9.1788 H   0  0  0  0  0  0  0  0  0  0  0  0
    2.6458   -8.3297    9.2431 H   0  0  0  0  0  0  0  0  0  0  0  0
    1.6222   -7.3738   10.3329 H   0  0  0  0  0  0  0  0  0  0  0  0
    3.3758   -7.3086   10.4790 H   0  0  0  0  0  0  0  0  0  0  0  0
    0.7656   -6.9013    8.0398 H   0  0  0  0  0  0  0  0  0  0  0  0
    0.9524   -5.2416    8.1790 H   0  0  0  0  0  0  0  0  0  0  0  0
    2.4036   -5.2135    5.7775 H   0  0  0  0  0  0  0  0  0  0  0  0
    3.8173   -7.0353    3.6032 H   0  0  0  0  0  0  0  0  0  0  0  0
    2.7648   -9.5268    3.8347 H   0  0  0  0  0  0  0  0  0  0  0  0
    4.2274   -9.3044    5.4637 H   0  0  0  0  0  0  0  0  0  0  0  0
    5.7446   -8.7855    3.9953 H   0  0  0  0  0  0  0  0  0  0  0  0
  1  2  1  0
  1 58  1  0
  1 59  1  0
  1 60  1  0
  2  3  1  0
  2 61  1  0
  3  4  2  0
  3  5  1  0
  5 14  1  0
  5  6  1  6
  5  7  1  0
  6 62  1  0
  7  8  2  0
  7  9  1  0
  9 28  1  0
  9 10  1  6
  9 11  1  0
 10 63  1  0
 11 12  1  0
 11 64  1  0
 11 65  1  0
 12 13  1  0
 12 66  1  0
 12 67  1  0
 13 14  2  0
 13 68  1  0
 14 15  1  0
 15 30  1  0
 15 16  1  0
 15 69  1  1
 16 17  1  0
 17 44  1  0
 17 18  1  1
 17 19  1  0
 18 70  1  0
 19 56  1  0
 19 20  1  1
 19 21  1  0
 20 71  1  0
 20 72  1  0
 20 73  1  0
 21 22  1  0
 22 23  1  0
 22 25  1  0
 22 74  1  6
 23 24  1  0
 24 75  1  0
 24 76  1  0
 24 77  1  0
 25 51  1  0
 25 26  1  6
 25 54  1  0
 26 27  1  0
 26 78  1  0
 26 79  1  0
 27 28  1  0
 27 30  1  0
 27 80  1  6
 28 29  1  0
 28 81  1  1
 29 82  1  0
 30 31  1  6
 30 32  1  0
 31 83  1  0
 32 38  1  0
 32 33  1  0
 32 84  1  1
 33 34  1  0
 33 35  1  0
 33 85  1  6
 34 86  1  0
 35 36  1  0
 35 38  1  0
 35 87  1  1
 36 37  1  0
 37 88  1  0
 37 89  1  0
 37 90  1  0
 38 39  1  6
 38 40  1  0
 39 91  1  0
 52 40  1  1
 40 41  1  1
 40 42  1  0
 41 92  1  0
 42 43  1  0
 42 44  1  0
 42 93  1  6
 43 94  1  0
 44 45  1  1
 44 46  1  0
 45 95  1  0
 46 48  1  0
 46 47  1  0
 46 96  1  1
 47 48  1  0
 48 49  1  1
 48 50  1  0
 49 97  1  0
 49 98  1  0
 49 99  1  0
 50 51  1  0
 50100  1  0
 50101  1  0
 51 52  1  0
 51102  1  1
 52 53  2  0
 54 55  1  0
 54 56  1  0
 54103  1  6
 55104  1  0
 56 57  1  0
 56105  1  1
 57106  1  0
M  END
>  <i_m_ct_stereo_status>  (52) 
1

>  <s_m_source_file>  (52) 
/var/tmp/pbs.5075288.sched01/tmpq0rgj53d/65gxdktgdh.sdf

>  <i_m_source_file_index>  (52) 
3

>  <i_lp_mmshare_version>  (52) 
48012

>  <i_f3d_flags>  (52) 
0

>  <s_epik_input>  (52) 
W09IXVtDQEhdMVtDQEBIXShPW0NIM10pW0NAXShbT0hdKShbQ0BAXShbT0hdKShbUytdMltPLV0pW0NASF0zW09IXSlbQ0BIXTFbQ0BdNChbT0hdKVtDQEhdKFtDSDJdNSlbQ0BASF0oW09IXSlbQ0BdKFtPSF0pKEMoPU8pW0NAXTYoW09IXSlDKD1PKVtOSF1bQ0gzXSlbQ0gyXVtDSDJdW0NIXT1DNltDQEBIXTRPW0NAXShbT0hdKShbQ0BdKFtDSDNdKShbQ0BIXShbT0hdKVtDQEBIXTdbT0hdKU9bQ0BIXThPW0NIM10pW0NAXTMoW09IXSlbQ0BASF0oTzkpW0NAXTkoW0NIM10pW0NIMl1bQ0BASF0yQzU3OA==

>  <s_epik_cmdline>  (52) 
J2VwaWtfcHl0aG9uJywgJy1waHQnLCAnMi4wJywgJy1waCcsICc3LjAnLCAnLXRuJywgJzgnLCAnLW1hJywgJzIwMCcsICctaW1hZScsICc8aW5maWxlLm1hZT4nLCAnLW9tYWUnLCAnPG91dGZpbGUubWFlPic=

>  <r_lp_tautomer_probability>  (52) 
1

>  <r_epik_Ionization_Penalty>  (52) 
1.40957e-05

>  <r_epik_Ionization_Penalty_Charging>  (52) 
0

>  <r_epik_Ionization_Penalty_Neutral>  (52) 
1.40957e-05

>  <r_epik_State_Penalty>  (52) 
-0

>  <r_epik_Charging_Adjusted_Penalty>  (52) 
0

>  <i_epik_Tot_Q>  (52) 
0

>  <i_epik_Tot_abs_Q>  (52) 
2

>  <s_epik_Chemistry_Notes>  (52) 
This compound contains an acetal/aminal-like group ( X-CH(R)-Y where X, Y are N, S, or O) that may be acid/base labile, releasing an aldehyde.

>  <s_lp_Force_Field>  (52) 
OPLS3e

>  <r_lp_Energy>  (52) 
505.228

>  <b_lp_Chiralities_Consistent>  (52) 
1

>  <s_lp_Variant>  (52) 
14:0-20

>  <s_i_glide_gridfile>  (52) 
pfpi4k_grid

>  <i_i_glide_lignum>  (52) 
3

>  <i_i_glide_rotatable_bonds>  (52) 
16

>  <r_i_docking_score>  (52) 
-4.50586

>  <r_i_glide_ligand_efficiency>  (52) 
-0.0790502

>  <r_i_glide_ligand_efficiency_sa>  (52) 
-0.304225

>  <r_i_glide_ligand_efficiency_ln>  (52) 
-0.893479

>  <r_i_glide_gscore>  (52) 
-4.50586

>  <r_i_glide_lipo>  (52) 
-0.24321

>  <r_i_glide_hbond>  (52) 
0

>  <r_i_glide_metal>  (52) 
-0

>  <r_i_glide_rewards>  (52) 
-1.59647

>  <r_i_glide_evdw>  (52) 
-25.9547

>  <r_i_glide_ecoul>  (52) 
-9.03865

>  <r_i_glide_erotb>  (52) 
0.0313225

>  <r_i_glide_esite>  (52) 
-0.043971

>  <r_i_glide_emodel>  (52) 
-57.0477

>  <r_i_glide_energy>  (52) 
-34.9934

>  <r_i_glide_einternal>  (52) 
5.93121

>  <r_i_glide_intrahb_reward>  (52) 
-1.5

>  <i_i_glide_confnum>  (52) 
3

>  <i_i_glide_posenum>  (52) 
40

>  <r_i_glide_eff_state_penalty>  (52) 
0

>  <ligand_id>  (52) 
14

>  <original_smiles>  (52) 
CNC(=O)C1(O)C(=O)C2(O)CCC=C1C1OC3(O)C4(C)OC(OC)C5(CC(C2O)C1(O)C1C(O)C(OC)C1(O)C1(O)C(O)C3(O)C2OC2(C)CC5[S+]1[O-])C(O)C4O

>  <smiles>  (52) 
[H]OC1(C(=O)N([H])C([H])([H])[H])C(=O)C2(O[H])C([H])([H])C([H])([H])C([H])=C1C1([H])OC3(O[H])C4(C([H])([H])[H])OC([H])(OC([H])([H])[H])C5(C([H])([H])C([H])(C2([H])O[H])C1(O[H])C1([H])C([H])(O[H])C([H])(OC([H])([H])[H])C1(O[H])C1(O[H])S(=O)C5([H])C([H])([H])C2(C([H])([H])[H])OC2([H])C3(O[H])C1([H])O[H])C([H])(O[H])C4([H])O[H]

$$$$
14:19:1
     RDKit          3D

106114  0  0  1  0  0  0  0  0999 V2000
    8.9277   -8.2500    3.9230 C   0  0  0  0  0  0  0  0  0  0  0  0
    8.0297   -7.4824    3.0627 N   0  0  0  0  0  0  0  0  0  0  0  0
    7.3742   -6.3588    3.4636 C   0  0  0  0  0  0  0  0  0  0  0  0
    7.6626   -5.8195    4.5159 O   0  0  0  0  0  0  0  0  0  0  0  0
    6.4475   -5.6490    2.4597 C   0  0  1  0  0  0  0  0  0  0  0  0
    7.3927   -5.3355    1.4366 O   0  0  0  0  0  0  0  0  0  0  0  0
    5.3754   -6.4973    1.7447 C   0  0  0  0  0  0  0  0  0  0  0  0
    5.3786   -7.7302    1.8186 O   0  0  0  0  0  0  0  0  0  0  0  0
    4.3226   -5.7762    0.8518 C   0  0  2  0  0  0  0  0  0  0  0  0
    4.2167   -6.6451   -0.2778 O   0  0  0  0  0  0  0  0  0  0  0  0
    4.8066   -4.4278    0.1074 C   0  0  0  0  0  0  0  0  0  0  0  0
    5.7290   -3.2886    0.7190 C   0  0  0  0  0  0  0  0  0  0  0  0
    5.7928   -3.2533    2.2358 C   0  0  0  0  0  0  0  0  0  0  0  0
    5.6984   -4.3814    2.9689 C   0  0  0  0  0  0  0  0  0  0  0  0
    4.5973   -4.3768    4.0999 C   0  0  2  0  0  0  0  0  0  0  0  0
    4.4587   -5.5458    4.9313 O   0  0  0  0  0  0  0  0  0  0  0  0
    4.5461   -5.8259    6.3477 C   0  0  2  0  0  0  0  0  0  0  0  0
    5.9203   -5.8080    6.6509 O   0  0  0  0  0  0  0  0  0  0  0  0
    4.1700   -7.5215    6.5378 C   0  0  1  0  0  0  0  0  0  0  0  0
    5.0602   -8.1800    7.6277 C   0  0  0  0  0  0  0  0  0  0  0  0
    2.7935   -8.0893    6.8317 O   0  0  0  0  0  0  0  0  0  0  0  0
    1.7610   -8.3060    5.8150 C   0  0  1  0  0  0  0  0  0  0  0  0
    0.4446   -8.3708    6.2679 O   0  0  0  0  0  0  0  0  0  0  0  0
    0.1288   -9.5950    6.9190 C   0  0  0  0  0  0  0  0  0  0  0  0
    2.0018   -7.0601    4.9709 C   0  0  1  0  0  0  0  0  0  0  0  0
    1.3846   -6.4887    3.6295 C   0  0  0  0  0  0  0  0  0  0  0  0
    2.2278   -5.2979    2.8376 C   0  0  2  0  0  0  0  0  0  0  0  0
    2.8064   -5.8797    1.4258 C   0  0  1  0  0  0  0  0  0  0  0  0
    1.8647   -5.4639    0.4251 O   0  0  0  0  0  0  0  0  0  0  0  0
    3.1245   -4.0561    3.4591 C   0  0  2  0  0  0  0  0  0  0  0  0
    3.1295   -3.3966    2.2210 O   0  0  0  0  0  0  0  0  0  0  0  0
    2.5917   -2.7277    4.1454 C   0  0  1  0  0  0  0  0  0  0  0  0
    2.4095   -1.2710    3.5807 C   0  0  1  0  0  0  0  0  0  0  0  0
    1.6576   -1.0418    2.3966 O   0  0  0  0  0  0  0  0  0  0  0  0
    1.6576   -0.9866    4.8929 C   0  0  1  0  0  0  0  0  0  0  0  0
    0.5488   -0.0911    4.7446 O   0  0  0  0  0  0  0  0  0  0  0  0
    0.9472    1.2744    4.6052 C   0  0  0  0  0  0  0  0  0  0  0  0
    1.3142   -2.5115    4.9525 C   0  0  1  0  0  0  0  0  0  0  0  0
    0.1854   -2.7357    4.1374 O   0  0  0  0  0  0  0  0  0  0  0  0
    1.2530   -3.2868    6.3066 C   0  0  2  0  0  0  0  0  0  0  0  0
    0.4401   -2.4247    7.0812 O   0  0  0  0  0  0  0  0  0  0  0  0
    2.7449   -3.4146    7.0870 C   0  0  1  0  0  0  0  0  0  0  0  0
    2.5028   -2.7721    8.3483 O   0  0  0  0  0  0  0  0  0  0  0  0
    3.9113   -4.6215    7.3836 C   0  0  2  0  0  0  0  0  0  0  0  0
    4.9807   -3.7457    7.7462 O   0  0  0  0  0  0  0  0  0  0  0  0
    3.7065   -5.3523    8.6850 C   0  0  1  0  0  0  0  0  0  0  0  0
    2.6354   -5.0067    9.5503 O   0  0  0  0  0  0  0  0  0  0  0  0
    2.5077   -6.2326    8.8154 C   0  0  2  0  0  0  0  0  0  0  0  0
    2.4572   -7.4316    9.7529 C   0  0  0  0  0  0  0  0  0  0  0  0
    1.4005   -6.1686    7.7731 C   0  0  0  0  0  0  0  0  0  0  0  0
    1.6958   -5.9701    6.1612 C   0  0  2  0  0  0  0  0  0  0  0  0
    0.3076   -4.8440    5.8265 S   0  0  0  0  0  0  0  0  0  0  0  0
   -0.8827   -5.0689    6.7545 O   0  0  0  0  0  0  0  0  0  0  0  0
    3.3202   -7.7234    4.2877 C   0  0  2  0  0  0  0  0  0  0  0  0
    3.0329   -8.7832    3.3798 O   0  0  0  0  0  0  0  0  0  0  0  0
    4.3684   -8.2847    5.2452 C   0  0  1  0  0  0  0  0  0  0  0  0
    5.6763   -8.3032    4.7710 O   0  0  0  0  0  0  0  0  0  0  0  0
    8.3661   -8.9762    4.5097 H   0  0  0  0  0  0  0  0  0  0  0  0
    9.4835   -7.6230    4.6154 H   0  0  0  0  0  0  0  0  0  0  0  0
    9.6539   -8.7927    3.3164 H   0  0  0  0  0  0  0  0  0  0  0  0
    7.9217   -7.7854    2.1067 H   0  0  0  0  0  0  0  0  0  0  0  0
    6.9274   -4.8896    0.7376 H   0  0  0  0  0  0  0  0  0  0  0  0
    3.7861   -6.2232   -0.9922 H   0  0  0  0  0  0  0  0  0  0  0  0
    5.3310   -4.7038   -0.8142 H   0  0  0  0  0  0  0  0  0  0  0  0
    3.9082   -3.9195   -0.2584 H   0  0  0  0  0  0  0  0  0  0  0  0
    6.7309   -3.2815    0.2896 H   0  0  0  0  0  0  0  0  0  0  0  0
    5.3262   -2.3234    0.4147 H   0  0  0  0  0  0  0  0  0  0  0  0
    5.3494   -2.3535    2.6336 H   0  0  0  0  0  0  0  0  0  0  0  0
    4.9692   -3.5993    4.7579 H   0  0  0  0  0  0  0  0  0  0  0  0
    6.2796   -4.9552    6.4712 H   0  0  0  0  0  0  0  0  0  0  0  0
    6.1271   -8.1391    7.3910 H   0  0  0  0  0  0  0  0  0  0  0  0
    4.8146   -9.2422    7.7098 H   0  0  0  0  0  0  0  0  0  0  0  0
    4.9283   -7.7531    8.6181 H   0  0  0  0  0  0  0  0  0  0  0  0
    1.8983   -9.2715    5.3210 H   0  0  0  0  0  0  0  0  0  0  0  0
   -0.8878   -9.5423    7.3079 H   0  0  0  0  0  0  0  0  0  0  0  0
    0.7964   -9.8039    7.7569 H   0  0  0  0  0  0  0  0  0  0  0  0
    0.1661  -10.4410    6.2301 H   0  0  0  0  0  0  0  0  0  0  0  0
    1.2120   -7.3157    2.9462 H   0  0  0  0  0  0  0  0  0  0  0  0
    0.3398   -6.2029    3.7332 H   0  0  0  0  0  0  0  0  0  0  0  0
    1.3386   -4.7374    2.5239 H   0  0  0  0  0  0  0  0  0  0  0  0
    2.6369   -6.9514    1.4665 H   0  0  0  0  0  0  0  0  0  0  0  0
    2.2222   -5.6737   -0.4286 H   0  0  0  0  0  0  0  0  0  0  0  0
    3.6326   -2.6037    2.2962 H   0  0  0  0  0  0  0  0  0  0  0  0
    3.4260   -2.4295    4.7557 H   0  0  0  0  0  0  0  0  0  0  0  0
    3.3390   -0.6955    3.5532 H   0  0  0  0  0  0  0  0  0  0  0  0
    2.2420   -1.0534    1.6523 H   0  0  0  0  0  0  0  0  0  0  0  0
    2.3152   -0.6951    5.7141 H   0  0  0  0  0  0  0  0  0  0  0  0
    0.1083    1.8887    4.2681 H   0  0  0  0  0  0  0  0  0  0  0  0
    1.7483    1.4073    3.8747 H   0  0  0  0  0  0  0  0  0  0  0  0
    1.2927    1.6765    5.5591 H   0  0  0  0  0  0  0  0  0  0  0  0
    0.3173   -2.1625    3.3947 H   0  0  0  0  0  0  0  0  0  0  0  0
    0.9085   -2.3828    7.9152 H   0  0  0  0  0  0  0  0  0  0  0  0
    3.3209   -2.5989    6.6657 H   0  0  0  0  0  0  0  0  0  0  0  0
    2.3545   -3.4667    8.9962 H   0  0  0  0  0  0  0  0  0  0  0  0
    5.2124   -3.2006    7.0043 H   0  0  0  0  0  0  0  0  0  0  0  0
    4.6041   -5.6644    9.1959 H   0  0  0  0  0  0  0  0  0  0  0  0
    2.5521   -8.3818    9.2212 H   0  0  0  0  0  0  0  0  0  0  0  0
    1.5235   -7.4413   10.3096 H   0  0  0  0  0  0  0  0  0  0  0  0
    3.2755   -7.3811   10.4730 H   0  0  0  0  0  0  0  0  0  0  0  0
    0.6889   -6.9559    8.0031 H   0  0  0  0  0  0  0  0  0  0  0  0
    0.8716   -5.3025    8.1586 H   0  0  0  0  0  0  0  0  0  0  0  0
    2.3643   -5.2552    5.7800 H   0  0  0  0  0  0  0  0  0  0  0  0
    3.7792   -7.0584    3.6002 H   0  0  0  0  0  0  0  0  0  0  0  0
    3.8346   -9.0554    2.9471 H   0  0  0  0  0  0  0  0  0  0  0  0
    4.1630   -9.3336    5.4493 H   0  0  0  0  0  0  0  0  0  0  0  0
    5.7312   -8.8783    4.0160 H   0  0  0  0  0  0  0  0  0  0  0  0
  1  2  1  0
  1 58  1  0
  1 59  1  0
  1 60  1  0
  2  3  1  0
  2 61  1  0
  3  4  2  0
  3  5  1  0
  5 14  1  0
  5  6  1  6
  5  7  1  0
  6 62  1  0
  7  8  2  0
  7  9  1  0
  9 28  1  0
  9 10  1  6
  9 11  1  0
 10 63  1  0
 11 12  1  0
 11 64  1  0
 11 65  1  0
 12 13  1  0
 12 66  1  0
 12 67  1  0
 13 14  2  0
 13 68  1  0
 14 15  1  0
 15 30  1  0
 15 16  1  0
 15 69  1  1
 16 17  1  0
 17 44  1  0
 17 18  1  1
 17 19  1  0
 18 70  1  0
 19 56  1  0
 19 20  1  1
 19 21  1  0
 20 71  1  0
 20 72  1  0
 20 73  1  0
 21 22  1  0
 22 23  1  0
 22 25  1  0
 22 74  1  6
 23 24  1  0
 24 75  1  0
 24 76  1  0
 24 77  1  0
 25 51  1  0
 25 26  1  6
 25 54  1  0
 26 27  1  0
 26 78  1  0
 26 79  1  0
 27 28  1  0
 27 30  1  0
 27 80  1  6
 28 29  1  0
 28 81  1  1
 29 82  1  0
 30 31  1  6
 30 32  1  0
 31 83  1  0
 32 38  1  0
 32 33  1  0
 32 84  1  1
 33 34  1  0
 33 35  1  0
 33 85  1  6
 34 86  1  0
 35 36  1  0
 35 38  1  0
 35 87  1  1
 36 37  1  0
 37 88  1  0
 37 89  1  0
 37 90  1  0
 38 39  1  6
 38 40  1  0
 39 91  1  0
 52 40  1  1
 40 41  1  1
 40 42  1  0
 41 92  1  0
 42 43  1  0
 42 44  1  0
 42 93  1  6
 43 94  1  0
 44 45  1  1
 44 46  1  0
 45 95  1  0
 46 48  1  0
 46 47  1  0
 46 96  1  1
 47 48  1  0
 48 49  1  1
 48 50  1  0
 49 97  1  0
 49 98  1  0
 49 99  1  0
 50 51  1  0
 50100  1  0
 50101  1  0
 51 52  1  0
 51102  1  1
 52 53  2  0
 54 55  1  0
 54 56  1  0
 54103  1  6
 55104  1  0
 56 57  1  0
 56105  1  1
 57106  1  0
M  END
>  <i_m_ct_stereo_status>  (53) 
1

>  <s_m_source_file>  (53) 
/var/tmp/pbs.5075288.sched01/tmpq0rgj53d/65gxdktgdh.sdf

>  <i_m_source_file_index>  (53) 
3

>  <i_lp_mmshare_version>  (53) 
48012

>  <i_f3d_flags>  (53) 
0

>  <s_epik_input>  (53) 
W09IXVtDQEhdMVtDQEBIXShPW0NIM10pW0NAXShbT0hdKShbQ0BAXShbT0hdKShbUytdMltPLV0pW0NASF0zW09IXSlbQ0BIXTFbQ0BdNChbT0hdKVtDQEhdKFtDSDJdNSlbQ0BASF0oW09IXSlbQ0BdKFtPSF0pKEMoPU8pW0NAXTYoW09IXSlDKD1PKVtOSF1bQ0gzXSlbQ0gyXVtDSDJdW0NIXT1DNltDQEBIXTRPW0NAXShbT0hdKShbQ0BdKFtDSDNdKShbQ0BIXShbT0hdKVtDQEBIXTdbT0hdKU9bQ0BIXThPW0NIM10pW0NAXTMoW09IXSlbQ0BASF0oTzkpW0NAXTkoW0NIM10pW0NIMl1bQ0BASF0yQzU3OA==

>  <s_epik_cmdline>  (53) 
J2VwaWtfcHl0aG9uJywgJy1waHQnLCAnMi4wJywgJy1waCcsICc3LjAnLCAnLXRuJywgJzgnLCAnLW1hJywgJzIwMCcsICctaW1hZScsICc8aW5maWxlLm1hZT4nLCAnLW9tYWUnLCAnPG91dGZpbGUubWFlPic=

>  <r_lp_tautomer_probability>  (53) 
1

>  <r_epik_Ionization_Penalty>  (53) 
1.40957e-05

>  <r_epik_Ionization_Penalty_Charging>  (53) 
0

>  <r_epik_Ionization_Penalty_Neutral>  (53) 
1.40957e-05

>  <r_epik_State_Penalty>  (53) 
-0

>  <r_epik_Charging_Adjusted_Penalty>  (53) 
0

>  <i_epik_Tot_Q>  (53) 
0

>  <i_epik_Tot_abs_Q>  (53) 
2

>  <s_epik_Chemistry_Notes>  (53) 
This compound contains an acetal/aminal-like group ( X-CH(R)-Y where X, Y are N, S, or O) that may be acid/base labile, releasing an aldehyde.

>  <s_lp_Force_Field>  (53) 
OPLS3e

>  <r_lp_Energy>  (53) 
505.228

>  <b_lp_Chiralities_Consistent>  (53) 
1

>  <s_lp_Variant>  (53) 
14:0-20

>  <s_i_glide_gridfile>  (53) 
pfpi4k_grid

>  <i_i_glide_lignum>  (53) 
3

>  <i_i_glide_rotatable_bonds>  (53) 
16

>  <r_i_docking_score>  (53) 
-4.3264

>  <r_i_glide_ligand_efficiency>  (53) 
-0.0759017

>  <r_i_glide_ligand_efficiency_sa>  (53) 
-0.292108

>  <r_i_glide_ligand_efficiency_ln>  (53) 
-0.857893

>  <r_i_glide_gscore>  (53) 
-4.3264

>  <r_i_glide_lipo>  (53) 
-0.240039

>  <r_i_glide_hbond>  (53) 
0

>  <r_i_glide_metal>  (53) 
-0

>  <r_i_glide_rewards>  (53) 
-1.59153

>  <r_i_glide_evdw>  (53) 
-25.7629

>  <r_i_glide_ecoul>  (53) 
-7.98269

>  <r_i_glide_erotb>  (53) 
0.0313225

>  <r_i_glide_esite>  (53) 
-0.0406077

>  <r_i_glide_emodel>  (53) 
-56.7683

>  <r_i_glide_energy>  (53) 
-33.7456

>  <r_i_glide_einternal>  (53) 
4.11489

>  <r_i_glide_intrahb_reward>  (53) 
-1.5

>  <i_i_glide_confnum>  (53) 
2

>  <i_i_glide_posenum>  (53) 
10

>  <r_i_glide_eff_state_penalty>  (53) 
0

>  <ligand_id>  (53) 
14

>  <original_smiles>  (53) 
CNC(=O)C1(O)C(=O)C2(O)CCC=C1C1OC3(O)C4(C)OC(OC)C5(CC(C2O)C1(O)C1C(O)C(OC)C1(O)C1(O)C(O)C3(O)C2OC2(C)CC5[S+]1[O-])C(O)C4O

>  <smiles>  (53) 
[H]OC1(C(=O)N([H])C([H])([H])[H])C(=O)C2(O[H])C([H])([H])C([H])([H])C([H])=C1C1([H])OC3(O[H])C4(C([H])([H])[H])OC([H])(OC([H])([H])[H])C5(C([H])([H])C([H])(C2([H])O[H])C1(O[H])C1([H])C([H])(O[H])C([H])(OC([H])([H])[H])C1(O[H])C1(O[H])S(=O)C5([H])C([H])([H])C2(C([H])([H])[H])OC2([H])C3(O[H])C1([H])O[H])C([H])(O[H])C4([H])O[H]

$$$$
14:19:2
     RDKit          3D

106114  0  0  1  0  0  0  0  0999 V2000
    7.4699   -6.2480    1.8031 C   0  0  0  0  0  0  0  0  0  0  0  0
    6.5124   -5.4424    2.5560 N   0  0  0  0  0  0  0  0  0  0  0  0
    5.5720   -4.6412    2.0408 C   0  0  0  0  0  0  0  0  0  0  0  0
    5.4527   -4.4713    0.8193 O   0  0  0  0  0  0  0  0  0  0  0  0
    4.7678   -3.7659    3.0287 C   0  0  1  0  0  0  0  0  0  0  0  0
    5.4225   -2.5430    2.7655 O   0  0  0  0  0  0  0  0  0  0  0  0
    3.2967   -3.4283    2.7129 C   0  0  0  0  0  0  0  0  0  0  0  0
    2.7899   -3.7089    1.6273 O   0  0  0  0  0  0  0  0  0  0  0  0
    2.4689   -2.6533    3.7869 C   0  0  2  0  0  0  0  0  0  0  0  0
    1.6461   -1.7578    3.0448 O   0  0  0  0  0  0  0  0  0  0  0  0
    3.2791   -1.5824    4.6671 C   0  0  0  0  0  0  0  0  0  0  0  0
    4.7249   -1.7720    5.2839 C   0  0  0  0  0  0  0  0  0  0  0  0
    5.2020   -3.2120    5.4183 C   0  0  0  0  0  0  0  0  0  0  0  0
    4.8323   -4.1599    4.5284 C   0  0  0  0  0  0  0  0  0  0  0  0
    4.1493   -5.4526    5.1472 C   0  0  2  0  0  0  0  0  0  0  0  0
    3.7356   -6.4922    4.2462 O   0  0  0  0  0  0  0  0  0  0  0  0
    4.0695   -7.8861    4.0523 C   0  0  2  0  0  0  0  0  0  0  0  0
    5.3342   -7.8759    3.4559 O   0  0  0  0  0  0  0  0  0  0  0  0
    3.0711   -8.4744    2.7546 C   0  0  1  0  0  0  0  0  0  0  0  0
    3.8416   -9.4730    1.8424 C   0  0  0  0  0  0  0  0  0  0  0  0
    1.7151   -9.1325    2.8794 O   0  0  0  0  0  0  0  0  0  0  0  0
    0.4699   -8.3831    3.1038 C   0  0  1  0  0  0  0  0  0  0  0  0
   -0.5668   -9.0953    3.6687 O   0  0  0  0  0  0  0  0  0  0  0  0
   -1.8177   -8.4360    3.6534 C   0  0  0  0  0  0  0  0  0  0  0  0
    0.9828   -7.2960    4.0370 C   0  0  1  0  0  0  0  0  0  0  0  0
    0.3612   -6.0102    4.7298 C   0  0  0  0  0  0  0  0  0  0  0  0
    1.3857   -4.8653    5.3111 C   0  0  2  0  0  0  0  0  0  0  0  0
    1.2765   -3.5207    4.4256 C   0  0  1  0  0  0  0  0  0  0  0  0
    0.4071   -2.6334    5.1058 O   0  0  0  0  0  0  0  0  0  0  0  0
    2.8372   -5.0618    6.0549 C   0  0  2  0  0  0  0  0  0  0  0  0
    2.8595   -3.7386    6.4992 O   0  0  0  0  0  0  0  0  0  0  0  0
    3.0841   -5.5735    7.5167 C   0  0  1  0  0  0  0  0  0  0  0  0
    3.4313   -4.7996    8.8268 C   0  0  1  0  0  0  0  0  0  0  0  0
    2.6893   -3.6502    9.2270 O   0  0  0  0  0  0  0  0  0  0  0  0
    3.1879   -6.1413    9.5230 C   0  0  1  0  0  0  0  0  0  0  0  0
    2.6213   -5.9533   10.8228 O   0  0  0  0  0  0  0  0  0  0  0  0
    2.3479   -7.1502   11.5413 C   0  0  0  0  0  0  0  0  0  0  0  0
    2.2814   -6.5782    8.3287 C   0  0  1  0  0  0  0  0  0  0  0  0
    0.9533   -6.1466    8.5703 O   0  0  0  0  0  0  0  0  0  0  0  0
    2.3272   -8.0389    7.7898 C   0  0  2  0  0  0  0  0  0  0  0  0
    2.1815   -8.7896    8.9769 O   0  0  0  0  0  0  0  0  0  0  0  0
    3.7659   -8.4999    7.0355 C   0  0  1  0  0  0  0  0  0  0  0  0
    4.2460   -9.6223    7.8003 O   0  0  0  0  0  0  0  0  0  0  0  0
    4.2953   -8.7739    5.4576 C   0  0  2  0  0  0  0  0  0  0  0  0
    5.6820   -8.7572    5.7771 O   0  0  0  0  0  0  0  0  0  0  0  0
    4.1477  -10.2118    5.0213 C   0  0  1  0  0  0  0  0  0  0  0  0
    3.5990  -11.1793    5.8940 O   0  0  0  0  0  0  0  0  0  0  0  0
    2.7683  -10.7349    4.8385 C   0  0  2  0  0  0  0  0  0  0  0  0
    2.4452  -11.8609    3.8853 C   0  0  0  0  0  0  0  0  0  0  0  0
    1.5643   -9.9431    5.3205 C   0  0  0  0  0  0  0  0  0  0  0  0
    1.4975   -8.3036    5.2113 C   0  0  2  0  0  0  0  0  0  0  0  0
    0.7116   -8.0715    6.8187 S   0  0  0  0  0  0  0  0  0  0  0  0
   -0.2146   -9.1931    7.2664 O   0  0  0  0  0  0  0  0  0  0  0  0
    1.6558   -6.5189    2.7858 C   0  0  2  0  0  0  0  0  0  0  0  0
    0.6942   -5.8630    1.9649 O   0  0  0  0  0  0  0  0  0  0  0  0
    2.5800   -7.3545    1.8772 C   0  0  1  0  0  0  0  0  0  0  0  0
    3.6591   -6.6670    1.3246 O   0  0  0  0  0  0  0  0  0  0  0  0
    8.3666   -5.6800    1.5483 H   0  0  0  0  0  0  0  0  0  0  0  0
    7.0375   -6.6483    0.8830 H   0  0  0  0  0  0  0  0  0  0  0  0
    7.7915   -7.0957    2.4086 H   0  0  0  0  0  0  0  0  0  0  0  0
    6.5898   -5.4610    3.5633 H   0  0  0  0  0  0  0  0  0  0  0  0
    5.3101   -2.3791    1.8329 H   0  0  0  0  0  0  0  0  0  0  0  0
    2.2138   -1.2250    2.5028 H   0  0  0  0  0  0  0  0  0  0  0  0
    3.3677   -0.6551    4.0900 H   0  0  0  0  0  0  0  0  0  0  0  0
    2.6209   -1.3091    5.4901 H   0  0  0  0  0  0  0  0  0  0  0  0
    5.4642   -1.1612    4.7648 H   0  0  0  0  0  0  0  0  0  0  0  0
    4.7138   -1.3678    6.2976 H   0  0  0  0  0  0  0  0  0  0  0  0
    5.2577   -3.4974    6.4581 H   0  0  0  0  0  0  0  0  0  0  0  0
    4.9674   -5.8814    5.7235 H   0  0  0  0  0  0  0  0  0  0  0  0
    5.2562   -7.3862    2.6468 H   0  0  0  0  0  0  0  0  0  0  0  0
    4.7258   -9.0567    1.3607 H   0  0  0  0  0  0  0  0  0  0  0  0
    3.1904   -9.8140    1.0252 H   0  0  0  0  0  0  0  0  0  0  0  0
    4.1531  -10.3688    2.3584 H   0  0  0  0  0  0  0  0  0  0  0  0
    0.0849   -8.0988    2.1247 H   0  0  0  0  0  0  0  0  0  0  0  0
   -2.5704   -9.0946    4.0752 H   0  0  0  0  0  0  0  0  0  0  0  0
   -2.1406   -8.1686    2.6426 H   0  0  0  0  0  0  0  0  0  0  0  0
   -1.8147   -7.5521    4.2887 H   0  0  0  0  0  0  0  0  0  0  0  0
   -0.3355   -5.5445    4.0555 H   0  0  0  0  0  0  0  0  0  0  0  0
   -0.3774   -6.2452    5.4841 H   0  0  0  0  0  0  0  0  0  0  0  0
    0.7734   -4.6083    6.1777 H   0  0  0  0  0  0  0  0  0  0  0  0
    0.6692   -3.7854    3.5679 H   0  0  0  0  0  0  0  0  0  0  0  0
    0.3541   -1.8809    4.5213 H   0  0  0  0  0  0  0  0  0  0  0  0
    2.2265   -3.6249    7.1998 H   0  0  0  0  0  0  0  0  0  0  0  0
    4.0933   -5.9206    7.4487 H   0  0  0  0  0  0  0  0  0  0  0  0
    4.4991   -4.5552    8.8664 H   0  0  0  0  0  0  0  0  0  0  0  0
    1.8460   -3.9262    9.5628 H   0  0  0  0  0  0  0  0  0  0  0  0
    4.1218   -6.7038    9.5563 H   0  0  0  0  0  0  0  0  0  0  0  0
    2.1425   -6.9349   12.5886 H   0  0  0  0  0  0  0  0  0  0  0  0
    3.1794   -7.8537   11.5063 H   0  0  0  0  0  0  0  0  0  0  0  0
    1.4622   -7.6287   11.1332 H   0  0  0  0  0  0  0  0  0  0  0  0
    1.0281   -5.3609    9.0721 H   0  0  0  0  0  0  0  0  0  0  0  0
    2.1945   -9.7095    8.7397 H   0  0  0  0  0  0  0  0  0  0  0  0
    4.4711   -7.7938    7.4418 H   0  0  0  0  0  0  0  0  0  0  0  0
    3.7564  -10.3966    7.5035 H   0  0  0  0  0  0  0  0  0  0  0  0
    5.8073   -9.3920    6.4720 H   0  0  0  0  0  0  0  0  0  0  0  0
    4.9291  -10.5880    4.3764 H   0  0  0  0  0  0  0  0  0  0  0  0
    1.9796  -11.5221    2.9597 H   0  0  0  0  0  0  0  0  0  0  0  0
    1.7885  -12.5474    4.4024 H   0  0  0  0  0  0  0  0  0  0  0  0
    3.3636  -12.3909    3.6181 H   0  0  0  0  0  0  0  0  0  0  0  0
    0.6799  -10.4578    4.9767 H   0  0  0  0  0  0  0  0  0  0  0  0
    1.5862  -10.2558    6.3639 H   0  0  0  0  0  0  0  0  0  0  0  0
    2.2679   -7.6668    5.5297 H   0  0  0  0  0  0  0  0  0  0  0  0
    2.1699   -5.6374    3.0730 H   0  0  0  0  0  0  0  0  0  0  0  0
    0.8020   -4.9376    2.1574 H   0  0  0  0  0  0  0  0  0  0  0  0
    1.9999   -7.7468    1.0297 H   0  0  0  0  0  0  0  0  0  0  0  0
    4.0025   -7.1796    0.5979 H   0  0  0  0  0  0  0  0  0  0  0  0
  1  2  1  0
  1 58  1  0
  1 59  1  0
  1 60  1  0
  2  3  1  0
  2 61  1  0
  3  4  2  0
  3  5  1  0
  5 14  1  0
  5  6  1  1
  5  7  1  0
  6 62  1  0
  7  8  2  0
  7  9  1  0
  9 28  1  0
  9 10  1  6
  9 11  1  0
 10 63  1  0
 11 12  1  0
 11 64  1  0
 11 65  1  0
 12 13  1  0
 12 66  1  0
 12 67  1  0
 13 14  2  0
 13 68  1  0
 14 15  1  0
 15 30  1  0
 15 16  1  0
 15 69  1  1
 16 17  1  0
 17 44  1  0
 17 18  1  6
 17 19  1  0
 18 70  1  0
 19 56  1  0
 19 20  1  6
 19 21  1  0
 20 71  1  0
 20 72  1  0
 20 73  1  0
 21 22  1  0
 22 23  1  0
 22 25  1  0
 22 74  1  6
 23 24  1  0
 24 75  1  0
 24 76  1  0
 24 77  1  0
 25 51  1  0
 25 26  1  1
 25 54  1  0
 26 27  1  0
 26 78  1  0
 26 79  1  0
 27 28  1  0
 27 30  1  0
 27 80  1  1
 28 29  1  0
 28 81  1  6
 29 82  1  0
 30 31  1  1
 30 32  1  0
 31 83  1  0
 32 38  1  0
 32 33  1  0
 32 84  1  6
 33 34  1  0
 33 35  1  0
 33 85  1  6
 34 86  1  0
 35 36  1  0
 35 38  1  0
 35 87  1  1
 36 37  1  0
 37 88  1  0
 37 89  1  0
 37 90  1  0
 38 39  1  1
 38 40  1  0
 39 91  1  0
 52 40  1  1
 40 41  1  1
 40 42  1  0
 41 92  1  0
 42 43  1  0
 42 44  1  0
 42 93  1  1
 43 94  1  0
 44 45  1  1
 44 46  1  0
 45 95  1  0
 46 48  1  0
 46 47  1  0
 46 96  1  6
 47 48  1  0
 48 49  1  6
 48 50  1  0
 49 97  1  0
 49 98  1  0
 49 99  1  0
 50 51  1  0
 50100  1  0
 50101  1  0
 51 52  1  0
 51102  1  1
 52 53  2  0
 54 55  1  0
 54 56  1  0
 54103  1  1
 55104  1  0
 56 57  1  0
 56105  1  6
 57106  1  0
M  END
>  <i_m_ct_stereo_status>  (54) 
1

>  <s_m_source_file>  (54) 
/var/tmp/pbs.5075288.sched01/tmpq0rgj53d/65gxdktgdh.sdf

>  <i_m_source_file_index>  (54) 
3

>  <i_lp_mmshare_version>  (54) 
48012

>  <i_f3d_flags>  (54) 
0

>  <s_epik_input>  (54) 
W09IXVtDQEhdMVtDQEBIXShPW0NIM10pW0NAXShbT0hdKShbQ0BAXShbT0hdKShbUytdMltPLV0pW0NASF0zW09IXSlbQ0BIXTFbQ0BdNChbT0hdKVtDQEhdKFtDSDJdNSlbQ0BASF0oW09IXSlbQ0BdKFtPSF0pKEMoPU8pW0NAXTYoW09IXSlDKD1PKVtOSF1bQ0gzXSlbQ0gyXVtDSDJdW0NIXT1DNltDQEBIXTRPW0NAXShbT0hdKShbQ0BdKFtDSDNdKShbQ0BIXShbT0hdKVtDQEBIXTdbT0hdKU9bQ0BIXThPW0NIM10pW0NAXTMoW09IXSlbQ0BASF0oTzkpW0NAXTkoW0NIM10pW0NIMl1bQ0BASF0yQzU3OA==

>  <s_epik_cmdline>  (54) 
J2VwaWtfcHl0aG9uJywgJy1waHQnLCAnMi4wJywgJy1waCcsICc3LjAnLCAnLXRuJywgJzgnLCAnLW1hJywgJzIwMCcsICctaW1hZScsICc8aW5maWxlLm1hZT4nLCAnLW9tYWUnLCAnPG91dGZpbGUubWFlPic=

>  <r_lp_tautomer_probability>  (54) 
1

>  <r_epik_Ionization_Penalty>  (54) 
1.40957e-05

>  <r_epik_Ionization_Penalty_Charging>  (54) 
0

>  <r_epik_Ionization_Penalty_Neutral>  (54) 
1.40957e-05

>  <r_epik_State_Penalty>  (54) 
-0

>  <r_epik_Charging_Adjusted_Penalty>  (54) 
0

>  <i_epik_Tot_Q>  (54) 
0

>  <i_epik_Tot_abs_Q>  (54) 
2

>  <s_epik_Chemistry_Notes>  (54) 
This compound contains an acetal/aminal-like group ( X-CH(R)-Y where X, Y are N, S, or O) that may be acid/base labile, releasing an aldehyde.

>  <s_lp_Force_Field>  (54) 
OPLS3e

>  <r_lp_Energy>  (54) 
505.228

>  <b_lp_Chiralities_Consistent>  (54) 
1

>  <s_lp_Variant>  (54) 
14:0-20

>  <s_i_glide_gridfile>  (54) 
pfpi4k_grid

>  <i_i_glide_lignum>  (54) 
3

>  <i_i_glide_rotatable_bonds>  (54) 
16

>  <r_i_docking_score>  (54) 
-3.84507

>  <r_i_glide_ligand_efficiency>  (54) 
-0.0674574

>  <r_i_glide_ligand_efficiency_sa>  (54) 
-0.25961

>  <r_i_glide_ligand_efficiency_ln>  (54) 
-0.762449

>  <r_i_glide_gscore>  (54) 
-3.84507

>  <r_i_glide_lipo>  (54) 
-0.0933854

>  <r_i_glide_hbond>  (54) 
0

>  <r_i_glide_metal>  (54) 
-0

>  <r_i_glide_rewards>  (54) 
-1.54645

>  <r_i_glide_evdw>  (54) 
-32.2289

>  <r_i_glide_ecoul>  (54) 
-3.8101

>  <r_i_glide_erotb>  (54) 
0.0313225

>  <r_i_glide_esite>  (54) 
-0.0535927

>  <r_i_glide_emodel>  (54) 
-54.9323

>  <r_i_glide_energy>  (54) 
-36.039

>  <r_i_glide_einternal>  (54) 
8.63945

>  <r_i_glide_intrahb_reward>  (54) 
-1.5

>  <i_i_glide_confnum>  (54) 
1

>  <i_i_glide_posenum>  (54) 
26

>  <r_i_glide_eff_state_penalty>  (54) 
0

>  <ligand_id>  (54) 
14

>  <original_smiles>  (54) 
CNC(=O)C1(O)C(=O)C2(O)CCC=C1C1OC3(O)C4(C)OC(OC)C5(CC(C2O)C1(O)C1C(O)C(OC)C1(O)C1(O)C(O)C3(O)C2OC2(C)CC5[S+]1[O-])C(O)C4O

>  <smiles>  (54) 
[H]OC1(C(=O)N([H])C([H])([H])[H])C(=O)C2(O[H])C([H])([H])C([H])([H])C([H])=C1C1([H])OC3(O[H])C4(C([H])([H])[H])OC([H])(OC([H])([H])[H])C5(C([H])([H])C([H])(C2([H])O[H])C1(O[H])C1([H])C([H])(O[H])C([H])(OC([H])([H])[H])C1(O[H])C1(O[H])S(=O)C5([H])C([H])([H])C2(C([H])([H])[H])OC2([H])C3(O[H])C1([H])O[H])C([H])(O[H])C4([H])O[H]

$$$$
14:20:0
     RDKit          3D

106114  0  0  1  0  0  0  0  0999 V2000
    6.9812   -8.8736    5.4550 C   0  0  0  0  0  0  0  0  0  0  0  0
    6.4705   -7.9820    4.4107 N   0  0  0  0  0  0  0  0  0  0  0  0
    6.6298   -6.6565    4.3496 C   0  0  0  0  0  0  0  0  0  0  0  0
    7.3101   -6.0651    5.2050 O   0  0  0  0  0  0  0  0  0  0  0  0
    6.0044   -5.8034    3.1951 C   0  0  1  0  0  0  0  0  0  0  0  0
    7.1916   -5.4598    2.4964 O   0  0  0  0  0  0  0  0  0  0  0  0
    5.1917   -6.5645    2.1082 C   0  0  0  0  0  0  0  0  0  0  0  0
    5.6234   -7.6519    1.7135 O   0  0  0  0  0  0  0  0  0  0  0  0
    4.0106   -5.8824    1.3432 C   0  0  2  0  0  0  0  0  0  0  0  0
    3.8874   -6.6396    0.1088 O   0  0  0  0  0  0  0  0  0  0  0  0
    4.4071   -4.4687    0.6829 C   0  0  0  0  0  0  0  0  0  0  0  0
    5.4889   -3.5176    1.3068 C   0  0  0  0  0  0  0  0  0  0  0  0
    5.4006   -3.4088    2.8235 C   0  0  0  0  0  0  0  0  0  0  0  0
    5.2442   -4.5122    3.5909 C   0  0  0  0  0  0  0  0  0  0  0  0
    4.1686   -4.5129    4.7258 C   0  0  2  0  0  0  0  0  0  0  0  0
    4.5319   -5.5882    5.7013 O   0  0  0  0  0  0  0  0  0  0  0  0
    4.3185   -6.0288    7.1142 C   0  0  2  0  0  0  0  0  0  0  0  0
    5.6034   -5.8313    7.6828 O   0  0  0  0  0  0  0  0  0  0  0  0
    4.0745   -7.7486    7.0684 C   0  0  2  0  0  0  0  0  0  0  0  0
    4.7183   -8.1999    8.4436 C   0  0  0  0  0  0  0  0  0  0  0  0
    2.8752   -7.2793    6.8705 O   0  0  0  0  0  0  0  0  0  0  0  0
    2.5087   -7.0445    5.5567 C   0  0  1  0  0  0  0  0  0  0  0  0
    3.3637   -7.4930    4.4758 O   0  0  0  0  0  0  0  0  0  0  0  0
    3.6364   -8.8264    4.0241 C   0  0  0  0  0  0  0  0  0  0  0  0
    1.1492   -7.4261    5.5659 C   0  0  2  0  0  0  0  0  0  0  0  0
    0.8871   -6.7798    4.0936 C   0  0  0  0  0  0  0  0  0  0  0  0
    1.8323   -5.6071    3.3377 C   0  0  2  0  0  0  0  0  0  0  0  0
    2.5114   -6.1451    1.9586 C   0  0  1  0  0  0  0  0  0  0  0  0
    1.5357   -5.8846    0.9452 O   0  0  0  0  0  0  0  0  0  0  0  0
    2.6100   -4.3317    4.0576 C   0  0  2  0  0  0  0  0  0  0  0  0
    2.7509   -3.6537    2.8379 O   0  0  0  0  0  0  0  0  0  0  0  0
    1.7152   -3.0352    4.4991 C   0  0  2  0  0  0  0  0  0  0  0  0
    2.4631   -1.7244    4.8161 C   0  0  1  0  0  0  0  0  0  0  0  0
    2.7814   -0.9058    3.7088 O   0  0  0  0  0  0  0  0  0  0  0  0
    1.3343   -1.2881    5.7459 C   0  0  1  0  0  0  0  0  0  0  0  0
    0.4896   -0.2990    5.1273 O   0  0  0  0  0  0  0  0  0  0  0  0
    0.9176    1.0406    5.4209 C   0  0  0  0  0  0  0  0  0  0  0  0
    0.7606   -2.7405    5.7153 C   0  0  1  0  0  0  0  0  0  0  0  0
   -0.5978   -2.6356    5.3096 O   0  0  0  0  0  0  0  0  0  0  0  0
    0.8422   -3.6612    6.9853 C   0  0  2  0  0  0  0  0  0  0  0  0
    0.2206   -2.9322    8.0519 O   0  0  0  0  0  0  0  0  0  0  0  0
    2.4134   -3.8893    7.3836 C   0  0  1  0  0  0  0  0  0  0  0  0
    2.7546   -2.6449    7.9806 O   0  0  0  0  0  0  0  0  0  0  0  0
    3.2466   -5.1038    8.0872 C   0  0  2  0  0  0  0  0  0  0  0  0
    4.0921   -4.3603    8.9737 O   0  0  0  0  0  0  0  0  0  0  0  0
    2.5031   -5.8617    9.2407 C   0  0  1  0  0  0  0  0  0  0  0  0
    1.2341   -5.3119    9.5904 O   0  0  0  0  0  0  0  0  0  0  0  0
    1.2204   -6.7053    9.3474 C   0  0  2  0  0  0  0  0  0  0  0  0
    1.0450   -7.5664   10.5858 C   0  0  0  0  0  0  0  0  0  0  0  0
    0.2420   -7.1549    8.2490 C   0  0  0  0  0  0  0  0  0  0  0  0
    0.5260   -6.6273    6.8197 C   0  0  2  0  0  0  0  0  0  0  0  0
   -0.3125   -5.0792    6.4631 S   0  0  0  0  0  0  0  0  0  0  0  0
   -1.5984   -5.0015    7.3044 O   0  0  0  0  0  0  0  0  0  0  0  0
    1.5103   -8.9347    5.9918 C   0  0  2  0  0  0  0  0  0  0  0  0
    0.3899   -9.6241    6.4973 O   0  0  0  0  0  0  0  0  0  0  0  0
    2.7949   -8.9297    7.0781 C   0  0  1  0  0  0  0  0  0  0  0  0
    3.3677  -10.2091    6.9023 O   0  0  0  0  0  0  0  0  0  0  0  0
    7.7846   -9.5101    5.0768 H   0  0  0  0  0  0  0  0  0  0  0  0
    6.1879   -9.5317    5.8115 H   0  0  0  0  0  0  0  0  0  0  0  0
    7.3572   -8.3359    6.3271 H   0  0  0  0  0  0  0  0  0  0  0  0
    5.9066   -8.4078    3.6838 H   0  0  0  0  0  0  0  0  0  0  0  0
    7.6390   -6.2710    2.2713 H   0  0  0  0  0  0  0  0  0  0  0  0
    3.5244   -6.0837   -0.5616 H   0  0  0  0  0  0  0  0  0  0  0  0
    4.7840   -4.6365   -0.3331 H   0  0  0  0  0  0  0  0  0  0  0  0
    3.4992   -3.8949    0.5139 H   0  0  0  0  0  0  0  0  0  0  0  0
    6.4917   -3.7787    0.9760 H   0  0  0  0  0  0  0  0  0  0  0  0
    5.3500   -2.5121    0.9157 H   0  0  0  0  0  0  0  0  0  0  0  0
    4.9251   -2.4911    3.1264 H   0  0  0  0  0  0  0  0  0  0  0  0
    4.4564   -3.5868    5.1935 H   0  0  0  0  0  0  0  0  0  0  0  0
    6.2329   -6.3177    7.1729 H   0  0  0  0  0  0  0  0  0  0  0  0
    5.8064   -8.2775    8.3402 H   0  0  0  0  0  0  0  0  0  0  0  0
    4.4085   -9.1849    8.8035 H   0  0  0  0  0  0  0  0  0  0  0  0
    4.5236   -7.5197    9.2736 H   0  0  0  0  0  0  0  0  0  0  0  0
    2.4545   -5.9948    5.6029 H   0  0  0  0  0  0  0  0  0  0  0  0
    4.1416   -9.3864    4.7915 H   0  0  0  0  0  0  0  0  0  0  0  0
    4.3534   -8.7910    3.2308 H   0  0  0  0  0  0  0  0  0  0  0  0
    2.8267   -9.3747    3.5586 H   0  0  0  0  0  0  0  0  0  0  0  0
    0.8481   -7.6242    3.4134 H   0  0  0  0  0  0  0  0  0  0  0  0
   -0.1487   -6.4230    4.0683 H   0  0  0  0  0  0  0  0  0  0  0  0
    0.9669   -5.0439    2.9545 H   0  0  0  0  0  0  0  0  0  0  0  0
    2.4770   -7.2262    2.0489 H   0  0  0  0  0  0  0  0  0  0  0  0
    1.8906   -6.2415    0.1355 H   0  0  0  0  0  0  0  0  0  0  0  0
    3.1193   -2.7893    2.9901 H   0  0  0  0  0  0  0  0  0  0  0  0
    0.9975   -2.7822    3.6945 H   0  0  0  0  0  0  0  0  0  0  0  0
    3.3495   -1.8345    5.4330 H   0  0  0  0  0  0  0  0  0  0  0  0
    1.9678   -0.5881    3.3265 H   0  0  0  0  0  0  0  0  0  0  0  0
    1.6510   -0.9644    6.7346 H   0  0  0  0  0  0  0  0  0  0  0  0
    0.2314    1.7766    5.0001 H   0  0  0  0  0  0  0  0  0  0  0  0
    1.9085    1.2392    5.0103 H   0  0  0  0  0  0  0  0  0  0  0  0
    0.9642    1.2137    6.4980 H   0  0  0  0  0  0  0  0  0  0  0  0
   -0.5845   -1.9806    4.6268 H   0  0  0  0  0  0  0  0  0  0  0  0
    0.7147   -3.1543    8.8360 H   0  0  0  0  0  0  0  0  0  0  0  0
    2.9202   -3.7800    6.4849 H   0  0  0  0  0  0  0  0  0  0  0  0
    3.6760   -2.7490    8.1963 H   0  0  0  0  0  0  0  0  0  0  0  0
    4.6811   -4.9846    9.3797 H   0  0  0  0  0  0  0  0  0  0  0  0
    3.1426   -6.0678   10.0906 H   0  0  0  0  0  0  0  0  0  0  0  0
    1.3866   -8.5929   10.4068 H   0  0  0  0  0  0  0  0  0  0  0  0
    0.0033   -7.5921   10.9043 H   0  0  0  0  0  0  0  0  0  0  0  0
    1.6396   -7.1628   11.4092 H   0  0  0  0  0  0  0  0  0  0  0  0
    0.2174   -8.2302    8.3201 H   0  0  0  0  0  0  0  0  0  0  0  0
   -0.7619   -6.8643    8.5442 H   0  0  0  0  0  0  0  0  0  0  0  0
    1.2454   -5.9390    7.1489 H   0  0  0  0  0  0  0  0  0  0  0  0
    1.6589   -9.5504    5.1284 H   0  0  0  0  0  0  0  0  0  0  0  0
    0.6139  -10.5416    6.6422 H   0  0  0  0  0  0  0  0  0  0  0  0
    2.3425   -8.9887    8.0801 H   0  0  0  0  0  0  0  0  0  0  0  0
    2.7145  -10.8793    7.0885 H   0  0  0  0  0  0  0  0  0  0  0  0
  1  2  1  0
  1 58  1  0
  1 59  1  0
  1 60  1  0
  2  3  1  0
  2 61  1  0
  3  4  2  0
  3  5  1  0
  5 14  1  0
  5  6  1  6
  5  7  1  0
  6 62  1  0
  7  8  2  0
  7  9  1  0
  9 28  1  0
  9 10  1  6
  9 11  1  0
 10 63  1  0
 11 12  1  0
 11 64  1  0
 11 65  1  0
 12 13  1  0
 12 66  1  0
 12 67  1  0
 13 14  2  0
 13 68  1  0
 14 15  1  0
 15 30  1  0
 15 16  1  0
 15 69  1  1
 16 17  1  0
 17 44  1  0
 17 18  1  1
 17 19  1  0
 18 70  1  0
 19 56  1  0
 19 20  1  6
 19 21  1  0
 20 71  1  0
 20 72  1  0
 20 73  1  0
 21 22  1  0
 22 23  1  0
 22 25  1  0
 22 74  1  1
 23 24  1  0
 24 75  1  0
 24 76  1  0
 24 77  1  0
 25 51  1  0
 25 26  1  6
 25 54  1  0
 26 27  1  0
 26 78  1  0
 26 79  1  0
 27 28  1  0
 27 30  1  0
 27 80  1  6
 28 29  1  0
 28 81  1  1
 29 82  1  0
 30 31  1  6
 30 32  1  0
 31 83  1  0
 32 38  1  0
 32 33  1  0
 32 84  1  6
 33 34  1  0
 33 35  1  0
 33 85  1  1
 34 86  1  0
 35 36  1  0
 35 38  1  0
 35 87  1  1
 36 37  1  0
 37 88  1  0
 37 89  1  0
 37 90  1  0
 38 39  1  6
 38 40  1  0
 39 91  1  0
 52 40  1  1
 40 41  1  1
 40 42  1  0
 41 92  1  0
 42 43  1  0
 42 44  1  0
 42 93  1  6
 43 94  1  0
 44 45  1  1
 44 46  1  0
 45 95  1  0
 46 48  1  0
 46 47  1  0
 46 96  1  1
 47 48  1  0
 48 49  1  1
 48 50  1  0
 49 97  1  0
 49 98  1  0
 49 99  1  0
 50 51  1  0
 50100  1  0
 50101  1  0
 51 52  1  0
 51102  1  1
 52 53  2  0
 54 55  1  0
 54 56  1  0
 54103  1  6
 55104  1  0
 56 57  1  0
 56105  1  1
 57106  1  0
M  END
>  <i_m_ct_stereo_status>  (55) 
1

>  <s_m_source_file>  (55) 
/var/tmp/pbs.5075288.sched01/tmpq0rgj53d/65gxdktgdh.sdf

>  <i_m_source_file_index>  (55) 
4

>  <i_lp_mmshare_version>  (55) 
48012

>  <i_f3d_flags>  (55) 
0

>  <s_epik_input>  (55) 
W09IXVtDQEhdMVtDQEBIXShPW0NIM10pW0NAXShbT0hdKShbQ0BAXShbT0hdKShbUytdMltPLV0pW0NASF0zW09IXSlbQ0BIXTFbQ0BdNChbT0hdKVtDQEhdKFtDSDJdNSlbQ0BASF0oW09IXSlbQ0BdKFtPSF0pKEMoPU8pW0NAXTYoW09IXSlDKD1PKVtOSF1bQ0gzXSlbQ0gyXVtDSDJdW0NIXT1DNltDQEBIXTRPW0NAXShbT0hdKShbQ0BdKFtDSDNdKShbQ0BIXShbT0hdKVtDQEBIXTdbT0hdKU9bQ0BIXThPW0NIM10pW0NAXTMoW09IXSlbQ0BASF0oTzkpW0NAXTkoW0NIM10pW0NIMl1bQ0BASF0yQzU3OA==

>  <s_epik_cmdline>  (55) 
J2VwaWtfcHl0aG9uJywgJy1waHQnLCAnMi4wJywgJy1waCcsICc3LjAnLCAnLXRuJywgJzgnLCAnLW1hJywgJzIwMCcsICctaW1hZScsICc8aW5maWxlLm1hZT4nLCAnLW9tYWUnLCAnPG91dGZpbGUubWFlPic=

>  <r_lp_tautomer_probability>  (55) 
1

>  <r_epik_Ionization_Penalty>  (55) 
1.40957e-05

>  <r_epik_Ionization_Penalty_Charging>  (55) 
0

>  <r_epik_Ionization_Penalty_Neutral>  (55) 
1.40957e-05

>  <r_epik_State_Penalty>  (55) 
-0

>  <r_epik_Charging_Adjusted_Penalty>  (55) 
0

>  <i_epik_Tot_Q>  (55) 
0

>  <i_epik_Tot_abs_Q>  (55) 
2

>  <s_epik_Chemistry_Notes>  (55) 
This compound contains an acetal/aminal-like group ( X-CH(R)-Y where X, Y are N, S, or O) that may be acid/base labile, releasing an aldehyde.

>  <s_lp_Force_Field>  (55) 
OPLS3e

>  <r_lp_Energy>  (55) 
643.596

>  <b_lp_Chiralities_Consistent>  (55) 
1

>  <s_lp_Variant>  (55) 
14:0-21

>  <s_i_glide_gridfile>  (55) 
pfpi4k_grid

>  <i_i_glide_lignum>  (55) 
4

>  <i_i_glide_rotatable_bonds>  (55) 
16

>  <r_i_docking_score>  (55) 
-4.83425

>  <r_i_glide_ligand_efficiency>  (55) 
-0.0848114

>  <r_i_glide_ligand_efficiency_sa>  (55) 
-0.326397

>  <r_i_glide_ligand_efficiency_ln>  (55) 
-0.958596

>  <r_i_glide_gscore>  (55) 
-4.83425

>  <r_i_glide_lipo>  (55) 
-0.191338

>  <r_i_glide_hbond>  (55) 
0

>  <r_i_glide_metal>  (55) 
-0

>  <r_i_glide_rewards>  (55) 
-1.56487

>  <r_i_glide_evdw>  (55) 
-25.9002

>  <r_i_glide_ecoul>  (55) 
-12.0957

>  <r_i_glide_erotb>  (55) 
0.0313225

>  <r_i_glide_esite>  (55) 
0

>  <r_i_glide_emodel>  (55) 
-62.9597

>  <r_i_glide_energy>  (55) 
-37.9959

>  <r_i_glide_einternal>  (55) 
6.32105

>  <r_i_glide_intrahb_reward>  (55) 
-1.5

>  <i_i_glide_confnum>  (55) 
2

>  <i_i_glide_posenum>  (55) 
28

>  <r_i_glide_eff_state_penalty>  (55) 
0

>  <ligand_id>  (55) 
14

>  <original_smiles>  (55) 
CNC(=O)C1(O)C(=O)C2(O)CCC=C1C1OC3(O)C4(C)OC(OC)C5(CC(C2O)C1(O)C1C(O)C(OC)C1(O)C1(O)C(O)C3(O)C2OC2(C)CC5[S+]1[O-])C(O)C4O

>  <smiles>  (55) 
[H]OC1(C(=O)N([H])C([H])([H])[H])C(=O)C2(O[H])C([H])([H])C([H])([H])C([H])=C1C1([H])OC3(O[H])C4(C([H])([H])[H])OC([H])(OC([H])([H])[H])C5(C([H])([H])C([H])(C2([H])O[H])C1(O[H])C1([H])C([H])(O[H])C([H])(OC([H])([H])[H])C1(O[H])C1(O[H])S(=O)C5([H])C([H])([H])C2(C([H])([H])[H])OC2([H])C3(O[H])C1([H])O[H])C([H])(O[H])C4([H])O[H]

$$$$
14:20:1
     RDKit          3D

106114  0  0  1  0  0  0  0  0999 V2000
    6.1000   -8.7771    6.1583 C   0  0  0  0  0  0  0  0  0  0  0  0
    5.3583   -8.1722    5.0482 N   0  0  0  0  0  0  0  0  0  0  0  0
    5.4968   -6.9347    4.5902 C   0  0  0  0  0  0  0  0  0  0  0  0
    6.3676   -6.1827    5.0650 O   0  0  0  0  0  0  0  0  0  0  0  0
    4.6151   -6.3753    3.4233 C   0  0  1  0  0  0  0  0  0  0  0  0
    5.6042   -6.3149    2.4087 O   0  0  0  0  0  0  0  0  0  0  0  0
    3.5448   -7.3321    2.8200 C   0  0  0  0  0  0  0  0  0  0  0  0
    3.8263   -8.5154    2.6410 O   0  0  0  0  0  0  0  0  0  0  0  0
    2.2008   -6.7850    2.2133 C   0  0  2  0  0  0  0  0  0  0  0  0
    1.7222   -7.8162    1.3403 O   0  0  0  0  0  0  0  0  0  0  0  0
    2.4491   -5.6608    1.1037 C   0  0  0  0  0  0  0  0  0  0  0  0
    3.6596   -4.6527    1.1522 C   0  0  0  0  0  0  0  0  0  0  0  0
    3.9582   -4.1268    2.5488 C   0  0  0  0  0  0  0  0  0  0  0  0
    3.9800   -4.9709    3.6044 C   0  0  0  0  0  0  0  0  0  0  0  0
    3.2321   -4.5597    4.9187 C   0  0  2  0  0  0  0  0  0  0  0  0
    3.8253   -5.3520    6.0461 O   0  0  0  0  0  0  0  0  0  0  0  0
    3.9732   -5.3723    7.5285 C   0  0  2  0  0  0  0  0  0  0  0  0
    5.3609   -5.1453    7.6774 O   0  0  0  0  0  0  0  0  0  0  0  0
    3.7143   -7.0133    8.0341 C   0  0  2  0  0  0  0  0  0  0  0  0
    4.6683   -7.1256    9.2826 C   0  0  0  0  0  0  0  0  0  0  0  0
    2.4988   -6.5375    8.0156 O   0  0  0  0  0  0  0  0  0  0  0  0
    1.8173   -6.6246    6.8038 C   0  0  1  0  0  0  0  0  0  0  0  0
    2.3704   -7.4161    5.7253 O   0  0  0  0  0  0  0  0  0  0  0  0
    2.5258   -8.8426    5.6231 C   0  0  0  0  0  0  0  0  0  0  0  0
    0.5018   -6.8807    7.2410 C   0  0  2  0  0  0  0  0  0  0  0  0
   -0.1195   -6.6508    5.7551 C   0  0  0  0  0  0  0  0  0  0  0  0
    0.6161   -5.7997    4.5052 C   0  0  2  0  0  0  0  0  0  0  0  0
    0.9098   -6.7401    3.2150 C   0  0  1  0  0  0  0  0  0  0  0  0
   -0.2751   -6.6682    2.4139 O   0  0  0  0  0  0  0  0  0  0  0  0
    1.5622   -4.4471    4.6248 C   0  0  2  0  0  0  0  0  0  0  0  0
    1.3996   -4.1412    3.2630 O   0  0  0  0  0  0  0  0  0  0  0  0
    0.8199   -3.0106    4.8650 C   0  0  2  0  0  0  0  0  0  0  0  0
    1.6370   -1.7195    4.6306 C   0  0  1  0  0  0  0  0  0  0  0  0
    1.6995   -1.2495    3.3009 O   0  0  0  0  0  0  0  0  0  0  0  0
    0.7632   -0.9726    5.6351 C   0  0  1  0  0  0  0  0  0  0  0  0
   -0.2056   -0.1159    5.0029 O   0  0  0  0  0  0  0  0  0  0  0  0
    0.3040    1.2047    4.7719 C   0  0  0  0  0  0  0  0  0  0  0  0
    0.1878   -2.3325    6.1410 C   0  0  1  0  0  0  0  0  0  0  0  0
   -1.2297   -2.2367    6.0612 O   0  0  0  0  0  0  0  0  0  0  0  0
    0.5746   -2.8785    7.5639 C   0  0  2  0  0  0  0  0  0  0  0  0
    0.2403   -1.8424    8.4871 O   0  0  0  0  0  0  0  0  0  0  0  0
    2.1999   -3.1062    7.6422 C   0  0  1  0  0  0  0  0  0  0  0  0
    2.6854   -1.7802    7.8038 O   0  0  0  0  0  0  0  0  0  0  0  0
    3.1900   -4.1497    8.4269 C   0  0  2  0  0  0  0  0  0  0  0  0
    4.2396   -3.2726    8.8636 O   0  0  0  0  0  0  0  0  0  0  0  0
    2.7530   -4.5035    9.8943 C   0  0  1  0  0  0  0  0  0  0  0  0
    1.6292   -3.7642   10.3688 O   0  0  0  0  0  0  0  0  0  0  0  0
    1.5282   -5.1746   10.5433 C   0  0  2  0  0  0  0  0  0  0  0  0
    1.6679   -5.6472   11.9839 C   0  0  0  0  0  0  0  0  0  0  0  0
    0.2954   -5.8278    9.8889 C   0  0  0  0  0  0  0  0  0  0  0  0
    0.2161   -5.7297    8.3376 C   0  0  2  0  0  0  0  0  0  0  0  0
   -0.6902   -4.2868    7.7506 S   0  0  0  0  0  0  0  0  0  0  0  0
   -1.6943   -3.8789    8.8376 O   0  0  0  0  0  0  0  0  0  0  0  0
    0.9390   -8.2394    7.9616 C   0  0  2  0  0  0  0  0  0  0  0  0
   -0.0247   -8.6595    8.8822 O   0  0  0  0  0  0  0  0  0  0  0  0
    2.4617   -8.0499    8.6678 C   0  0  1  0  0  0  0  0  0  0  0  0
    2.9622   -9.3745    8.7490 O   0  0  0  0  0  0  0  0  0  0  0  0
    6.7897   -9.5368    5.7867 H   0  0  0  0  0  0  0  0  0  0  0  0
    5.4238   -9.2688    6.8589 H   0  0  0  0  0  0  0  0  0  0  0  0
    6.6737   -8.0489    6.7375 H   0  0  0  0  0  0  0  0  0  0  0  0
    4.6281   -8.7374    4.6311 H   0  0  0  0  0  0  0  0  0  0  0  0
    5.9403   -7.1966    2.2812 H   0  0  0  0  0  0  0  0  0  0  0  0
    1.7074   -8.6384    1.8173 H   0  0  0  0  0  0  0  0  0  0  0  0
    2.5548   -6.1299    0.1195 H   0  0  0  0  0  0  0  0  0  0  0  0
    1.5312   -5.0852    0.9980 H   0  0  0  0  0  0  0  0  0  0  0  0
    4.5462   -5.0717    0.6786 H   0  0  0  0  0  0  0  0  0  0  0  0
    3.4245   -3.7864    0.5358 H   0  0  0  0  0  0  0  0  0  0  0  0
    3.5937   -3.1284    2.6880 H   0  0  0  0  0  0  0  0  0  0  0  0
    3.6464   -3.5690    5.0251 H   0  0  0  0  0  0  0  0  0  0  0  0
    5.8257   -5.8166    7.2124 H   0  0  0  0  0  0  0  0  0  0  0  0
    5.6960   -7.3158    8.9581 H   0  0  0  0  0  0  0  0  0  0  0  0
    4.4504   -7.9500    9.9633 H   0  0  0  0  0  0  0  0  0  0  0  0
    4.6998   -6.2393    9.9144 H   0  0  0  0  0  0  0  0  0  0  0  0
    1.7760   -5.5985    6.5638 H   0  0  0  0  0  0  0  0  0  0  0  0
    3.2053   -9.2137    6.3738 H   0  0  0  0  0  0  0  0  0  0  0  0
    3.0097   -9.1032    4.7044 H   0  0  0  0  0  0  0  0  0  0  0  0
    1.6236   -9.4407    5.5417 H   0  0  0  0  0  0  0  0  0  0  0  0
   -0.3442   -7.6446    5.3754 H   0  0  0  0  0  0  0  0  0  0  0  0
   -1.1193   -6.2303    5.8693 H   0  0  0  0  0  0  0  0  0  0  0  0
   -0.3085   -5.3037    4.1962 H   0  0  0  0  0  0  0  0  0  0  0  0
    0.8688   -7.7499    3.6119 H   0  0  0  0  0  0  0  0  0  0  0  0
   -0.2463   -7.4077    1.8296 H   0  0  0  0  0  0  0  0  0  0  0  0
    1.7953   -3.2989    3.0763 H   0  0  0  0  0  0  0  0  0  0  0  0
   -0.0631   -2.9284    4.2074 H   0  0  0  0  0  0  0  0  0  0  0  0
    2.6375   -1.7445    5.0309 H   0  0  0  0  0  0  0  0  0  0  0  0
    2.1442   -0.4111    3.3125 H   0  0  0  0  0  0  0  0  0  0  0  0
    1.3209   -0.4308    6.3960 H   0  0  0  0  0  0  0  0  0  0  0  0
   -0.4561    1.8492    4.3287 H   0  0  0  0  0  0  0  0  0  0  0  0
    1.1586    1.2051    4.0946 H   0  0  0  0  0  0  0  0  0  0  0  0
    0.6298    1.6763    5.7001 H   0  0  0  0  0  0  0  0  0  0  0  0
   -1.3864   -1.7062    5.2880 H   0  0  0  0  0  0  0  0  0  0  0  0
    0.9695   -1.8026    9.0987 H   0  0  0  0  0  0  0  0  0  0  0  0
    2.4788   -3.2641    6.6520 H   0  0  0  0  0  0  0  0  0  0  0  0
    3.6175   -1.8230    7.6029 H   0  0  0  0  0  0  0  0  0  0  0  0
    3.8449   -2.6199    9.4243 H   0  0  0  0  0  0  0  0  0  0  0  0
    3.5892   -4.5273   10.5839 H   0  0  0  0  0  0  0  0  0  0  0  0
    1.9457   -6.7037   12.0253 H   0  0  0  0  0  0  0  0  0  0  0  0
    0.7371   -5.5052   12.5355 H   0  0  0  0  0  0  0  0  0  0  0  0
    2.4492   -5.0815   12.4930 H   0  0  0  0  0  0  0  0  0  0  0  0
    0.2993   -6.8435   10.2550 H   0  0  0  0  0  0  0  0  0  0  0  0
   -0.5986   -5.4108   10.3554 H   0  0  0  0  0  0  0  0  0  0  0  0
    1.0013   -5.0377    8.2806 H   0  0  0  0  0  0  0  0  0  0  0  0
    0.8442   -9.0843    7.3033 H   0  0  0  0  0  0  0  0  0  0  0  0
    0.2184   -9.5354    9.1553 H   0  0  0  0  0  0  0  0  0  0  0  0
    2.2679   -7.8098    9.7262 H   0  0  0  0  0  0  0  0  0  0  0  0
    2.3368   -9.9869    8.3730 H   0  0  0  0  0  0  0  0  0  0  0  0
  1  2  1  0
  1 58  1  0
  1 59  1  0
  1 60  1  0
  2  3  1  0
  2 61  1  0
  3  4  2  0
  3  5  1  0
  5 14  1  0
  5  6  1  6
  5  7  1  0
  6 62  1  0
  7  8  2  0
  7  9  1  0
  9 28  1  0
  9 10  1  6
  9 11  1  0
 10 63  1  0
 11 12  1  0
 11 64  1  0
 11 65  1  0
 12 13  1  0
 12 66  1  0
 12 67  1  0
 13 14  2  0
 13 68  1  0
 14 15  1  0
 15 30  1  0
 15 16  1  0
 15 69  1  1
 16 17  1  0
 17 44  1  0
 17 18  1  6
 17 19  1  0
 18 70  1  0
 19 56  1  0
 19 20  1  6
 19 21  1  0
 20 71  1  0
 20 72  1  0
 20 73  1  0
 21 22  1  0
 22 23  1  0
 22 25  1  0
 22 74  1  6
 23 24  1  0
 24 75  1  0
 24 76  1  0
 24 77  1  0
 25 51  1  0
 25 26  1  6
 25 54  1  0
 26 27  1  0
 26 78  1  0
 26 79  1  0
 27 28  1  0
 27 30  1  0
 27 80  1  6
 28 29  1  0
 28 81  1  1
 29 82  1  0
 30 31  1  6
 30 32  1  0
 31 83  1  0
 32 38  1  0
 32 33  1  0
 32 84  1  6
 33 34  1  0
 33 35  1  0
 33 85  1  1
 34 86  1  0
 35 36  1  0
 35 38  1  0
 35 87  1  1
 36 37  1  0
 37 88  1  0
 37 89  1  0
 37 90  1  0
 38 39  1  6
 38 40  1  0
 39 91  1  0
 52 40  1  1
 40 41  1  1
 40 42  1  0
 41 92  1  0
 42 43  1  0
 42 44  1  0
 42 93  1  6
 43 94  1  0
 44 45  1  1
 44 46  1  0
 45 95  1  0
 46 48  1  0
 46 47  1  0
 46 96  1  1
 47 48  1  0
 48 49  1  1
 48 50  1  0
 49 97  1  0
 49 98  1  0
 49 99  1  0
 50 51  1  0
 50100  1  0
 50101  1  0
 51 52  1  0
 51102  1  6
 52 53  2  0
 54 55  1  0
 54 56  1  0
 54103  1  6
 55104  1  0
 56 57  1  0
 56105  1  1
 57106  1  0
M  END
>  <i_m_ct_stereo_status>  (56) 
1

>  <s_m_source_file>  (56) 
/var/tmp/pbs.5075288.sched01/tmpq0rgj53d/65gxdktgdh.sdf

>  <i_m_source_file_index>  (56) 
4

>  <i_lp_mmshare_version>  (56) 
48012

>  <i_f3d_flags>  (56) 
0

>  <s_epik_input>  (56) 
W09IXVtDQEhdMVtDQEBIXShPW0NIM10pW0NAXShbT0hdKShbQ0BAXShbT0hdKShbUytdMltPLV0pW0NASF0zW09IXSlbQ0BIXTFbQ0BdNChbT0hdKVtDQEhdKFtDSDJdNSlbQ0BASF0oW09IXSlbQ0BdKFtPSF0pKEMoPU8pW0NAXTYoW09IXSlDKD1PKVtOSF1bQ0gzXSlbQ0gyXVtDSDJdW0NIXT1DNltDQEBIXTRPW0NAXShbT0hdKShbQ0BdKFtDSDNdKShbQ0BIXShbT0hdKVtDQEBIXTdbT0hdKU9bQ0BIXThPW0NIM10pW0NAXTMoW09IXSlbQ0BASF0oTzkpW0NAXTkoW0NIM10pW0NIMl1bQ0BASF0yQzU3OA==

>  <s_epik_cmdline>  (56) 
J2VwaWtfcHl0aG9uJywgJy1waHQnLCAnMi4wJywgJy1waCcsICc3LjAnLCAnLXRuJywgJzgnLCAnLW1hJywgJzIwMCcsICctaW1hZScsICc8aW5maWxlLm1hZT4nLCAnLW9tYWUnLCAnPG91dGZpbGUubWFlPic=

>  <r_lp_tautomer_probability>  (56) 
1

>  <r_epik_Ionization_Penalty>  (56) 
1.40957e-05

>  <r_epik_Ionization_Penalty_Charging>  (56) 
0

>  <r_epik_Ionization_Penalty_Neutral>  (56) 
1.40957e-05

>  <r_epik_State_Penalty>  (56) 
-0

>  <r_epik_Charging_Adjusted_Penalty>  (56) 
0

>  <i_epik_Tot_Q>  (56) 
0

>  <i_epik_Tot_abs_Q>  (56) 
2

>  <s_epik_Chemistry_Notes>  (56) 
This compound contains an acetal/aminal-like group ( X-CH(R)-Y where X, Y are N, S, or O) that may be acid/base labile, releasing an aldehyde.

>  <s_lp_Force_Field>  (56) 
OPLS3e

>  <r_lp_Energy>  (56) 
643.596

>  <b_lp_Chiralities_Consistent>  (56) 
1

>  <s_lp_Variant>  (56) 
14:0-21

>  <s_i_glide_gridfile>  (56) 
pfpi4k_grid

>  <i_i_glide_lignum>  (56) 
4

>  <i_i_glide_rotatable_bonds>  (56) 
16

>  <r_i_docking_score>  (56) 
-4.59506

>  <r_i_glide_ligand_efficiency>  (56) 
-0.0806152

>  <r_i_glide_ligand_efficiency_sa>  (56) 
-0.310248

>  <r_i_glide_ligand_efficiency_ln>  (56) 
-0.911168

>  <r_i_glide_gscore>  (56) 
-4.59506

>  <r_i_glide_lipo>  (56) 
-0.0180091

>  <r_i_glide_hbond>  (56) 
-0.0665202

>  <r_i_glide_metal>  (56) 
-0

>  <r_i_glide_rewards>  (56) 
-1.5

>  <r_i_glide_evdw>  (56) 
-26.8107

>  <r_i_glide_ecoul>  (56) 
-11.1938

>  <r_i_glide_erotb>  (56) 
0.0313225

>  <r_i_glide_esite>  (56) 
-0.0222616

>  <r_i_glide_emodel>  (56) 
-60.6875

>  <r_i_glide_energy>  (56) 
-38.0044

>  <r_i_glide_einternal>  (56) 
9.91464

>  <r_i_glide_intrahb_reward>  (56) 
-1.5

>  <i_i_glide_confnum>  (56) 
4

>  <i_i_glide_posenum>  (56) 
20

>  <r_i_glide_eff_state_penalty>  (56) 
0

>  <ligand_id>  (56) 
14

>  <original_smiles>  (56) 
CNC(=O)C1(O)C(=O)C2(O)CCC=C1C1OC3(O)C4(C)OC(OC)C5(CC(C2O)C1(O)C1C(O)C(OC)C1(O)C1(O)C(O)C3(O)C2OC2(C)CC5[S+]1[O-])C(O)C4O

>  <smiles>  (56) 
[H]OC1(C(=O)N([H])C([H])([H])[H])C(=O)C2(O[H])C([H])([H])C([H])([H])C([H])=C1C1([H])OC3(O[H])C4(C([H])([H])[H])OC([H])(OC([H])([H])[H])C5(C([H])([H])C([H])(C2([H])O[H])C1(O[H])C1([H])C([H])(O[H])C([H])(OC([H])([H])[H])C1(O[H])C1(O[H])S(=O)C5([H])C([H])([H])C2(C([H])([H])[H])OC2([H])C3(O[H])C1([H])O[H])C([H])(O[H])C4([H])O[H]

$$$$
14:20:2
     RDKit          3D

106114  0  0  1  0  0  0  0  0999 V2000
    6.7685   -8.8943    5.5288 C   0  0  0  0  0  0  0  0  0  0  0  0
    6.2922   -8.0118    4.4666 N   0  0  0  0  0  0  0  0  0  0  0  0
    6.5173   -6.6831    4.3910 C   0  0  0  0  0  0  0  0  0  0  0  0
    7.2123   -6.1020    5.2213 O   0  0  0  0  0  0  0  0  0  0  0  0
    5.9287   -5.8332    3.2123 C   0  0  1  0  0  0  0  0  0  0  0  0
    7.1392   -5.5224    2.5416 O   0  0  0  0  0  0  0  0  0  0  0  0
    5.1013   -6.5760    2.1328 C   0  0  0  0  0  0  0  0  0  0  0  0
    5.4818   -7.6935    1.7606 O   0  0  0  0  0  0  0  0  0  0  0  0
    3.9459   -5.8671    1.3421 C   0  0  2  0  0  0  0  0  0  0  0  0
    3.8255   -6.6413    0.1507 O   0  0  0  0  0  0  0  0  0  0  0  0
    4.4048   -4.4820    0.6700 C   0  0  0  0  0  0  0  0  0  0  0  0
    5.5066   -3.5481    1.2957 C   0  0  0  0  0  0  0  0  0  0  0  0
    5.3878   -3.4263    2.8045 C   0  0  0  0  0  0  0  0  0  0  0  0
    5.1973   -4.5221    3.5900 C   0  0  0  0  0  0  0  0  0  0  0  0
    4.0994   -4.4612    4.7082 C   0  0  2  0  0  0  0  0  0  0  0  0
    4.4193   -5.5338    5.7078 O   0  0  0  0  0  0  0  0  0  0  0  0
    4.1859   -5.9586    7.1240 C   0  0  2  0  0  0  0  0  0  0  0  0
    5.4852   -5.8303    7.6822 O   0  0  0  0  0  0  0  0  0  0  0  0
    3.8761   -7.6650    7.0941 C   0  0  2  0  0  0  0  0  0  0  0  0
    4.4976   -8.1162    8.4784 C   0  0  0  0  0  0  0  0  0  0  0  0
    2.7155   -7.1493    6.8691 O   0  0  0  0  0  0  0  0  0  0  0  0
    2.3664   -6.9319    5.5534 C   0  0  1  0  0  0  0  0  0  0  0  0
    3.2065   -7.4195    4.4840 O   0  0  0  0  0  0  0  0  0  0  0  0
    3.4363   -8.7800    4.0442 C   0  0  0  0  0  0  0  0  0  0  0  0
    0.9749   -7.2713    5.5451 C   0  0  2  0  0  0  0  0  0  0  0  0
    0.7625   -6.6315    4.0582 C   0  0  0  0  0  0  0  0  0  0  0  0
    1.7511   -5.5013    3.3087 C   0  0  2  0  0  0  0  0  0  0  0  0
    2.4358   -6.0836    1.9429 C   0  0  1  0  0  0  0  0  0  0  0  0
    1.4816   -5.8244    0.9118 O   0  0  0  0  0  0  0  0  0  0  0  0
    2.5545   -4.2364    4.0182 C   0  0  2  0  0  0  0  0  0  0  0  0
    2.7370   -3.5814    2.7886 O   0  0  0  0  0  0  0  0  0  0  0  0
    1.7000   -2.9167    4.4385 C   0  0  2  0  0  0  0  0  0  0  0  0
    2.4665   -1.6173    4.7537 C   0  0  1  0  0  0  0  0  0  0  0  0
    2.8282   -0.7995    3.6583 O   0  0  0  0  0  0  0  0  0  0  0  0
    1.3349   -1.1560    5.6566 C   0  0  1  0  0  0  0  0  0  0  0  0
    0.5030   -0.1937    4.9872 O   0  0  0  0  0  0  0  0  0  0  0  0
   -0.3089    0.5664    5.8890 C   0  0  0  0  0  0  0  0  0  0  0  0
    0.7432   -2.5970    5.6371 C   0  0  1  0  0  0  0  0  0  0  0  0
   -0.5972   -2.4713    5.2102 O   0  0  0  0  0  0  0  0  0  0  0  0
    0.7979   -3.4711    6.9340 C   0  0  2  0  0  0  0  0  0  0  0  0
    0.2074   -2.6734    7.9495 O   0  0  0  0  0  0  0  0  0  0  0  0
    2.3627   -3.7468    7.3547 C   0  0  1  0  0  0  0  0  0  0  0  0
    2.7857   -2.5052    7.9145 O   0  0  0  0  0  0  0  0  0  0  0  0
    3.1398   -4.9929    8.0720 C   0  0  2  0  0  0  0  0  0  0  0  0
    3.9734   -4.3091    9.0014 O   0  0  0  0  0  0  0  0  0  0  0  0
    2.3394   -5.7192    9.2152 C   0  0  1  0  0  0  0  0  0  0  0  0
    1.0888   -5.1070    9.5325 O   0  0  0  0  0  0  0  0  0  0  0  0
    1.0203   -6.5052    9.3138 C   0  0  2  0  0  0  0  0  0  0  0  0
    0.8059   -7.3452   10.5619 C   0  0  0  0  0  0  0  0  0  0  0  0
    0.0451   -6.9406    8.2056 C   0  0  0  0  0  0  0  0  0  0  0  0
    0.3762   -6.4348    6.7821 C   0  0  2  0  0  0  0  0  0  0  0  0
   -0.4106   -4.8524    6.4369 S   0  0  0  0  0  0  0  0  0  0  0  0
   -1.7135   -4.7390    7.2298 O   0  0  0  0  0  0  0  0  0  0  0  0
    1.2962   -8.7921    5.9796 C   0  0  2  0  0  0  0  0  0  0  0  0
    0.1454   -9.4484    6.4951 O   0  0  0  0  0  0  0  0  0  0  0  0
    2.5638   -8.8115    7.1014 C   0  0  1  0  0  0  0  0  0  0  0  0
    3.1024  -10.1169    6.9377 O   0  0  0  0  0  0  0  0  0  0  0  0
    7.5582   -9.5696    5.1765 H   0  0  0  0  0  0  0  0  0  0  0  0
    5.9482   -9.5262    5.8864 H   0  0  0  0  0  0  0  0  0  0  0  0
    7.1473   -8.3558    6.4003 H   0  0  0  0  0  0  0  0  0  0  0  0
    5.7396   -8.4217    3.7356 H   0  0  0  0  0  0  0  0  0  0  0  0
    6.9294   -4.9966    1.7752 H   0  0  0  0  0  0  0  0  0  0  0  0
    3.4980   -6.0740   -0.5469 H   0  0  0  0  0  0  0  0  0  0  0  0
    4.7886   -4.6727   -0.3420 H   0  0  0  0  0  0  0  0  0  0  0  0
    3.5138   -3.8775    0.4789 H   0  0  0  0  0  0  0  0  0  0  0  0
    6.5073   -3.8283    0.9683 H   0  0  0  0  0  0  0  0  0  0  0  0
    5.3904   -2.5440    0.8897 H   0  0  0  0  0  0  0  0  0  0  0  0
    4.9423   -2.4861    3.0897 H   0  0  0  0  0  0  0  0  0  0  0  0
    4.4151   -3.5381    5.1723 H   0  0  0  0  0  0  0  0  0  0  0  0
    5.7328   -4.9047    7.6893 H   0  0  0  0  0  0  0  0  0  0  0  0
    5.5781   -8.2212    8.3833 H   0  0  0  0  0  0  0  0  0  0  0  0
    4.1458   -9.0875    8.8317 H   0  0  0  0  0  0  0  0  0  0  0  0
    4.3068   -7.4224    9.2856 H   0  0  0  0  0  0  0  0  0  0  0  0
    2.3399   -5.8875    5.5903 H   0  0  0  0  0  0  0  0  0  0  0  0
    3.9189   -9.3377    4.8274 H   0  0  0  0  0  0  0  0  0  0  0  0
    4.1778   -8.7603    3.2605 H   0  0  0  0  0  0  0  0  0  0  0  0
    2.6202   -9.2916    3.5684 H   0  0  0  0  0  0  0  0  0  0  0  0
    0.7084   -7.4883    3.3900 H   0  0  0  0  0  0  0  0  0  0  0  0
   -0.2560   -6.2430    4.0165 H   0  0  0  0  0  0  0  0  0  0  0  0
    0.9240   -4.9228    2.8947 H   0  0  0  0  0  0  0  0  0  0  0  0
    2.3790   -7.1596    2.0493 H   0  0  0  0  0  0  0  0  0  0  0  0
    1.8564   -6.1767    0.1092 H   0  0  0  0  0  0  0  0  0  0  0  0
    3.1258   -2.7265    2.9408 H   0  0  0  0  0  0  0  0  0  0  0  0
    1.0034   -2.6483    3.6199 H   0  0  0  0  0  0  0  0  0  0  0  0
    3.3408   -1.7546    5.3899 H   0  0  0  0  0  0  0  0  0  0  0  0
    2.0288   -0.4721    3.2555 H   0  0  0  0  0  0  0  0  0  0  0  0
    1.7134   -0.7840    6.6047 H   0  0  0  0  0  0  0  0  0  0  0  0
   -0.8826    1.3212    5.3610 H   0  0  0  0  0  0  0  0  0  0  0  0
    0.2942    1.0761    6.6424 H   0  0  0  0  0  0  0  0  0  0  0  0
   -1.0056   -0.0909    6.4076 H   0  0  0  0  0  0  0  0  0  0  0  0
   -0.5629   -1.7869    4.5502 H   0  0  0  0  0  0  0  0  0  0  0  0
    0.5387   -2.9967    8.7862 H   0  0  0  0  0  0  0  0  0  0  0  0
    2.8477   -3.6910    6.4358 H   0  0  0  0  0  0  0  0  0  0  0  0
    2.4434   -2.5096    8.8125 H   0  0  0  0  0  0  0  0  0  0  0  0
    4.4129   -3.6253    8.5022 H   0  0  0  0  0  0  0  0  0  0  0  0
    2.9576   -5.9323   10.0819 H   0  0  0  0  0  0  0  0  0  0  0  0
    1.1218   -8.3837   10.3951 H   0  0  0  0  0  0  0  0  0  0  0  0
   -0.2304   -7.3312   10.8621 H   0  0  0  0  0  0  0  0  0  0  0  0
    1.4106   -6.9469   11.3829 H   0  0  0  0  0  0  0  0  0  0  0  0
   -0.0095   -8.0085    8.2940 H   0  0  0  0  0  0  0  0  0  0  0  0
   -0.9452   -6.6102    8.4735 H   0  0  0  0  0  0  0  0  0  0  0  0
    1.1147   -5.7729    7.1089 H   0  0  0  0  0  0  0  0  0  0  0  0
    1.4440   -9.4131    5.1254 H   0  0  0  0  0  0  0  0  0  0  0  0
    0.3280  -10.3829    6.5236 H   0  0  0  0  0  0  0  0  0  0  0  0
    2.0927   -8.8353    8.0975 H   0  0  0  0  0  0  0  0  0  0  0  0
    2.4284  -10.7627    7.1571 H   0  0  0  0  0  0  0  0  0  0  0  0
  1  2  1  0
  1 58  1  0
  1 59  1  0
  1 60  1  0
  2  3  1  0
  2 61  1  0
  3  4  2  0
  3  5  1  0
  5 14  1  0
  5  6  1  6
  5  7  1  0
  6 62  1  0
  7  8  2  0
  7  9  1  0
  9 28  1  0
  9 10  1  6
  9 11  1  0
 10 63  1  0
 11 12  1  0
 11 64  1  0
 11 65  1  0
 12 13  1  0
 12 66  1  0
 12 67  1  0
 13 14  2  0
 13 68  1  0
 14 15  1  0
 15 30  1  0
 15 16  1  0
 15 69  1  1
 16 17  1  0
 17 44  1  0
 17 18  1  1
 17 19  1  0
 18 70  1  0
 19 56  1  0
 19 20  1  6
 19 21  1  0
 20 71  1  0
 20 72  1  0
 20 73  1  0
 21 22  1  0
 22 23  1  0
 22 25  1  0
 22 74  1  1
 23 24  1  0
 24 75  1  0
 24 76  1  0
 24 77  1  0
 25 51  1  0
 25 26  1  6
 25 54  1  0
 26 27  1  0
 26 78  1  0
 26 79  1  0
 27 28  1  0
 27 30  1  0
 27 80  1  6
 28 29  1  0
 28 81  1  1
 29 82  1  0
 30 31  1  6
 30 32  1  0
 31 83  1  0
 32 38  1  0
 32 33  1  0
 32 84  1  6
 33 34  1  0
 33 35  1  0
 33 85  1  1
 34 86  1  0
 35 36  1  0
 35 38  1  0
 35 87  1  1
 36 37  1  0
 37 88  1  0
 37 89  1  0
 37 90  1  0
 38 39  1  6
 38 40  1  0
 39 91  1  0
 52 40  1  1
 40 41  1  1
 40 42  1  0
 41 92  1  0
 42 43  1  0
 42 44  1  0
 42 93  1  6
 43 94  1  0
 44 45  1  1
 44 46  1  0
 45 95  1  0
 46 48  1  0
 46 47  1  0
 46 96  1  1
 47 48  1  0
 48 49  1  1
 48 50  1  0
 49 97  1  0
 49 98  1  0
 49 99  1  0
 50 51  1  0
 50100  1  0
 50101  1  0
 51 52  1  0
 51102  1  1
 52 53  2  0
 54 55  1  0
 54 56  1  0
 54103  1  6
 55104  1  0
 56 57  1  0
 56105  1  1
 57106  1  0
M  END
>  <i_m_ct_stereo_status>  (57) 
1

>  <s_m_source_file>  (57) 
/var/tmp/pbs.5075288.sched01/tmpq0rgj53d/65gxdktgdh.sdf

>  <i_m_source_file_index>  (57) 
4

>  <i_lp_mmshare_version>  (57) 
48012

>  <i_f3d_flags>  (57) 
0

>  <s_epik_input>  (57) 
W09IXVtDQEhdMVtDQEBIXShPW0NIM10pW0NAXShbT0hdKShbQ0BAXShbT0hdKShbUytdMltPLV0pW0NASF0zW09IXSlbQ0BIXTFbQ0BdNChbT0hdKVtDQEhdKFtDSDJdNSlbQ0BASF0oW09IXSlbQ0BdKFtPSF0pKEMoPU8pW0NAXTYoW09IXSlDKD1PKVtOSF1bQ0gzXSlbQ0gyXVtDSDJdW0NIXT1DNltDQEBIXTRPW0NAXShbT0hdKShbQ0BdKFtDSDNdKShbQ0BIXShbT0hdKVtDQEBIXTdbT0hdKU9bQ0BIXThPW0NIM10pW0NAXTMoW09IXSlbQ0BASF0oTzkpW0NAXTkoW0NIM10pW0NIMl1bQ0BASF0yQzU3OA==

>  <s_epik_cmdline>  (57) 
J2VwaWtfcHl0aG9uJywgJy1waHQnLCAnMi4wJywgJy1waCcsICc3LjAnLCAnLXRuJywgJzgnLCAnLW1hJywgJzIwMCcsICctaW1hZScsICc8aW5maWxlLm1hZT4nLCAnLW9tYWUnLCAnPG91dGZpbGUubWFlPic=

>  <r_lp_tautomer_probability>  (57) 
1

>  <r_epik_Ionization_Penalty>  (57) 
1.40957e-05

>  <r_epik_Ionization_Penalty_Charging>  (57) 
0

>  <r_epik_Ionization_Penalty_Neutral>  (57) 
1.40957e-05

>  <r_epik_State_Penalty>  (57) 
-0

>  <r_epik_Charging_Adjusted_Penalty>  (57) 
0

>  <i_epik_Tot_Q>  (57) 
0

>  <i_epik_Tot_abs_Q>  (57) 
2

>  <s_epik_Chemistry_Notes>  (57) 
This compound contains an acetal/aminal-like group ( X-CH(R)-Y where X, Y are N, S, or O) that may be acid/base labile, releasing an aldehyde.

>  <s_lp_Force_Field>  (57) 
OPLS3e

>  <r_lp_Energy>  (57) 
643.596

>  <b_lp_Chiralities_Consistent>  (57) 
1

>  <s_lp_Variant>  (57) 
14:0-21

>  <s_i_glide_gridfile>  (57) 
pfpi4k_grid

>  <i_i_glide_lignum>  (57) 
4

>  <i_i_glide_rotatable_bonds>  (57) 
16

>  <r_i_docking_score>  (57) 
-4.13596

>  <r_i_glide_ligand_efficiency>  (57) 
-0.0725607

>  <r_i_glide_ligand_efficiency_sa>  (57) 
-0.27925

>  <r_i_glide_ligand_efficiency_ln>  (57) 
-0.820131

>  <r_i_glide_gscore>  (57) 
-4.13596

>  <r_i_glide_lipo>  (57) 
-0.18939

>  <r_i_glide_hbond>  (57) 
0

>  <r_i_glide_metal>  (57) 
-0

>  <r_i_glide_rewards>  (57) 
-1.0422

>  <r_i_glide_evdw>  (57) 
-26.1312

>  <r_i_glide_ecoul>  (57) 
-10.8609

>  <r_i_glide_erotb>  (57) 
0.0313225

>  <r_i_glide_esite>  (57) 
0

>  <r_i_glide_emodel>  (57) 
-55.7301

>  <r_i_glide_energy>  (57) 
-36.9921

>  <r_i_glide_einternal>  (57) 
3.79112

>  <r_i_glide_intrahb_reward>  (57) 
-1

>  <i_i_glide_confnum>  (57) 
4

>  <i_i_glide_posenum>  (57) 
1

>  <r_i_glide_eff_state_penalty>  (57) 
0

>  <ligand_id>  (57) 
14

>  <original_smiles>  (57) 
CNC(=O)C1(O)C(=O)C2(O)CCC=C1C1OC3(O)C4(C)OC(OC)C5(CC(C2O)C1(O)C1C(O)C(OC)C1(O)C1(O)C(O)C3(O)C2OC2(C)CC5[S+]1[O-])C(O)C4O

>  <smiles>  (57) 
[H]OC1(C(=O)N([H])C([H])([H])[H])C(=O)C2(O[H])C([H])([H])C([H])([H])C([H])=C1C1([H])OC3(O[H])C4(C([H])([H])[H])OC([H])(OC([H])([H])[H])C5(C([H])([H])C([H])(C2([H])O[H])C1(O[H])C1([H])C([H])(O[H])C([H])(OC([H])([H])[H])C1(O[H])C1(O[H])S(=O)C5([H])C([H])([H])C2(C([H])([H])[H])OC2([H])C3(O[H])C1([H])O[H])C([H])(O[H])C4([H])O[H]

$$$$
14:21:0
     RDKit          3D

106114  0  0  1  0  0  0  0  0999 V2000
    8.1229   -7.2691    5.0129 C   0  0  0  0  0  0  0  0  0  0  0  0
    6.8538   -7.0279    4.3139 N   0  0  0  0  0  0  0  0  0  0  0  0
    6.1360   -5.8997    4.4511 C   0  0  0  0  0  0  0  0  0  0  0  0
    6.5327   -4.9959    5.1709 O   0  0  0  0  0  0  0  0  0  0  0  0
    4.9506   -5.5843    3.5103 C   0  0  1  0  0  0  0  0  0  0  0  0
    5.7102   -5.4732    2.3126 O   0  0  0  0  0  0  0  0  0  0  0  0
    3.9499   -6.7098    3.1719 C   0  0  0  0  0  0  0  0  0  0  0  0
    4.1621   -7.8960    3.4413 O   0  0  0  0  0  0  0  0  0  0  0  0
    2.6821   -6.3313    2.3275 C   0  0  2  0  0  0  0  0  0  0  0  0
    2.4470   -7.4510    1.4653 O   0  0  0  0  0  0  0  0  0  0  0  0
    2.9125   -5.1991    1.2061 C   0  0  0  0  0  0  0  0  0  0  0  0
    3.7527   -3.8622    1.3805 C   0  0  0  0  0  0  0  0  0  0  0  0
    4.0207   -3.4225    2.8081 C   0  0  0  0  0  0  0  0  0  0  0  0
    4.1169   -4.3180    3.8136 C   0  0  0  0  0  0  0  0  0  0  0  0
    3.1835   -4.1139    5.0734 C   0  0  2  0  0  0  0  0  0  0  0  0
    3.2961   -5.0565    6.2024 O   0  0  0  0  0  0  0  0  0  0  0  0
    3.7627   -5.1169    7.5961 C   0  0  2  0  0  0  0  0  0  0  0  0
    5.1872   -5.0141    7.5301 O   0  0  0  0  0  0  0  0  0  0  0  0
    3.4938   -6.7384    8.1722 C   0  0  1  0  0  0  0  0  0  0  0  0
    4.5488   -7.0883    9.2550 C   0  0  0  0  0  0  0  0  0  0  0  0
    2.1999   -7.1881    8.8038 O   0  0  0  0  0  0  0  0  0  0  0  0
    1.0870   -7.7574    8.0396 C   0  0  1  0  0  0  0  0  0  0  0  0
   -0.1346   -7.8994    8.6926 O   0  0  0  0  0  0  0  0  0  0  0  0
   -0.0327   -8.7181    9.8547 C   0  0  0  0  0  0  0  0  0  0  0  0
    1.0548   -6.7176    6.8922 C   0  0  1  0  0  0  0  0  0  0  0  0
    0.1868   -6.5487    5.5903 C   0  0  0  0  0  0  0  0  0  0  0  0
    0.8060   -5.5357    4.4196 C   0  0  2  0  0  0  0  0  0  0  0  0
    1.2726   -6.3952    3.1230 C   0  0  1  0  0  0  0  0  0  0  0  0
    0.2069   -6.3412    2.1591 O   0  0  0  0  0  0  0  0  0  0  0  0
    1.5982   -4.0884    4.6158 C   0  0  2  0  0  0  0  0  0  0  0  0
    1.4060   -3.8041    3.2609 O   0  0  0  0  0  0  0  0  0  0  0  0
    0.7630   -2.7292    4.8821 C   0  0  2  0  0  0  0  0  0  0  0  0
    1.1720   -1.3444    4.2545 C   0  0  1  0  0  0  0  0  0  0  0  0
    0.1901   -0.6947    3.4894 O   0  0  0  0  0  0  0  0  0  0  0  0
    1.4210   -0.7815    5.6422 C   0  0  1  0  0  0  0  0  0  0  0  0
    0.9740    0.5596    5.8295 O   0  0  0  0  0  0  0  0  0  0  0  0
    1.8454    1.5184    5.2246 C   0  0  0  0  0  0  0  0  0  0  0  0
    0.5001   -1.9060    6.2169 C   0  0  1  0  0  0  0  0  0  0  0  0
   -0.8558   -1.4548    6.2140 O   0  0  0  0  0  0  0  0  0  0  0  0
    0.7343   -2.6136    7.5882 C   0  0  2  0  0  0  0  0  0  0  0  0
    0.1773   -1.8585    8.6390 O   0  0  0  0  0  0  0  0  0  0  0  0
    2.3436   -2.7013    7.8778 C   0  0  1  0  0  0  0  0  0  0  0  0
    2.6325   -1.4646    8.5555 O   0  0  0  0  0  0  0  0  0  0  0  0
    3.2784   -3.8397    8.5541 C   0  0  2  0  0  0  0  0  0  0  0  0
    4.4387   -3.0544    8.8585 O   0  0  0  0  0  0  0  0  0  0  0  0
    2.8980   -4.2758    9.9314 C   0  0  1  0  0  0  0  0  0  0  0  0
    1.8282   -3.5529   10.5429 O   0  0  0  0  0  0  0  0  0  0  0  0
    1.6445   -4.9805   10.3504 C   0  0  2  0  0  0  0  0  0  0  0  0
    1.6572   -5.7691   11.6351 C   0  0  0  0  0  0  0  0  0  0  0  0
    0.4651   -5.2685    9.4312 C   0  0  0  0  0  0  0  0  0  0  0  0
    0.7653   -5.4124    7.8466 C   0  0  2  0  0  0  0  0  0  0  0  0
   -0.3144   -4.1231    7.1543 S   0  0  0  0  0  0  0  0  0  0  0  0
   -1.6640   -4.0622    7.8688 O   0  0  0  0  0  0  0  0  0  0  0  0
    2.3302   -7.4273    6.1700 C   0  0  2  0  0  0  0  0  0  0  0  0
    2.0332   -8.6609    5.5122 O   0  0  0  0  0  0  0  0  0  0  0  0
    3.5447   -7.7241    7.0385 C   0  0  1  0  0  0  0  0  0  0  0  0
    4.7510   -7.7155    6.3519 O   0  0  0  0  0  0  0  0  0  0  0  0
    8.9476   -7.2498    4.3000 H   0  0  0  0  0  0  0  0  0  0  0  0
    8.1271   -8.2351    5.5192 H   0  0  0  0  0  0  0  0  0  0  0  0
    8.3577   -6.5152    5.7676 H   0  0  0  0  0  0  0  0  0  0  0  0
    6.5612   -7.7403    3.6580 H   0  0  0  0  0  0  0  0  0  0  0  0
    6.1559   -6.2823    2.1529 H   0  0  0  0  0  0  0  0  0  0  0  0
    2.4950   -8.2218    2.0063 H   0  0  0  0  0  0  0  0  0  0  0  0
    3.3730   -5.6910    0.3399 H   0  0  0  0  0  0  0  0  0  0  0  0
    1.9255   -4.8970    0.8382 H   0  0  0  0  0  0  0  0  0  0  0  0
    4.6834   -3.8934    0.8044 H   0  0  0  0  0  0  0  0  0  0  0  0
    3.2051   -3.0474    0.8949 H   0  0  0  0  0  0  0  0  0  0  0  0
    3.5789   -2.4675    2.9937 H   0  0  0  0  0  0  0  0  0  0  0  0
    3.4952   -3.1074    5.3028 H   0  0  0  0  0  0  0  0  0  0  0  0
    5.4820   -5.6953    6.9385 H   0  0  0  0  0  0  0  0  0  0  0  0
    5.5714   -7.0206    8.9112 H   0  0  0  0  0  0  0  0  0  0  0  0
    4.4021   -8.1355    9.5514 H   0  0  0  0  0  0  0  0  0  0  0  0
    4.4433   -6.4832   10.1531 H   0  0  0  0  0  0  0  0  0  0  0  0
    1.2873   -8.7863    7.7409 H   0  0  0  0  0  0  0  0  0  0  0  0
   -0.9860   -8.7237   10.3726 H   0  0  0  0  0  0  0  0  0  0  0  0
    0.6958   -8.3414   10.5480 H   0  0  0  0  0  0  0  0  0  0  0  0
    0.2472   -9.7379    9.6088 H   0  0  0  0  0  0  0  0  0  0  0  0
   -0.0428   -7.5282    5.1521 H   0  0  0  0  0  0  0  0  0  0  0  0
   -0.8364   -6.2560    5.8476 H   0  0  0  0  0  0  0  0  0  0  0  0
   -0.1872   -5.1852    4.1022 H   0  0  0  0  0  0  0  0  0  0  0  0
    1.1968   -7.4314    3.4509 H   0  0  0  0  0  0  0  0  0  0  0  0
    0.3896   -7.0629    1.5727 H   0  0  0  0  0  0  0  0  0  0  0  0
    1.7905   -2.9880    3.0196 H   0  0  0  0  0  0  0  0  0  0  0  0
   -0.2606   -2.8797    4.4819 H   0  0  0  0  0  0  0  0  0  0  0  0
    2.1019   -1.3346    3.7105 H   0  0  0  0  0  0  0  0  0  0  0  0
    0.6086   -0.0120    2.9931 H   0  0  0  0  0  0  0  0  0  0  0  0
    2.4844   -0.9066    5.8566 H   0  0  0  0  0  0  0  0  0  0  0  0
    1.4787    2.5285    5.3720 H   0  0  0  0  0  0  0  0  0  0  0  0
    1.9464    1.3653    4.1467 H   0  0  0  0  0  0  0  0  0  0  0  0
    2.8458    1.4591    5.6559 H   0  0  0  0  0  0  0  0  0  0  0  0
   -0.8473   -0.8440    5.4947 H   0  0  0  0  0  0  0  0  0  0  0  0
    0.7696   -1.9714    9.3624 H   0  0  0  0  0  0  0  0  0  0  0  0
    2.8636   -2.5130    6.9760 H   0  0  0  0  0  0  0  0  0  0  0  0
    3.5658   -1.5232    8.6959 H   0  0  0  0  0  0  0  0  0  0  0  0
    5.1193   -3.6690    9.0814 H   0  0  0  0  0  0  0  0  0  0  0  0
    3.7343   -4.4583   10.5932 H   0  0  0  0  0  0  0  0  0  0  0  0
    1.9252   -6.8139   11.4613 H   0  0  0  0  0  0  0  0  0  0  0  0
    0.7117   -5.6920   12.1496 H   0  0  0  0  0  0  0  0  0  0  0  0
    2.4400   -5.3751   12.2929 H   0  0  0  0  0  0  0  0  0  0  0  0
   -0.1454   -6.0352    9.8813 H   0  0  0  0  0  0  0  0  0  0  0  0
   -0.1729   -4.4074    9.6039 H   0  0  0  0  0  0  0  0  0  0  0  0
    1.5242   -4.8327    7.5063 H   0  0  0  0  0  0  0  0  0  0  0  0
    2.6552   -6.8792    5.3238 H   0  0  0  0  0  0  0  0  0  0  0  0
    1.8433   -9.3433    6.1321 H   0  0  0  0  0  0  0  0  0  0  0  0
    3.4975   -8.7141    7.4736 H   0  0  0  0  0  0  0  0  0  0  0  0
    4.7782   -8.4516    5.7620 H   0  0  0  0  0  0  0  0  0  0  0  0
  1  2  1  0
  1 58  1  0
  1 59  1  0
  1 60  1  0
  2  3  1  0
  2 61  1  0
  3  4  2  0
  3  5  1  0
  5 14  1  0
  5  6  1  6
  5  7  1  0
  6 62  1  0
  7  8  2  0
  7  9  1  0
  9 28  1  0
  9 10  1  6
  9 11  1  0
 10 63  1  0
 11 12  1  0
 11 64  1  0
 11 65  1  0
 12 13  1  0
 12 66  1  0
 12 67  1  0
 13 14  2  0
 13 68  1  0
 14 15  1  0
 15 30  1  0
 15 16  1  0
 15 69  1  1
 16 17  1  0
 17 44  1  0
 17 18  1  6
 17 19  1  0
 18 70  1  0
 19 56  1  0
 19 20  1  1
 19 21  1  0
 20 71  1  0
 20 72  1  0
 20 73  1  0
 21 22  1  0
 22 23  1  0
 22 25  1  0
 22 74  1  6
 23 24  1  0
 24 75  1  0
 24 76  1  0
 24 77  1  0
 25 51  1  0
 25 26  1  6
 25 54  1  0
 26 27  1  0
 26 78  1  0
 26 79  1  0
 27 28  1  0
 27 30  1  0
 27 80  1  6
 28 29  1  0
 28 81  1  1
 29 82  1  0
 30 31  1  6
 30 32  1  0
 31 83  1  0
 32 38  1  0
 32 33  1  0
 32 84  1  6
 33 34  1  0
 33 35  1  0
 33 85  1  6
 34 86  1  0
 35 36  1  0
 35 38  1  0
 35 87  1  1
 36 37  1  0
 37 88  1  0
 37 89  1  0
 37 90  1  0
 38 39  1  1
 38 40  1  0
 39 91  1  0
 52 40  1  1
 40 41  1  1
 40 42  1  0
 41 92  1  0
 42 43  1  0
 42 44  1  0
 42 93  1  6
 43 94  1  0
 44 45  1  1
 44 46  1  0
 45 95  1  0
 46 48  1  0
 46 47  1  0
 46 96  1  1
 47 48  1  0
 48 49  1  1
 48 50  1  0
 49 97  1  0
 49 98  1  0
 49 99  1  0
 50 51  1  0
 50100  1  0
 50101  1  0
 51 52  1  0
 51102  1  1
 52 53  2  0
 54 55  1  0
 54 56  1  0
 54103  1  6
 55104  1  0
 56 57  1  0
 56105  1  1
 57106  1  0
M  END
>  <i_m_ct_stereo_status>  (58) 
1

>  <s_m_source_file>  (58) 
/var/tmp/pbs.5075288.sched01/tmpq0rgj53d/65gxdktgdh.sdf

>  <i_m_source_file_index>  (58) 
5

>  <i_lp_mmshare_version>  (58) 
48012

>  <i_f3d_flags>  (58) 
0

>  <s_epik_input>  (58) 
W09IXVtDQEhdMVtDQEBIXShPW0NIM10pW0NAXShbT0hdKShbQ0BAXShbT0hdKShbUytdMltPLV0pW0NASF0zW09IXSlbQ0BIXTFbQ0BdNChbT0hdKVtDQEhdKFtDSDJdNSlbQ0BASF0oW09IXSlbQ0BdKFtPSF0pKEMoPU8pW0NAXTYoW09IXSlDKD1PKVtOSF1bQ0gzXSlbQ0gyXVtDSDJdW0NIXT1DNltDQEBIXTRPW0NAXShbT0hdKShbQ0BdKFtDSDNdKShbQ0BIXShbT0hdKVtDQEBIXTdbT0hdKU9bQ0BIXThPW0NIM10pW0NAXTMoW09IXSlbQ0BASF0oTzkpW0NAXTkoW0NIM10pW0NIMl1bQ0BASF0yQzU3OA==

>  <s_epik_cmdline>  (58) 
J2VwaWtfcHl0aG9uJywgJy1waHQnLCAnMi4wJywgJy1waCcsICc3LjAnLCAnLXRuJywgJzgnLCAnLW1hJywgJzIwMCcsICctaW1hZScsICc8aW5maWxlLm1hZT4nLCAnLW9tYWUnLCAnPG91dGZpbGUubWFlPic=

>  <r_lp_tautomer_probability>  (58) 
1

>  <r_epik_Ionization_Penalty>  (58) 
1.40957e-05

>  <r_epik_Ionization_Penalty_Charging>  (58) 
0

>  <r_epik_Ionization_Penalty_Neutral>  (58) 
1.40957e-05

>  <r_epik_State_Penalty>  (58) 
-0

>  <r_epik_Charging_Adjusted_Penalty>  (58) 
0

>  <i_epik_Tot_Q>  (58) 
0

>  <i_epik_Tot_abs_Q>  (58) 
2

>  <s_epik_Chemistry_Notes>  (58) 
This compound contains an acetal/aminal-like group ( X-CH(R)-Y where X, Y are N, S, or O) that may be acid/base labile, releasing an aldehyde.

>  <s_lp_Force_Field>  (58) 
OPLS3e

>  <r_lp_Energy>  (58) 
483.903

>  <b_lp_Chiralities_Consistent>  (58) 
1

>  <s_lp_Variant>  (58) 
14:0-22

>  <s_i_glide_gridfile>  (58) 
pfpi4k_grid

>  <i_i_glide_lignum>  (58) 
5

>  <i_i_glide_rotatable_bonds>  (58) 
16

>  <r_i_docking_score>  (58) 
-4.47223

>  <r_i_glide_ligand_efficiency>  (58) 
-0.0784602

>  <r_i_glide_ligand_efficiency_sa>  (58) 
-0.301954

>  <r_i_glide_ligand_efficiency_ln>  (58) 
-0.886811

>  <r_i_glide_gscore>  (58) 
-4.47223

>  <r_i_glide_lipo>  (58) 
-0.0250953

>  <r_i_glide_hbond>  (58) 
-0.182065

>  <r_i_glide_metal>  (58) 
-0

>  <r_i_glide_rewards>  (58) 
-1.50002

>  <r_i_glide_evdw>  (58) 
-24.0034

>  <r_i_glide_ecoul>  (58) 
-10.4168

>  <r_i_glide_erotb>  (58) 
0.0313225

>  <r_i_glide_esite>  (58) 
-0.0336859

>  <r_i_glide_emodel>  (58) 
-56.2934

>  <r_i_glide_energy>  (58) 
-34.4202

>  <r_i_glide_einternal>  (58) 
7.71923

>  <r_i_glide_intrahb_reward>  (58) 
-1.5

>  <i_i_glide_confnum>  (58) 
4

>  <i_i_glide_posenum>  (58) 
33

>  <r_i_glide_eff_state_penalty>  (58) 
0

>  <ligand_id>  (58) 
14

>  <original_smiles>  (58) 
CNC(=O)C1(O)C(=O)C2(O)CCC=C1C1OC3(O)C4(C)OC(OC)C5(CC(C2O)C1(O)C1C(O)C(OC)C1(O)C1(O)C(O)C3(O)C2OC2(C)CC5[S+]1[O-])C(O)C4O

>  <smiles>  (58) 
[H]OC1(C(=O)N([H])C([H])([H])[H])C(=O)C2(O[H])C([H])([H])C([H])([H])C([H])=C1C1([H])OC3(O[H])C4(C([H])([H])[H])OC([H])(OC([H])([H])[H])C5(C([H])([H])C([H])(C2([H])O[H])C1(O[H])C1([H])C([H])(O[H])C([H])(OC([H])([H])[H])C1(O[H])C1(O[H])S(=O)C5([H])C([H])([H])C2(C([H])([H])[H])OC2([H])C3(O[H])C1([H])O[H])C([H])(O[H])C4([H])O[H]

$$$$
14:21:1
     RDKit          3D

106114  0  0  1  0  0  0  0  0999 V2000
    8.3564   -7.2104    2.7572 C   0  0  0  0  0  0  0  0  0  0  0  0
    7.5103   -6.0092    2.7675 N   0  0  0  0  0  0  0  0  0  0  0  0
    6.5775   -5.7350    1.8125 C   0  0  0  0  0  0  0  0  0  0  0  0
    6.4785   -6.3770    0.8079 O   0  0  0  0  0  0  0  0  0  0  0  0
    5.7461   -4.4526    2.0113 C   0  0  1  0  0  0  0  0  0  0  0  0
    6.7307   -3.5471    1.5032 O   0  0  0  0  0  0  0  0  0  0  0  0
    4.5323   -4.1444    1.1358 C   0  0  0  0  0  0  0  0  0  0  0  0
    4.2488   -4.8597    0.1797 O   0  0  0  0  0  0  0  0  0  0  0  0
    3.6744   -2.8754    1.4825 C   0  0  2  0  0  0  0  0  0  0  0  0
    3.3134   -2.3723    0.1932 O   0  0  0  0  0  0  0  0  0  0  0  0
    4.4624   -1.5932    2.0521 C   0  0  0  0  0  0  0  0  0  0  0  0
    5.6178   -1.6495    3.1009 C   0  0  0  0  0  0  0  0  0  0  0  0
    5.6287   -2.9112    3.9313 C   0  0  0  0  0  0  0  0  0  0  0  0
    5.3188   -4.1342    3.4567 C   0  0  0  0  0  0  0  0  0  0  0  0
    4.3109   -4.9529    4.3514 C   0  0  2  0  0  0  0  0  0  0  0  0
    3.8828   -6.2816    3.8668 O   0  0  0  0  0  0  0  0  0  0  0  0
    4.1270   -7.6982    4.0948 C   0  0  2  0  0  0  0  0  0  0  0  0
    5.4735   -7.9246    3.7666 O   0  0  0  0  0  0  0  0  0  0  0  0
    3.2271   -8.6185    2.9520 C   0  0  1  0  0  0  0  0  0  0  0  0
    3.8648  -10.0048    2.7203 C   0  0  0  0  0  0  0  0  0  0  0  0
    1.7503   -8.9732    3.0548 O   0  0  0  0  0  0  0  0  0  0  0  0
    0.6662   -8.0621    2.5858 C   0  0  1  0  0  0  0  0  0  0  0  0
   -0.6371   -8.3561    2.9742 O   0  0  0  0  0  0  0  0  0  0  0  0
   -1.1683   -9.5434    2.3738 C   0  0  0  0  0  0  0  0  0  0  0  0
    1.1974   -6.7541    3.1539 C   0  0  1  0  0  0  0  0  0  0  0  0
    0.7054   -5.2644    3.1165 C   0  0  0  0  0  0  0  0  0  0  0  0
    1.8284   -4.0772    3.4273 C   0  0  2  0  0  0  0  0  0  0  0  0
    2.2184   -3.2141    2.0942 C   0  0  1  0  0  0  0  0  0  0  0  0
    1.4609   -1.9824    2.1560 O   0  0  0  0  0  0  0  0  0  0  0  0
    2.9495   -4.0624    4.6356 C   0  0  2  0  0  0  0  0  0  0  0  0
    3.1056   -2.6551    4.5049 O   0  0  0  0  0  0  0  0  0  0  0  0
    2.6079   -3.7328    6.1803 C   0  0  2  0  0  0  0  0  0  0  0  0
    3.5855   -2.8957    7.0757 C   0  0  1  0  0  0  0  0  0  0  0  0
    3.0733   -1.6867    7.6079 O   0  0  0  0  0  0  0  0  0  0  0  0
    3.7524   -4.1043    7.9819 C   0  0  1  0  0  0  0  0  0  0  0  0
    3.7777   -3.7843    9.3726 O   0  0  0  0  0  0  0  0  0  0  0  0
    5.0382   -3.2676    9.8081 C   0  0  0  0  0  0  0  0  0  0  0  0
    2.4378   -4.6922    7.4229 C   0  0  1  0  0  0  0  0  0  0  0  0
    1.3152   -4.2480    8.1757 O   0  0  0  0  0  0  0  0  0  0  0  0
    2.2232   -6.2080    7.1819 C   0  0  2  0  0  0  0  0  0  0  0  0
    1.7361   -6.8374    8.3685 O   0  0  0  0  0  0  0  0  0  0  0  0
    3.6164   -6.9811    6.7803 C   0  0  1  0  0  0  0  0  0  0  0  0
    4.1821   -7.3899    8.0417 O   0  0  0  0  0  0  0  0  0  0  0  0
    3.9564   -8.1351    5.6738 C   0  0  2  0  0  0  0  0  0  0  0  0
    5.2390   -8.5855    6.1391 O   0  0  0  0  0  0  0  0  0  0  0  0
    3.1782   -9.4182    5.8691 C   0  0  1  0  0  0  0  0  0  0  0  0
    2.3169   -9.4746    6.9970 O   0  0  0  0  0  0  0  0  0  0  0  0
    1.6835   -9.6202    5.7250 C   0  0  2  0  0  0  0  0  0  0  0  0
    1.1764  -11.0012    5.3684 C   0  0  0  0  0  0  0  0  0  0  0  0
    0.6664   -8.5260    5.4644 C   0  0  0  0  0  0  0  0  0  0  0  0
    1.1875   -7.2039    4.7280 C   0  0  2  0  0  0  0  0  0  0  0  0
    0.8140   -5.9411    5.9521 S   0  0  0  0  0  0  0  0  0  0  0  0
   -0.5787   -6.1365    6.5562 O   0  0  0  0  0  0  0  0  0  0  0  0
    2.2782   -6.6447    1.9309 C   0  0  2  0  0  0  0  0  0  0  0  0
    1.6986   -6.2601    0.6951 O   0  0  0  0  0  0  0  0  0  0  0  0
    3.1279   -7.8968    1.6139 C   0  0  1  0  0  0  0  0  0  0  0  0
    4.3249   -7.7392    0.8733 O   0  0  0  0  0  0  0  0  0  0  0  0
    8.1691   -7.7784    3.6673 H   0  0  0  0  0  0  0  0  0  0  0  0
    9.4116   -6.9526    2.7443 H   0  0  0  0  0  0  0  0  0  0  0  0
    8.1674   -7.8832    1.9214 H   0  0  0  0  0  0  0  0  0  0  0  0
    7.7130   -5.3094    3.4539 H   0  0  0  0  0  0  0  0  0  0  0  0
    6.3714   -2.6644    1.5489 H   0  0  0  0  0  0  0  0  0  0  0  0
    2.7874   -1.5936    0.2923 H   0  0  0  0  0  0  0  0  0  0  0  0
    4.8807   -1.0272    1.2089 H   0  0  0  0  0  0  0  0  0  0  0  0
    3.7239   -0.9167    2.4926 H   0  0  0  0  0  0  0  0  0  0  0  0
    6.5907   -1.4322    2.6558 H   0  0  0  0  0  0  0  0  0  0  0  0
    5.4783   -0.8446    3.8224 H   0  0  0  0  0  0  0  0  0  0  0  0
    5.4850   -2.7055    4.9600 H   0  0  0  0  0  0  0  0  0  0  0  0
    4.9298   -5.0153    5.2291 H   0  0  0  0  0  0  0  0  0  0  0  0
    5.5740   -7.9493    2.8275 H   0  0  0  0  0  0  0  0  0  0  0  0
    4.9003   -9.9476    2.3922 H   0  0  0  0  0  0  0  0  0  0  0  0
    3.3256  -10.5183    1.9186 H   0  0  0  0  0  0  0  0  0  0  0  0
    3.8135  -10.6650    3.5784 H   0  0  0  0  0  0  0  0  0  0  0  0
    0.5680   -8.1282    1.5024 H   0  0  0  0  0  0  0  0  0  0  0  0
   -2.1030   -9.8248    2.8609 H   0  0  0  0  0  0  0  0  0  0  0  0
   -0.4851  -10.3870    2.4514 H   0  0  0  0  0  0  0  0  0  0  0  0
   -1.3855   -9.3793    1.3228 H   0  0  0  0  0  0  0  0  0  0  0  0
    0.2673   -5.0629    2.1515 H   0  0  0  0  0  0  0  0  0  0  0  0
   -0.1910   -5.1582    3.7374 H   0  0  0  0  0  0  0  0  0  0  0  0
    1.0761   -3.4115    3.8707 H   0  0  0  0  0  0  0  0  0  0  0  0
    1.7956   -3.8004    1.2852 H   0  0  0  0  0  0  0  0  0  0  0  0
    1.3357   -1.6469    1.2765 H   0  0  0  0  0  0  0  0  0  0  0  0
    2.2753   -2.2107    4.5917 H   0  0  0  0  0  0  0  0  0  0  0  0
    1.6813   -3.1470    6.1707 H   0  0  0  0  0  0  0  0  0  0  0  0
    4.5493   -2.6763    6.6419 H   0  0  0  0  0  0  0  0  0  0  0  0
    2.3762   -1.8840    8.2085 H   0  0  0  0  0  0  0  0  0  0  0  0
    4.6579   -4.6243    7.6835 H   0  0  0  0  0  0  0  0  0  0  0  0
    5.0119   -3.0373   10.8710 H   0  0  0  0  0  0  0  0  0  0  0  0
    5.3004   -2.3515    9.2821 H   0  0  0  0  0  0  0  0  0  0  0  0
    5.8423   -3.9840    9.6477 H   0  0  0  0  0  0  0  0  0  0  0  0
    1.6300   -3.5086    8.6632 H   0  0  0  0  0  0  0  0  0  0  0  0
    1.7759   -7.7719    8.2265 H   0  0  0  0  0  0  0  0  0  0  0  0
    4.2915   -6.2314    6.5232 H   0  0  0  0  0  0  0  0  0  0  0  0
    3.6260   -8.0701    8.3900 H   0  0  0  0  0  0  0  0  0  0  0  0
    5.1313   -8.8817    7.0331 H   0  0  0  0  0  0  0  0  0  0  0  0
    3.7610  -10.3179    5.7241 H   0  0  0  0  0  0  0  0  0  0  0  0
    0.9785  -11.1108    4.2977 H   0  0  0  0  0  0  0  0  0  0  0  0
    0.2530  -11.1977    5.9096 H   0  0  0  0  0  0  0  0  0  0  0  0
    1.9267  -11.7440    5.6406 H   0  0  0  0  0  0  0  0  0  0  0  0
   -0.2138   -8.9970    5.0364 H   0  0  0  0  0  0  0  0  0  0  0  0
    0.3093   -8.3098    6.4715 H   0  0  0  0  0  0  0  0  0  0  0  0
    2.1451   -7.0035    4.9750 H   0  0  0  0  0  0  0  0  0  0  0  0
    2.9067   -5.8025    2.0540 H   0  0  0  0  0  0  0  0  0  0  0  0
    2.3970   -6.1566    0.0644 H   0  0  0  0  0  0  0  0  0  0  0  0
    2.5310   -8.5580    0.9574 H   0  0  0  0  0  0  0  0  0  0  0  0
    4.8539   -7.0512    1.2572 H   0  0  0  0  0  0  0  0  0  0  0  0
  1  2  1  0
  1 58  1  0
  1 59  1  0
  1 60  1  0
  2  3  1  0
  2 61  1  0
  3  4  2  0
  3  5  1  0
  5 14  1  0
  5  6  1  6
  5  7  1  0
  6 62  1  0
  7  8  2  0
  7  9  1  0
  9 28  1  0
  9 10  1  6
  9 11  1  0
 10 63  1  0
 11 12  1  0
 11 64  1  0
 11 65  1  0
 12 13  1  0
 12 66  1  0
 12 67  1  0
 13 14  2  0
 13 68  1  0
 14 15  1  0
 15 30  1  0
 15 16  1  0
 15 69  1  1
 16 17  1  0
 17 44  1  0
 17 18  1  6
 17 19  1  0
 18 70  1  0
 19 56  1  0
 19 20  1  6
 19 21  1  0
 20 71  1  0
 20 72  1  0
 20 73  1  0
 21 22  1  0
 22 23  1  0
 22 25  1  0
 22 74  1  6
 23 24  1  0
 24 75  1  0
 24 76  1  0
 24 77  1  0
 25 51  1  0
 25 26  1  1
 25 54  1  0
 26 27  1  0
 26 78  1  0
 26 79  1  0
 27 28  1  0
 27 30  1  0
 27 80  1  1
 28 29  1  0
 28 81  1  6
 29 82  1  0
 30 31  1  6
 30 32  1  0
 31 83  1  0
 32 38  1  0
 32 33  1  0
 32 84  1  6
 33 34  1  0
 33 35  1  0
 33 85  1  6
 34 86  1  0
 35 36  1  0
 35 38  1  0
 35 87  1  6
 36 37  1  0
 37 88  1  0
 37 89  1  0
 37 90  1  0
 38 39  1  1
 38 40  1  0
 39 91  1  0
 52 40  1  1
 40 41  1  1
 40 42  1  0
 41 92  1  0
 42 43  1  0
 42 44  1  0
 42 93  1  6
 43 94  1  0
 44 45  1  1
 44 46  1  0
 45 95  1  0
 46 48  1  0
 46 47  1  0
 46 96  1  1
 47 48  1  0
 48 49  1  1
 48 50  1  0
 49 97  1  0
 49 98  1  0
 49 99  1  0
 50 51  1  0
 50100  1  0
 50101  1  0
 51 52  1  0
 51102  1  1
 52 53  2  0
 54 55  1  0
 54 56  1  0
 54103  1  1
 55104  1  0
 56 57  1  0
 56105  1  6
 57106  1  0
M  END
>  <i_m_ct_stereo_status>  (59) 
1

>  <s_m_source_file>  (59) 
/var/tmp/pbs.5075288.sched01/tmpq0rgj53d/65gxdktgdh.sdf

>  <i_m_source_file_index>  (59) 
5

>  <i_lp_mmshare_version>  (59) 
48012

>  <i_f3d_flags>  (59) 
0

>  <s_epik_input>  (59) 
W09IXVtDQEhdMVtDQEBIXShPW0NIM10pW0NAXShbT0hdKShbQ0BAXShbT0hdKShbUytdMltPLV0pW0NASF0zW09IXSlbQ0BIXTFbQ0BdNChbT0hdKVtDQEhdKFtDSDJdNSlbQ0BASF0oW09IXSlbQ0BdKFtPSF0pKEMoPU8pW0NAXTYoW09IXSlDKD1PKVtOSF1bQ0gzXSlbQ0gyXVtDSDJdW0NIXT1DNltDQEBIXTRPW0NAXShbT0hdKShbQ0BdKFtDSDNdKShbQ0BIXShbT0hdKVtDQEBIXTdbT0hdKU9bQ0BIXThPW0NIM10pW0NAXTMoW09IXSlbQ0BASF0oTzkpW0NAXTkoW0NIM10pW0NIMl1bQ0BASF0yQzU3OA==

>  <s_epik_cmdline>  (59) 
J2VwaWtfcHl0aG9uJywgJy1waHQnLCAnMi4wJywgJy1waCcsICc3LjAnLCAnLXRuJywgJzgnLCAnLW1hJywgJzIwMCcsICctaW1hZScsICc8aW5maWxlLm1hZT4nLCAnLW9tYWUnLCAnPG91dGZpbGUubWFlPic=

>  <r_lp_tautomer_probability>  (59) 
1

>  <r_epik_Ionization_Penalty>  (59) 
1.40957e-05

>  <r_epik_Ionization_Penalty_Charging>  (59) 
0

>  <r_epik_Ionization_Penalty_Neutral>  (59) 
1.40957e-05

>  <r_epik_State_Penalty>  (59) 
-0

>  <r_epik_Charging_Adjusted_Penalty>  (59) 
0

>  <i_epik_Tot_Q>  (59) 
0

>  <i_epik_Tot_abs_Q>  (59) 
2

>  <s_epik_Chemistry_Notes>  (59) 
This compound contains an acetal/aminal-like group ( X-CH(R)-Y where X, Y are N, S, or O) that may be acid/base labile, releasing an aldehyde.

>  <s_lp_Force_Field>  (59) 
OPLS3e

>  <r_lp_Energy>  (59) 
483.903

>  <b_lp_Chiralities_Consistent>  (59) 
1

>  <s_lp_Variant>  (59) 
14:0-22

>  <s_i_glide_gridfile>  (59) 
pfpi4k_grid

>  <i_i_glide_lignum>  (59) 
5

>  <i_i_glide_rotatable_bonds>  (59) 
16

>  <r_i_docking_score>  (59) 
-4.4201

>  <r_i_glide_ligand_efficiency>  (59) 
-0.0775456

>  <r_i_glide_ligand_efficiency_sa>  (59) 
-0.298434

>  <r_i_glide_ligand_efficiency_ln>  (59) 
-0.876473

>  <r_i_glide_gscore>  (59) 
-4.4201

>  <r_i_glide_lipo>  (59) 
-0.400724

>  <r_i_glide_hbond>  (59) 
0

>  <r_i_glide_metal>  (59) 
-0

>  <r_i_glide_rewards>  (59) 
-2.12371

>  <r_i_glide_evdw>  (59) 
-18.139

>  <r_i_glide_ecoul>  (59) 
-6.55711

>  <r_i_glide_erotb>  (59) 
0.0313225

>  <r_i_glide_esite>  (59) 
-0.0364694

>  <r_i_glide_emodel>  (59) 
-53.5875

>  <r_i_glide_energy>  (59) 
-24.6961

>  <r_i_glide_einternal>  (59) 
2.205

>  <r_i_glide_intrahb_reward>  (59) 
-2

>  <i_i_glide_confnum>  (59) 
1

>  <i_i_glide_posenum>  (59) 
2

>  <r_i_glide_eff_state_penalty>  (59) 
0

>  <ligand_id>  (59) 
14

>  <original_smiles>  (59) 
CNC(=O)C1(O)C(=O)C2(O)CCC=C1C1OC3(O)C4(C)OC(OC)C5(CC(C2O)C1(O)C1C(O)C(OC)C1(O)C1(O)C(O)C3(O)C2OC2(C)CC5[S+]1[O-])C(O)C4O

>  <smiles>  (59) 
[H]OC1(C(=O)N([H])C([H])([H])[H])C(=O)C2(O[H])C([H])([H])C([H])([H])C([H])=C1C1([H])OC3(O[H])C4(C([H])([H])[H])OC([H])(OC([H])([H])[H])C5(C([H])([H])C([H])(C2([H])O[H])C1(O[H])C1([H])C([H])(O[H])C([H])(OC([H])([H])[H])C1(O[H])C1(O[H])S(=O)C5([H])C([H])([H])C2(C([H])([H])[H])OC2([H])C3(O[H])C1([H])O[H])C([H])(O[H])C4([H])O[H]

$$$$
14:21:2
     RDKit          3D

106114  0  0  1  0  0  0  0  0999 V2000
    6.5396   -4.5730    0.6060 C   0  0  0  0  0  0  0  0  0  0  0  0
    5.6036   -4.0439    1.5995 N   0  0  0  0  0  0  0  0  0  0  0  0
    5.5748   -4.4447    2.8891 C   0  0  0  0  0  0  0  0  0  0  0  0
    6.4025   -5.2446    3.3068 O   0  0  0  0  0  0  0  0  0  0  0  0
    4.7275   -3.6976    3.9376 C   0  0  1  0  0  0  0  0  0  0  0  0
    5.4091   -2.4529    3.8800 O   0  0  0  0  0  0  0  0  0  0  0  0
    3.2888   -3.3012    3.5979 C   0  0  0  0  0  0  0  0  0  0  0  0
    2.8324   -3.3888    2.4564 O   0  0  0  0  0  0  0  0  0  0  0  0
    2.4184   -2.6538    4.7242 C   0  0  2  0  0  0  0  0  0  0  0  0
    1.6503   -1.6547    4.0563 O   0  0  0  0  0  0  0  0  0  0  0  0
    3.2108   -1.7204    5.7832 C   0  0  0  0  0  0  0  0  0  0  0  0
    4.6288   -2.0233    6.4277 C   0  0  0  0  0  0  0  0  0  0  0  0
    5.0833   -3.4740    6.3770 C   0  0  0  0  0  0  0  0  0  0  0  0
    4.7009   -4.2937    5.3731 C   0  0  0  0  0  0  0  0  0  0  0  0
    4.0151   -5.6506    5.8038 C   0  0  2  0  0  0  0  0  0  0  0  0
    3.6040   -6.6010    4.7562 O   0  0  0  0  0  0  0  0  0  0  0  0
    4.0058   -7.8882    4.1307 C   0  0  2  0  0  0  0  0  0  0  0  0
    5.2263   -7.6481    3.4959 O   0  0  0  0  0  0  0  0  0  0  0  0
    2.9483   -8.2178    2.8246 C   0  0  1  0  0  0  0  0  0  0  0  0
    3.6465   -9.1272    1.7695 C   0  0  0  0  0  0  0  0  0  0  0  0
    1.6090   -8.8886    2.9679 O   0  0  0  0  0  0  0  0  0  0  0  0
    0.3662   -8.1382    3.2286 C   0  0  1  0  0  0  0  0  0  0  0  0
   -0.7640   -8.8521    3.5840 O   0  0  0  0  0  0  0  0  0  0  0  0
   -1.3549   -9.5296    2.4864 C   0  0  0  0  0  0  0  0  0  0  0  0
    0.8654   -7.2314    4.3429 C   0  0  1  0  0  0  0  0  0  0  0  0
    0.2066   -6.0874    5.2001 C   0  0  0  0  0  0  0  0  0  0  0  0
    1.2506   -5.0316    5.9452 C   0  0  2  0  0  0  0  0  0  0  0  0
    1.1865   -3.5691    5.2377 C   0  0  1  0  0  0  0  0  0  0  0  0
    0.3343   -2.7734    6.0664 O   0  0  0  0  0  0  0  0  0  0  0  0
    2.6801   -5.3736    6.7261 C   0  0  2  0  0  0  0  0  0  0  0  0
    2.6473   -4.1014    7.3353 O   0  0  0  0  0  0  0  0  0  0  0  0
    2.6831   -5.9679    8.2318 C   0  0  2  0  0  0  0  0  0  0  0  0
    3.7522   -5.5340    9.2885 C   0  0  1  0  0  0  0  0  0  0  0  0
    3.2395   -4.9683   10.4756 O   0  0  0  0  0  0  0  0  0  0  0  0
    4.2798   -6.9582    9.3500 C   0  0  1  0  0  0  0  0  0  0  0  0
    4.6160   -7.4270   10.6640 O   0  0  0  0  0  0  0  0  0  0  0  0
    5.8707   -6.9164   11.1203 C   0  0  0  0  0  0  0  0  0  0  0  0
    2.9200   -7.4451    8.7655 C   0  0  1  0  0  0  0  0  0  0  0  0
    2.0236   -7.7302    9.8296 O   0  0  0  0  0  0  0  0  0  0  0  0
    2.7642   -8.6432    7.7790 C   0  0  2  0  0  0  0  0  0  0  0  0
    2.6463   -9.8591    8.5365 O   0  0  0  0  0  0  0  0  0  0  0  0
    4.0977   -8.7445    6.8175 C   0  0  1  0  0  0  0  0  0  0  0  0
    4.9792   -9.5812    7.5805 O   0  0  0  0  0  0  0  0  0  0  0  0
    4.2889   -9.0891    5.2371 C   0  0  2  0  0  0  0  0  0  0  0  0
    5.6922   -9.3923    5.2129 O   0  0  0  0  0  0  0  0  0  0  0  0
    3.7138  -10.4209    4.7960 C   0  0  1  0  0  0  0  0  0  0  0  0
    3.1971  -11.2332    5.8119 O   0  0  0  0  0  0  0  0  0  0  0  0
    2.2800  -10.8203    4.7964 C   0  0  2  0  0  0  0  0  0  0  0  0
    1.8300  -11.9154    3.8706 C   0  0  0  0  0  0  0  0  0  0  0  0
    1.1060  -10.0140    5.3346 C   0  0  0  0  0  0  0  0  0  0  0  0
    1.2968   -8.4193    5.3904 C   0  0  2  0  0  0  0  0  0  0  0  0
    1.0617   -8.0833    7.1511 S   0  0  0  0  0  0  0  0  0  0  0  0
   -0.0493   -8.9269    7.7624 O   0  0  0  0  0  0  0  0  0  0  0  0
    1.5935   -6.2791    3.2473 C   0  0  2  0  0  0  0  0  0  0  0  0
    0.6652   -5.4822    2.5201 O   0  0  0  0  0  0  0  0  0  0  0  0
    2.4729   -6.9466    2.1845 C   0  0  1  0  0  0  0  0  0  0  0  0
    3.4783   -6.1774    1.6349 O   0  0  0  0  0  0  0  0  0  0  0  0
    7.2765   -3.8140    0.3471 H   0  0  0  0  0  0  0  0  0  0  0  0
    6.0179   -4.8662   -0.3057 H   0  0  0  0  0  0  0  0  0  0  0  0
    7.0993   -5.4452    0.9467 H   0  0  0  0  0  0  0  0  0  0  0  0
    4.9908   -3.3007    1.2903 H   0  0  0  0  0  0  0  0  0  0  0  0
    5.3658   -2.1285    2.9829 H   0  0  0  0  0  0  0  0  0  0  0  0
    2.2682   -1.0430    3.6736 H   0  0  0  0  0  0  0  0  0  0  0  0
    3.3474   -0.7287    5.3283 H   0  0  0  0  0  0  0  0  0  0  0  0
    2.5340   -1.5222    6.6204 H   0  0  0  0  0  0  0  0  0  0  0  0
    5.4020   -1.3617    6.0309 H   0  0  0  0  0  0  0  0  0  0  0  0
    4.5898   -1.7476    7.4831 H   0  0  0  0  0  0  0  0  0  0  0  0
    5.2073   -3.8629    7.3606 H   0  0  0  0  0  0  0  0  0  0  0  0
    4.8053   -6.0274    6.4206 H   0  0  0  0  0  0  0  0  0  0  0  0
    5.4616   -8.4390    2.9955 H   0  0  0  0  0  0  0  0  0  0  0  0
    4.5548   -8.6867    1.3649 H   0  0  0  0  0  0  0  0  0  0  0  0
    2.9766   -9.2701    0.9179 H   0  0  0  0  0  0  0  0  0  0  0  0
    3.8760  -10.1250    2.1390 H   0  0  0  0  0  0  0  0  0  0  0  0
    0.0092   -7.6671    2.3086 H   0  0  0  0  0  0  0  0  0  0  0  0
   -2.0727  -10.2129    2.8963 H   0  0  0  0  0  0  0  0  0  0  0  0
   -0.6431  -10.1186    1.9108 H   0  0  0  0  0  0  0  0  0  0  0  0
   -1.8833   -8.8435    1.8236 H   0  0  0  0  0  0  0  0  0  0  0  0
   -0.5133   -5.5258    4.5991 H   0  0  0  0  0  0  0  0  0  0  0  0
   -0.5130   -6.5092    5.9146 H   0  0  0  0  0  0  0  0  0  0  0  0
    0.5888   -4.8931    6.8192 H   0  0  0  0  0  0  0  0  0  0  0  0
    0.5676   -3.7046    4.3520 H   0  0  0  0  0  0  0  0  0  0  0  0
    0.8524   -2.5342    6.8298 H   0  0  0  0  0  0  0  0  0  0  0  0
    3.4043   -3.9878    7.8940 H   0  0  0  0  0  0  0  0  0  0  0  0
    1.7296   -5.6886    8.7061 H   0  0  0  0  0  0  0  0  0  0  0  0
    4.5633   -4.9063    8.9263 H   0  0  0  0  0  0  0  0  0  0  0  0
    2.7367   -5.6494   10.9106 H   0  0  0  0  0  0  0  0  0  0  0  0
    5.1270   -7.0391    8.6696 H   0  0  0  0  0  0  0  0  0  0  0  0
    6.0888   -7.2710   12.1264 H   0  0  0  0  0  0  0  0  0  0  0  0
    5.8805   -5.8261   11.1492 H   0  0  0  0  0  0  0  0  0  0  0  0
    6.6828   -7.2437   10.4704 H   0  0  0  0  0  0  0  0  0  0  0  0
    2.3102   -8.5905   10.1187 H   0  0  0  0  0  0  0  0  0  0  0  0
    2.2352  -10.5305    7.9924 H   0  0  0  0  0  0  0  0  0  0  0  0
    4.6276   -7.8295    6.8955 H   0  0  0  0  0  0  0  0  0  0  0  0
    4.5338  -10.4251    7.6270 H   0  0  0  0  0  0  0  0  0  0  0  0
    5.9093   -9.7782    4.3743 H   0  0  0  0  0  0  0  0  0  0  0  0
    4.3371  -10.9552    4.0902 H   0  0  0  0  0  0  0  0  0  0  0  0
    1.3792  -11.5105    2.9634 H   0  0  0  0  0  0  0  0  0  0  0  0
    1.1313  -12.5841    4.3745 H   0  0  0  0  0  0  0  0  0  0  0  0
    2.7058  -12.4971    3.5725 H   0  0  0  0  0  0  0  0  0  0  0  0
    0.1938  -10.3670    4.8722 H   0  0  0  0  0  0  0  0  0  0  0  0
    0.9884  -10.4259    6.3346 H   0  0  0  0  0  0  0  0  0  0  0  0
    2.2534   -8.1441    5.5466 H   0  0  0  0  0  0  0  0  0  0  0  0
    2.1330   -5.4946    3.7015 H   0  0  0  0  0  0  0  0  0  0  0  0
    0.7568   -4.5899    2.7922 H   0  0  0  0  0  0  0  0  0  0  0  0
    1.8817   -7.2154    1.3111 H   0  0  0  0  0  0  0  0  0  0  0  0
    4.1461   -6.0013    2.2963 H   0  0  0  0  0  0  0  0  0  0  0  0
  1  2  1  0
  1 58  1  0
  1 59  1  0
  1 60  1  0
  2  3  1  0
  2 61  1  0
  3  4  2  0
  3  5  1  0
  5 14  1  0
  5  6  1  1
  5  7  1  0
  6 62  1  0
  7  8  2  0
  7  9  1  0
  9 28  1  0
  9 10  1  6
  9 11  1  0
 10 63  1  0
 11 12  1  0
 11 64  1  0
 11 65  1  0
 12 13  1  0
 12 66  1  0
 12 67  1  0
 13 14  2  0
 13 68  1  0
 14 15  1  0
 15 30  1  0
 15 16  1  0
 15 69  1  1
 16 17  1  0
 17 44  1  0
 17 18  1  6
 17 19  1  0
 18 70  1  0
 19 56  1  0
 19 20  1  6
 19 21  1  0
 20 71  1  0
 20 72  1  0
 20 73  1  0
 21 22  1  0
 22 23  1  0
 22 25  1  0
 22 74  1  6
 23 24  1  0
 24 75  1  0
 24 76  1  0
 24 77  1  0
 25 51  1  0
 25 26  1  1
 25 54  1  0
 26 27  1  0
 26 78  1  0
 26 79  1  0
 27 28  1  0
 27 30  1  0
 27 80  1  1
 28 29  1  0
 28 81  1  6
 29 82  1  0
 30 31  1  1
 30 32  1  0
 31 83  1  0
 32 38  1  0
 32 33  1  0
 32 84  1  1
 33 34  1  0
 33 35  1  0
 33 85  1  6
 34 86  1  0
 35 36  1  0
 35 38  1  0
 35 87  1  6
 36 37  1  0
 37 88  1  0
 37 89  1  0
 37 90  1  0
 38 39  1  1
 38 40  1  0
 39 91  1  0
 52 40  1  1
 40 41  1  1
 40 42  1  0
 41 92  1  0
 42 43  1  0
 42 44  1  0
 42 93  1  6
 43 94  1  0
 44 45  1  1
 44 46  1  0
 45 95  1  0
 46 48  1  0
 46 47  1  0
 46 96  1  6
 47 48  1  0
 48 49  1  6
 48 50  1  0
 49 97  1  0
 49 98  1  0
 49 99  1  0
 50 51  1  0
 50100  1  0
 50101  1  0
 51 52  1  0
 51102  1  1
 52 53  2  0
 54 55  1  0
 54 56  1  0
 54103  1  1
 55104  1  0
 56 57  1  0
 56105  1  6
 57106  1  0
M  END
>  <i_m_ct_stereo_status>  (60) 
1

>  <s_m_source_file>  (60) 
/var/tmp/pbs.5075288.sched01/tmpq0rgj53d/65gxdktgdh.sdf

>  <i_m_source_file_index>  (60) 
5

>  <i_lp_mmshare_version>  (60) 
48012

>  <i_f3d_flags>  (60) 
0

>  <s_epik_input>  (60) 
W09IXVtDQEhdMVtDQEBIXShPW0NIM10pW0NAXShbT0hdKShbQ0BAXShbT0hdKShbUytdMltPLV0pW0NASF0zW09IXSlbQ0BIXTFbQ0BdNChbT0hdKVtDQEhdKFtDSDJdNSlbQ0BASF0oW09IXSlbQ0BdKFtPSF0pKEMoPU8pW0NAXTYoW09IXSlDKD1PKVtOSF1bQ0gzXSlbQ0gyXVtDSDJdW0NIXT1DNltDQEBIXTRPW0NAXShbT0hdKShbQ0BdKFtDSDNdKShbQ0BIXShbT0hdKVtDQEBIXTdbT0hdKU9bQ0BIXThPW0NIM10pW0NAXTMoW09IXSlbQ0BASF0oTzkpW0NAXTkoW0NIM10pW0NIMl1bQ0BASF0yQzU3OA==

>  <s_epik_cmdline>  (60) 
J2VwaWtfcHl0aG9uJywgJy1waHQnLCAnMi4wJywgJy1waCcsICc3LjAnLCAnLXRuJywgJzgnLCAnLW1hJywgJzIwMCcsICctaW1hZScsICc8aW5maWxlLm1hZT4nLCAnLW9tYWUnLCAnPG91dGZpbGUubWFlPic=

>  <r_lp_tautomer_probability>  (60) 
1

>  <r_epik_Ionization_Penalty>  (60) 
1.40957e-05

>  <r_epik_Ionization_Penalty_Charging>  (60) 
0

>  <r_epik_Ionization_Penalty_Neutral>  (60) 
1.40957e-05

>  <r_epik_State_Penalty>  (60) 
-0

>  <r_epik_Charging_Adjusted_Penalty>  (60) 
0

>  <i_epik_Tot_Q>  (60) 
0

>  <i_epik_Tot_abs_Q>  (60) 
2

>  <s_epik_Chemistry_Notes>  (60) 
This compound contains an acetal/aminal-like group ( X-CH(R)-Y where X, Y are N, S, or O) that may be acid/base labile, releasing an aldehyde.

>  <s_lp_Force_Field>  (60) 
OPLS3e

>  <r_lp_Energy>  (60) 
483.903

>  <b_lp_Chiralities_Consistent>  (60) 
1

>  <s_lp_Variant>  (60) 
14:0-22

>  <s_i_glide_gridfile>  (60) 
pfpi4k_grid

>  <i_i_glide_lignum>  (60) 
5

>  <i_i_glide_rotatable_bonds>  (60) 
16

>  <r_i_docking_score>  (60) 
-4.00751

>  <r_i_glide_ligand_efficiency>  (60) 
-0.0703071

>  <r_i_glide_ligand_efficiency_sa>  (60) 
-0.270577

>  <r_i_glide_ligand_efficiency_ln>  (60) 
-0.794659

>  <r_i_glide_gscore>  (60) 
-4.00751

>  <r_i_glide_lipo>  (60) 
-0.332081

>  <r_i_glide_hbond>  (60) 
0

>  <r_i_glide_metal>  (60) 
-0

>  <r_i_glide_rewards>  (60) 
-1.52027

>  <r_i_glide_evdw>  (60) 
-23.7126

>  <r_i_glide_ecoul>  (60) 
-6.31647

>  <r_i_glide_erotb>  (60) 
0.0313225

>  <r_i_glide_esite>  (60) 
-0.0533761

>  <r_i_glide_emodel>  (60) 
-50.3907

>  <r_i_glide_energy>  (60) 
-30.0291

>  <r_i_glide_einternal>  (60) 
10.0414

>  <r_i_glide_intrahb_reward>  (60) 
-1.5

>  <i_i_glide_confnum>  (60) 
2

>  <i_i_glide_posenum>  (60) 
23

>  <r_i_glide_eff_state_penalty>  (60) 
0

>  <ligand_id>  (60) 
14

>  <original_smiles>  (60) 
CNC(=O)C1(O)C(=O)C2(O)CCC=C1C1OC3(O)C4(C)OC(OC)C5(CC(C2O)C1(O)C1C(O)C(OC)C1(O)C1(O)C(O)C3(O)C2OC2(C)CC5[S+]1[O-])C(O)C4O

>  <smiles>  (60) 
[H]OC1(C(=O)N([H])C([H])([H])[H])C(=O)C2(O[H])C([H])([H])C([H])([H])C([H])=C1C1([H])OC3(O[H])C4(C([H])([H])[H])OC([H])(OC([H])([H])[H])C5(C([H])([H])C([H])(C2([H])O[H])C1(O[H])C1([H])C([H])(O[H])C([H])(OC([H])([H])[H])C1(O[H])C1(O[H])S(=O)C5([H])C([H])([H])C2(C([H])([H])[H])OC2([H])C3(O[H])C1([H])O[H])C([H])(O[H])C4([H])O[H]

$$$$
14:23:0
     RDKit          3D

106114  0  0  1  0  0  0  0  0999 V2000
   -2.0184   -8.8512    2.3550 C   0  0  0  0  0  0  0  0  0  0  0  0
   -1.1119   -8.9251    3.4960 N   0  0  0  0  0  0  0  0  0  0  0  0
   -0.5027   -7.9018    4.0853 C   0  0  0  0  0  0  0  0  0  0  0  0
   -0.9128   -6.7336    3.8590 O   0  0  0  0  0  0  0  0  0  0  0  0
    0.7280   -8.1014    5.0336 C   0  0  1  0  0  0  0  0  0  0  0  0
    0.4112   -7.2598    6.1361 O   0  0  0  0  0  0  0  0  0  0  0  0
    0.7483   -9.5412    5.7078 C   0  0  0  0  0  0  0  0  0  0  0  0
   -0.1710   -9.8022    6.4864 O   0  0  0  0  0  0  0  0  0  0  0  0
    1.9842  -10.5721    5.7042 C   0  0  2  0  0  0  0  0  0  0  0  0
    3.2313  -10.5344    5.0241 O   0  0  0  0  0  0  0  0  0  0  0  0
    1.7613  -11.1365    4.2204 C   0  0  0  0  0  0  0  0  0  0  0  0
    1.7266  -10.0928    3.0017 C   0  0  0  0  0  0  0  0  0  0  0  0
    2.3773   -8.7278    3.3383 C   0  0  0  0  0  0  0  0  0  0  0  0
    2.1301   -7.7940    4.3306 C   0  0  0  0  0  0  0  0  0  0  0  0
    3.4216   -6.9879    5.1155 C   0  0  2  0  0  0  0  0  0  0  0  0
    3.9699   -5.4587    5.1675 O   0  0  0  0  0  0  0  0  0  0  0  0
    4.8426   -4.2985    5.6243 C   0  0  2  0  0  0  0  0  0  0  0  0
    6.1376   -4.5517    5.1333 O   0  0  0  0  0  0  0  0  0  0  0  0
    5.0820   -3.8548    7.2504 C   0  0  1  0  0  0  0  0  0  0  0  0
    5.8625   -2.5199    7.4145 C   0  0  0  0  0  0  0  0  0  0  0  0
    3.9406   -3.7188    8.1975 O   0  0  0  0  0  0  0  0  0  0  0  0
    3.4059   -4.9002    8.8320 C   0  0  1  0  0  0  0  0  0  0  0  0
    2.1785   -4.7500    9.4845 O   0  0  0  0  0  0  0  0  0  0  0  0
    1.8552   -5.7479   10.4523 C   0  0  0  0  0  0  0  0  0  0  0  0
    3.3224   -5.7900    7.6178 C   0  0  1  0  0  0  0  0  0  0  0  0
    3.0608   -7.3748    7.7893 C   0  0  0  0  0  0  0  0  0  0  0  0
    3.5989   -8.4510    6.6140 C   0  0  2  0  0  0  0  0  0  0  0  0
    3.1515  -10.0044    6.7567 C   0  0  1  0  0  0  0  0  0  0  0  0
    2.6187  -10.1935    8.0618 O   0  0  0  0  0  0  0  0  0  0  0  0
    4.4060   -8.1113    5.1034 C   0  0  1  0  0  0  0  0  0  0  0  0
    5.7232   -8.2799    5.5901 O   0  0  0  0  0  0  0  0  0  0  0  0
    4.7614   -7.1123    3.7634 C   0  0  1  0  0  0  0  0  0  0  0  0
    5.6434   -7.3959    2.5400 C   0  0  1  0  0  0  0  0  0  0  0  0
    5.3510   -8.5044    1.7151 O   0  0  0  0  0  0  0  0  0  0  0  0
    5.2057   -5.9743    2.0473 C   0  0  1  0  0  0  0  0  0  0  0  0
    5.2389   -5.8794    0.6204 O   0  0  0  0  0  0  0  0  0  0  0  0
    4.9124   -4.6054    0.0910 C   0  0  0  0  0  0  0  0  0  0  0  0
    3.8100   -6.0927    2.7505 C   0  0  1  0  0  0  0  0  0  0  0  0
    3.0425   -6.7182    1.7434 O   0  0  0  0  0  0  0  0  0  0  0  0
    2.8283   -4.7323    3.1892 C   0  0  2  0  0  0  0  0  0  0  0  0
    2.0517   -4.4916    2.0157 O   0  0  0  0  0  0  0  0  0  0  0  0
    3.7109   -3.4392    3.3569 C   0  0  1  0  0  0  0  0  0  0  0  0
    3.1671   -2.2654    2.7384 O   0  0  0  0  0  0  0  0  0  0  0  0
    4.2692   -3.0503    4.7828 C   0  0  2  0  0  0  0  0  0  0  0  0
    5.3651   -2.2452    4.3457 O   0  0  0  0  0  0  0  0  0  0  0  0
    3.4561   -1.9621    5.5419 C   0  0  1  0  0  0  0  0  0  0  0  0
    2.0843   -1.8141    5.1865 O   0  0  0  0  0  0  0  0  0  0  0  0
    2.3318   -2.0816    6.5587 C   0  0  2  0  0  0  0  0  0  0  0  0
    2.0559   -0.9019    7.4691 C   0  0  0  0  0  0  0  0  0  0  0  0
    1.6121   -3.3263    7.0535 C   0  0  0  0  0  0  0  0  0  0  0  0
    2.1357   -4.7644    6.6397 C   0  0  1  0  0  0  0  0  0  0  0  0
    1.5692   -4.8001    4.7161 S   0  0  0  0  0  0  0  0  0  0  0  0
    0.3846   -3.8361    4.4787 O   0  0  0  0  0  0  0  0  0  0  0  0
    4.9777   -6.0612    7.6405 C   0  0  2  0  0  0  0  0  0  0  0  0
    5.5103   -7.0194    8.5648 O   0  0  0  0  0  0  0  0  0  0  0  0
    5.8980   -4.9074    7.9310 C   0  0  1  0  0  0  0  0  0  0  0  0
    7.2334   -5.0938    7.4966 O   0  0  0  0  0  0  0  0  0  0  0  0
   -2.8906   -9.4927    2.4747 H   0  0  0  0  0  0  0  0  0  0  0  0
   -1.4778   -9.2217    1.4910 H   0  0  0  0  0  0  0  0  0  0  0  0
   -2.3632   -7.8412    2.1163 H   0  0  0  0  0  0  0  0  0  0  0  0
   -0.7675   -9.8655    3.7121 H   0  0  0  0  0  0  0  0  0  0  0  0
    1.0685   -7.3885    6.8046 H   0  0  0  0  0  0  0  0  0  0  0  0
    3.6488  -11.3769    5.1568 H   0  0  0  0  0  0  0  0  0  0  0  0
    2.2913  -12.0711    3.9514 H   0  0  0  0  0  0  0  0  0  0  0  0
    0.7495  -11.5384    4.2482 H   0  0  0  0  0  0  0  0  0  0  0  0
    2.3597  -10.5148    2.2124 H   0  0  0  0  0  0  0  0  0  0  0  0
    0.7667  -10.0401    2.4930 H   0  0  0  0  0  0  0  0  0  0  0  0
    3.3433   -8.7896    2.9018 H   0  0  0  0  0  0  0  0  0  0  0  0
    2.5824   -6.7962    5.6978 H   0  0  0  0  0  0  0  0  0  0  0  0
    6.1002   -4.5048    4.1933 H   0  0  0  0  0  0  0  0  0  0  0  0
    6.7445   -2.4635    6.7776 H   0  0  0  0  0  0  0  0  0  0  0  0
    6.2113   -2.4157    8.4358 H   0  0  0  0  0  0  0  0  0  0  0  0
    5.2632   -1.6323    7.2492 H   0  0  0  0  0  0  0  0  0  0  0  0
    4.0862   -5.2213    9.6240 H   0  0  0  0  0  0  0  0  0  0  0  0
    0.9061   -5.5086   10.9309 H   0  0  0  0  0  0  0  0  0  0  0  0
    2.6214   -5.8343   11.2242 H   0  0  0  0  0  0  0  0  0  0  0  0
    1.7152   -6.7310   10.0108 H   0  0  0  0  0  0  0  0  0  0  0  0
    3.3631   -7.7598    8.7612 H   0  0  0  0  0  0  0  0  0  0  0  0
    1.9878   -7.4640    7.9596 H   0  0  0  0  0  0  0  0  0  0  0  0
    2.5802   -8.4703    6.5212 H   0  0  0  0  0  0  0  0  0  0  0  0
    4.0512  -10.6253    6.9334 H   0  0  0  0  0  0  0  0  0  0  0  0
    2.1192  -11.0123    8.0522 H   0  0  0  0  0  0  0  0  0  0  0  0
    5.8120   -9.1715    5.8895 H   0  0  0  0  0  0  0  0  0  0  0  0
    5.5910   -6.5501    4.1794 H   0  0  0  0  0  0  0  0  0  0  0  0
    6.7073   -7.4224    2.7929 H   0  0  0  0  0  0  0  0  0  0  0  0
    5.4317   -9.2733    2.2584 H   0  0  0  0  0  0  0  0  0  0  0  0
    5.8863   -5.2494    2.4975 H   0  0  0  0  0  0  0  0  0  0  0  0
    5.0286   -4.6142   -0.9906 H   0  0  0  0  0  0  0  0  0  0  0  0
    5.5335   -3.8051    0.4951 H   0  0  0  0  0  0  0  0  0  0  0  0
    3.8729   -4.3752    0.2903 H   0  0  0  0  0  0  0  0  0  0  0  0
    3.4746   -6.4497    0.9471 H   0  0  0  0  0  0  0  0  0  0  0  0
    2.4351   -3.8053    1.5005 H   0  0  0  0  0  0  0  0  0  0  0  0
    4.5748   -3.6147    2.7297 H   0  0  0  0  0  0  0  0  0  0  0  0
    3.0797   -2.3661    1.8040 H   0  0  0  0  0  0  0  0  0  0  0  0
    4.9926   -1.5302    3.8450 H   0  0  0  0  0  0  0  0  0  0  0  0
    3.9568   -0.9961    5.5783 H   0  0  0  0  0  0  0  0  0  0  0  0
    2.5216   -1.0615    8.4438 H   0  0  0  0  0  0  0  0  0  0  0  0
    0.9812   -0.7530    7.5999 H   0  0  0  0  0  0  0  0  0  0  0  0
    2.4740    0.0088    7.0412 H   0  0  0  0  0  0  0  0  0  0  0  0
    1.4597   -3.1804    8.1177 H   0  0  0  0  0  0  0  0  0  0  0  0
    0.5795   -3.2185    6.7063 H   0  0  0  0  0  0  0  0  0  0  0  0
    1.2646   -5.2521    7.0570 H   0  0  0  0  0  0  0  0  0  0  0  0
    5.3418   -6.4019    6.7100 H   0  0  0  0  0  0  0  0  0  0  0  0
    5.3699   -6.7179    9.4488 H   0  0  0  0  0  0  0  0  0  0  0  0
    5.9945   -4.6706    8.9904 H   0  0  0  0  0  0  0  0  0  0  0  0
    7.2031   -5.3127    6.5727 H   0  0  0  0  0  0  0  0  0  0  0  0
  1  2  1  0
  1 58  1  0
  1 59  1  0
  1 60  1  0
  2  3  1  0
  2 61  1  0
  3  4  2  0
  3  5  1  0
  5 14  1  0
  5  6  1  1
  5  7  1  0
  6 62  1  0
  7  8  2  0
  7  9  1  0
  9 28  1  0
  9 10  1  6
  9 11  1  0
 10 63  1  0
 11 12  1  0
 11 64  1  0
 11 65  1  0
 12 13  1  0
 12 66  1  0
 12 67  1  0
 13 14  2  0
 13 68  1  0
 14 15  1  0
 15 30  1  0
 15 16  1  0
 15 69  1  1
 16 17  1  0
 17 44  1  0
 17 18  1  6
 17 19  1  0
 18 70  1  0
 19 56  1  0
 19 20  1  6
 19 21  1  0
 20 71  1  0
 20 72  1  0
 20 73  1  0
 21 22  1  0
 22 23  1  0
 22 25  1  0
 22 74  1  1
 23 24  1  0
 24 75  1  0
 24 76  1  0
 24 77  1  0
 25 51  1  0
 25 26  1  1
 25 54  1  0
 26 27  1  0
 26 78  1  0
 26 79  1  0
 27 28  1  0
 27 30  1  0
 27 80  1  1
 28 29  1  0
 28 81  1  1
 29 82  1  0
 30 31  1  1
 30 32  1  0
 31 83  1  0
 32 38  1  0
 32 33  1  0
 32 84  1  1
 33 34  1  0
 33 35  1  0
 33 85  1  1
 34 86  1  0
 35 36  1  0
 35 38  1  0
 35 87  1  1
 36 37  1  0
 37 88  1  0
 37 89  1  0
 37 90  1  0
 38 39  1  6
 38 40  1  0
 39 91  1  0
 52 40  1  6
 40 41  1  6
 40 42  1  0
 41 92  1  0
 42 43  1  0
 42 44  1  0
 42 93  1  6
 43 94  1  0
 44 45  1  6
 44 46  1  0
 45 95  1  0
 46 48  1  0
 46 47  1  0
 46 96  1  1
 47 48  1  0
 48 49  1  1
 48 50  1  0
 49 97  1  0
 49 98  1  0
 49 99  1  0
 50 51  1  0
 50100  1  0
 50101  1  0
 51 52  1  0
 51102  1  1
 52 53  2  0
 54 55  1  0
 54 56  1  0
 54103  1  6
 55104  1  0
 56 57  1  0
 56105  1  1
 57106  1  0
M  END
>  <i_m_ct_stereo_status>  (61) 
1

>  <s_m_source_file>  (61) 
/var/tmp/pbs.5075288.sched01/tmpq0rgj53d/65gxdktgdh.sdf

>  <i_m_source_file_index>  (61) 
7

>  <i_lp_mmshare_version>  (61) 
48012

>  <i_f3d_flags>  (61) 
0

>  <s_epik_input>  (61) 
W09IXVtDQEhdMVtDQEBIXShPW0NIM10pW0NAXShbT0hdKShbQ0BAXShbT0hdKShbUytdMltPLV0pW0NASF0zW09IXSlbQ0BIXTFbQ0BdNChbT0hdKVtDQEhdKFtDSDJdNSlbQ0BASF0oW09IXSlbQ0BdKFtPSF0pKEMoPU8pW0NAXTYoW09IXSlDKD1PKVtOSF1bQ0gzXSlbQ0gyXVtDSDJdW0NIXT1DNltDQEBIXTRPW0NAXShbT0hdKShbQ0BdKFtDSDNdKShbQ0BIXShbT0hdKVtDQEBIXTdbT0hdKU9bQ0BIXThPW0NIM10pW0NAXTMoW09IXSlbQ0BASF0oTzkpW0NAXTkoW0NIM10pW0NIMl1bQ0BASF0yQzU3OA==

>  <s_epik_cmdline>  (61) 
J2VwaWtfcHl0aG9uJywgJy1waHQnLCAnMi4wJywgJy1waCcsICc3LjAnLCAnLXRuJywgJzgnLCAnLW1hJywgJzIwMCcsICctaW1hZScsICc8aW5maWxlLm1hZT4nLCAnLW9tYWUnLCAnPG91dGZpbGUubWFlPic=

>  <r_lp_tautomer_probability>  (61) 
1

>  <r_epik_Ionization_Penalty>  (61) 
1.40957e-05

>  <r_epik_Ionization_Penalty_Charging>  (61) 
0

>  <r_epik_Ionization_Penalty_Neutral>  (61) 
1.40957e-05

>  <r_epik_State_Penalty>  (61) 
-0

>  <r_epik_Charging_Adjusted_Penalty>  (61) 
0

>  <i_epik_Tot_Q>  (61) 
0

>  <i_epik_Tot_abs_Q>  (61) 
2

>  <s_epik_Chemistry_Notes>  (61) 
This compound contains an acetal/aminal-like group ( X-CH(R)-Y where X, Y are N, S, or O) that may be acid/base labile, releasing an aldehyde.

>  <s_lp_Force_Field>  (61) 
OPLS3e

>  <r_lp_Energy>  (61) 
964.744

>  <b_lp_Chiralities_Consistent>  (61) 
1

>  <s_lp_Variant>  (61) 
14:0-24

>  <s_i_glide_gridfile>  (61) 
pfpi4k_grid

>  <i_i_glide_lignum>  (61) 
7

>  <i_i_glide_rotatable_bonds>  (61) 
16

>  <r_i_docking_score>  (61) 
-3.78478

>  <r_i_glide_ligand_efficiency>  (61) 
-0.0663997

>  <r_i_glide_ligand_efficiency_sa>  (61) 
-0.255539

>  <r_i_glide_ligand_efficiency_ln>  (61) 
-0.750495

>  <r_i_glide_gscore>  (61) 
-3.78478

>  <r_i_glide_lipo>  (61) 
-0.410888

>  <r_i_glide_hbond>  (61) 
-0.0801512

>  <r_i_glide_metal>  (61) 
-0

>  <r_i_glide_rewards>  (61) 
-0.500645

>  <r_i_glide_evdw>  (61) 
-26.6739

>  <r_i_glide_ecoul>  (61) 
-8.61054

>  <r_i_glide_erotb>  (61) 
0.0313225

>  <r_i_glide_esite>  (61) 
-0.199144

>  <r_i_glide_emodel>  (61) 
-45.3394

>  <r_i_glide_energy>  (61) 
-35.2845

>  <r_i_glide_einternal>  (61) 
9.43048

>  <r_i_glide_intrahb_reward>  (61) 
-0.5

>  <i_i_glide_confnum>  (61) 
2

>  <i_i_glide_posenum>  (61) 
1

>  <r_i_glide_eff_state_penalty>  (61) 
0

>  <ligand_id>  (61) 
14

>  <original_smiles>  (61) 
CNC(=O)C1(O)C(=O)C2(O)CCC=C1C1OC3(O)C4(C)OC(OC)C5(CC(C2O)C1(O)C1C(O)C(OC)C1(O)C1(O)C(O)C3(O)C2OC2(C)CC5[S+]1[O-])C(O)C4O

>  <smiles>  (61) 
[H]OC1(C(=O)N([H])C([H])([H])[H])C(=O)C2(O[H])C([H])([H])C([H])([H])C([H])=C1C1([H])OC3(O[H])C4(C([H])([H])[H])OC([H])(OC([H])([H])[H])C5(C([H])([H])C([H])(C2([H])O[H])C1(O[H])C1([H])C([H])(O[H])C([H])(OC([H])([H])[H])C1(O[H])C1(O[H])S(=O)C5([H])C([H])([H])C2(C([H])([H])[H])OC2([H])C3(O[H])C1([H])O[H])C([H])(O[H])C4([H])O[H]

$$$$
14:23:1
     RDKit          3D

106114  0  0  1  0  0  0  0  0999 V2000
   -2.0580   -8.9915    2.4970 C   0  0  0  0  0  0  0  0  0  0  0  0
   -1.2159   -8.9493    3.6908 N   0  0  0  0  0  0  0  0  0  0  0  0
   -0.5394   -7.8536    4.1007 C   0  0  0  0  0  0  0  0  0  0  0  0
   -0.8215   -6.7400    3.6332 O   0  0  0  0  0  0  0  0  0  0  0  0
    0.6352   -7.9850    5.1084 C   0  0  1  0  0  0  0  0  0  0  0  0
    0.3073   -7.0324    6.1157 O   0  0  0  0  0  0  0  0  0  0  0  0
    0.6437   -9.3475    5.9093 C   0  0  0  0  0  0  0  0  0  0  0  0
   -0.3102   -9.5467    6.6769 O   0  0  0  0  0  0  0  0  0  0  0  0
    1.8586  -10.3855    6.0227 C   0  0  2  0  0  0  0  0  0  0  0  0
    3.1170  -10.4315    5.3649 O   0  0  0  0  0  0  0  0  0  0  0  0
    1.6486  -11.0845    4.5974 C   0  0  0  0  0  0  0  0  0  0  0  0
    1.6326  -10.1558    3.2914 C   0  0  0  0  0  0  0  0  0  0  0  0
    2.3127   -8.7922    3.5191 C   0  0  0  0  0  0  0  0  0  0  0  0
    2.0634   -7.7526    4.4087 C   0  0  0  0  0  0  0  0  0  0  0  0
    3.3416   -6.9003    5.1402 C   0  0  2  0  0  0  0  0  0  0  0  0
    3.9110   -5.3794    5.0604 O   0  0  0  0  0  0  0  0  0  0  0  0
    4.7973   -4.1984    5.4171 C   0  0  2  0  0  0  0  0  0  0  0  0
    6.0921   -4.5328    4.9830 O   0  0  0  0  0  0  0  0  0  0  0  0
    5.0129   -3.5979    6.9917 C   0  0  1  0  0  0  0  0  0  0  0  0
    5.8076   -2.2681    7.0424 C   0  0  0  0  0  0  0  0  0  0  0  0
    3.8649   -3.3513    7.9103 O   0  0  0  0  0  0  0  0  0  0  0  0
    3.3029   -4.4612    8.6389 C   0  0  1  0  0  0  0  0  0  0  0  0
    2.0625   -4.2400    9.2516 O   0  0  0  0  0  0  0  0  0  0  0  0
    1.7455   -5.0926   10.3504 C   0  0  0  0  0  0  0  0  0  0  0  0
    3.2196   -5.4700    7.5162 C   0  0  1  0  0  0  0  0  0  0  0  0
    2.9291   -7.0268    7.8354 C   0  0  0  0  0  0  0  0  0  0  0  0
    3.4721   -8.2154    6.7781 C   0  0  2  0  0  0  0  0  0  0  0  0
    3.0036   -9.7485    7.0398 C   0  0  1  0  0  0  0  0  0  0  0  0
    2.3902   -9.8652    8.3132 O   0  0  0  0  0  0  0  0  0  0  0  0
    4.3123   -8.0218    5.2588 C   0  0  1  0  0  0  0  0  0  0  0  0
    5.6236   -8.1557    5.7788 O   0  0  0  0  0  0  0  0  0  0  0  0
    4.6987   -7.1739    3.8233 C   0  0  1  0  0  0  0  0  0  0  0  0
    5.6084   -7.5695    2.6507 C   0  0  1  0  0  0  0  0  0  0  0  0
    5.4079   -8.7819    1.9272 O   0  0  0  0  0  0  0  0  0  0  0  0
    5.2022   -6.2075    2.0073 C   0  0  1  0  0  0  0  0  0  0  0  0
    5.2813   -6.2467    0.5920 O   0  0  0  0  0  0  0  0  0  0  0  0
    4.9650   -5.0301   -0.0635 C   0  0  0  0  0  0  0  0  0  0  0  0
    3.7848   -6.2283    2.7014 C   0  0  1  0  0  0  0  0  0  0  0  0
    2.9368   -6.9243    1.8039 O   0  0  0  0  0  0  0  0  0  0  0  0
    2.8329   -4.8272    2.9889 C   0  0  2  0  0  0  0  0  0  0  0  0
    2.1337   -4.6271    1.7617 O   0  0  0  0  0  0  0  0  0  0  0  0
    3.7152   -3.5424    3.0572 C   0  0  1  0  0  0  0  0  0  0  0  0
    3.1563   -2.5069    2.2411 O   0  0  0  0  0  0  0  0  0  0  0  0
    4.2659   -3.0245    4.4399 C   0  0  2  0  0  0  0  0  0  0  0  0
    5.3967   -2.3068    3.9491 O   0  0  0  0  0  0  0  0  0  0  0  0
    3.4588   -1.8598    5.0841 C   0  0  1  0  0  0  0  0  0  0  0  0
    2.0920   -1.7218    4.6861 O   0  0  0  0  0  0  0  0  0  0  0  0
    2.3038   -1.8668    6.0859 C   0  0  2  0  0  0  0  0  0  0  0  0
    2.0251   -0.6035    6.8777 C   0  0  0  0  0  0  0  0  0  0  0  0
    1.5595   -3.0464    6.6844 C   0  0  0  0  0  0  0  0  0  0  0  0
    2.0724   -4.5234    6.4162 C   0  0  1  0  0  0  0  0  0  0  0  0
    1.5230   -4.7299    4.4789 S   0  0  0  0  0  0  0  0  0  0  0  0
    0.4115   -3.7508    4.1575 O   0  0  0  0  0  0  0  0  0  0  0  0
    4.8720   -5.7607    7.5996 C   0  0  2  0  0  0  0  0  0  0  0  0
    5.3807   -6.6295    8.6146 O   0  0  0  0  0  0  0  0  0  0  0  0
    5.8016   -4.5847    7.7875 C   0  0  1  0  0  0  0  0  0  0  0  0
    7.1422   -4.8268    7.3939 O   0  0  0  0  0  0  0  0  0  0  0  0
   -2.9914   -9.4799    2.6651 H   0  0  0  0  0  0  0  0  0  0  0  0
   -1.5254   -9.6096    1.7763 H   0  0  0  0  0  0  0  0  0  0  0  0
   -2.2387   -8.0081    2.0622 H   0  0  0  0  0  0  0  0  0  0  0  0
   -1.0884   -9.8331    4.1645 H   0  0  0  0  0  0  0  0  0  0  0  0
    0.9563   -7.0999    6.8052 H   0  0  0  0  0  0  0  0  0  0  0  0
    3.4972  -11.2734    5.5843 H   0  0  0  0  0  0  0  0  0  0  0  0
    2.1765  -12.0488    4.4337 H   0  0  0  0  0  0  0  0  0  0  0  0
    0.6318  -11.4745    4.6529 H   0  0  0  0  0  0  0  0  0  0  0  0
    2.2654  -10.6697    2.5506 H   0  0  0  0  0  0  0  0  0  0  0  0
    0.6676  -10.1103    2.7977 H   0  0  0  0  0  0  0  0  0  0  0  0
    3.3096   -8.9326    3.1366 H   0  0  0  0  0  0  0  0  0  0  0  0
    2.4963   -6.6433    5.6818 H   0  0  0  0  0  0  0  0  0  0  0  0
    6.0863   -4.5132    4.0361 H   0  0  0  0  0  0  0  0  0  0  0  0
    6.7038   -2.2862    6.4287 H   0  0  0  0  0  0  0  0  0  0  0  0
    6.1432   -2.0685    8.0569 H   0  0  0  0  0  0  0  0  0  0  0  0
    5.2279   -1.3919    6.7827 H   0  0  0  0  0  0  0  0  0  0  0  0
    3.9636   -4.7229    9.4662 H   0  0  0  0  0  0  0  0  0  0  0  0
    0.7851   -4.8008   10.7794 H   0  0  0  0  0  0  0  0  0  0  0  0
    2.4993   -5.0435   11.1395 H   0  0  0  0  0  0  0  0  0  0  0  0
    1.6358   -6.1304   10.0465 H   0  0  0  0  0  0  0  0  0  0  0  0
    3.2192   -7.3301    8.8392 H   0  0  0  0  0  0  0  0  0  0  0  0
    1.8538   -7.0718    8.0070 H   0  0  0  0  0  0  0  0  0  0  0  0
    2.4579   -8.2221    6.6853 H   0  0  0  0  0  0  0  0  0  0  0  0
    3.9009  -10.3481    7.2828 H   0  0  0  0  0  0  0  0  0  0  0  0
    2.0770  -10.7617    8.3713 H   0  0  0  0  0  0  0  0  0  0  0  0
    5.7475   -9.0643    6.0238 H   0  0  0  0  0  0  0  0  0  0  0  0
    5.5330   -6.5994    4.2075 H   0  0  0  0  0  0  0  0  0  0  0  0
    6.6661   -7.5327    2.9397 H   0  0  0  0  0  0  0  0  0  0  0  0
    4.4882   -8.9466    1.8373 H   0  0  0  0  0  0  0  0  0  0  0  0
    5.8816   -5.4545    2.4182 H   0  0  0  0  0  0  0  0  0  0  0  0
    5.0931   -5.1346   -1.1401 H   0  0  0  0  0  0  0  0  0  0  0  0
    5.5797   -4.1969    0.2748 H   0  0  0  0  0  0  0  0  0  0  0  0
    3.9232   -4.7792    0.0940 H   0  0  0  0  0  0  0  0  0  0  0  0
    3.4392   -7.6372    1.4747 H   0  0  0  0  0  0  0  0  0  0  0  0
    2.5239   -3.8388    1.3587 H   0  0  0  0  0  0  0  0  0  0  0  0
    4.5913   -3.7985    2.4786 H   0  0  0  0  0  0  0  0  0  0  0  0
    3.7821   -1.8127    2.1390 H   0  0  0  0  0  0  0  0  0  0  0  0
    5.0992   -1.5244    3.5079 H   0  0  0  0  0  0  0  0  0  0  0  0
    3.9708   -0.9012    5.0340 H   0  0  0  0  0  0  0  0  0  0  0  0
    2.4707   -0.6785    7.8713 H   0  0  0  0  0  0  0  0  0  0  0  0
    0.9498   -0.4391    6.9714 H   0  0  0  0  0  0  0  0  0  0  0  0
    2.4626    0.2527    6.3707 H   0  0  0  0  0  0  0  0  0  0  0  0
    1.3909   -2.7947    7.7262 H   0  0  0  0  0  0  0  0  0  0  0  0
    0.5401   -2.9561    6.3130 H   0  0  0  0  0  0  0  0  0  0  0  0
    1.1937   -4.9569    6.8635 H   0  0  0  0  0  0  0  0  0  0  0  0
    5.2541   -6.1836    6.7097 H   0  0  0  0  0  0  0  0  0  0  0  0
    5.2349   -6.2202    9.4618 H   0  0  0  0  0  0  0  0  0  0  0  0
    5.8882   -4.2560    8.8271 H   0  0  0  0  0  0  0  0  0  0  0  0
    7.1059   -5.1109    6.4810 H   0  0  0  0  0  0  0  0  0  0  0  0
  1  2  1  0
  1 58  1  0
  1 59  1  0
  1 60  1  0
  2  3  1  0
  2 61  1  0
  3  4  2  0
  3  5  1  0
  5 14  1  0
  5  6  1  1
  5  7  1  0
  6 62  1  0
  7  8  2  0
  7  9  1  0
  9 28  1  0
  9 10  1  6
  9 11  1  0
 10 63  1  0
 11 12  1  0
 11 64  1  0
 11 65  1  0
 12 13  1  0
 12 66  1  0
 12 67  1  0
 13 14  2  0
 13 68  1  0
 14 15  1  0
 15 30  1  0
 15 16  1  0
 15 69  1  1
 16 17  1  0
 17 44  1  0
 17 18  1  6
 17 19  1  0
 18 70  1  0
 19 56  1  0
 19 20  1  6
 19 21  1  0
 20 71  1  0
 20 72  1  0
 20 73  1  0
 21 22  1  0
 22 23  1  0
 22 25  1  0
 22 74  1  1
 23 24  1  0
 24 75  1  0
 24 76  1  0
 24 77  1  0
 25 51  1  0
 25 26  1  1
 25 54  1  0
 26 27  1  0
 26 78  1  0
 26 79  1  0
 27 28  1  0
 27 30  1  0
 27 80  1  1
 28 29  1  0
 28 81  1  1
 29 82  1  0
 30 31  1  1
 30 32  1  0
 31 83  1  0
 32 38  1  0
 32 33  1  0
 32 84  1  1
 33 34  1  0
 33 35  1  0
 33 85  1  1
 34 86  1  0
 35 36  1  0
 35 38  1  0
 35 87  1  1
 36 37  1  0
 37 88  1  0
 37 89  1  0
 37 90  1  0
 38 39  1  6
 38 40  1  0
 39 91  1  0
 52 40  1  6
 40 41  1  6
 40 42  1  0
 41 92  1  0
 42 43  1  0
 42 44  1  0
 42 93  1  6
 43 94  1  0
 44 45  1  6
 44 46  1  0
 45 95  1  0
 46 48  1  0
 46 47  1  0
 46 96  1  1
 47 48  1  0
 48 49  1  1
 48 50  1  0
 49 97  1  0
 49 98  1  0
 49 99  1  0
 50 51  1  0
 50100  1  0
 50101  1  0
 51 52  1  0
 51102  1  1
 52 53  2  0
 54 55  1  0
 54 56  1  0
 54103  1  6
 55104  1  0
 56 57  1  0
 56105  1  1
 57106  1  0
M  END
>  <i_m_ct_stereo_status>  (62) 
1

>  <s_m_source_file>  (62) 
/var/tmp/pbs.5075288.sched01/tmpq0rgj53d/65gxdktgdh.sdf

>  <i_m_source_file_index>  (62) 
7

>  <i_lp_mmshare_version>  (62) 
48012

>  <i_f3d_flags>  (62) 
0

>  <s_epik_input>  (62) 
W09IXVtDQEhdMVtDQEBIXShPW0NIM10pW0NAXShbT0hdKShbQ0BAXShbT0hdKShbUytdMltPLV0pW0NASF0zW09IXSlbQ0BIXTFbQ0BdNChbT0hdKVtDQEhdKFtDSDJdNSlbQ0BASF0oW09IXSlbQ0BdKFtPSF0pKEMoPU8pW0NAXTYoW09IXSlDKD1PKVtOSF1bQ0gzXSlbQ0gyXVtDSDJdW0NIXT1DNltDQEBIXTRPW0NAXShbT0hdKShbQ0BdKFtDSDNdKShbQ0BIXShbT0hdKVtDQEBIXTdbT0hdKU9bQ0BIXThPW0NIM10pW0NAXTMoW09IXSlbQ0BASF0oTzkpW0NAXTkoW0NIM10pW0NIMl1bQ0BASF0yQzU3OA==

>  <s_epik_cmdline>  (62) 
J2VwaWtfcHl0aG9uJywgJy1waHQnLCAnMi4wJywgJy1waCcsICc3LjAnLCAnLXRuJywgJzgnLCAnLW1hJywgJzIwMCcsICctaW1hZScsICc8aW5maWxlLm1hZT4nLCAnLW9tYWUnLCAnPG91dGZpbGUubWFlPic=

>  <r_lp_tautomer_probability>  (62) 
1

>  <r_epik_Ionization_Penalty>  (62) 
1.40957e-05

>  <r_epik_Ionization_Penalty_Charging>  (62) 
0

>  <r_epik_Ionization_Penalty_Neutral>  (62) 
1.40957e-05

>  <r_epik_State_Penalty>  (62) 
-0

>  <r_epik_Charging_Adjusted_Penalty>  (62) 
0

>  <i_epik_Tot_Q>  (62) 
0

>  <i_epik_Tot_abs_Q>  (62) 
2

>  <s_epik_Chemistry_Notes>  (62) 
This compound contains an acetal/aminal-like group ( X-CH(R)-Y where X, Y are N, S, or O) that may be acid/base labile, releasing an aldehyde.

>  <s_lp_Force_Field>  (62) 
OPLS3e

>  <r_lp_Energy>  (62) 
964.744

>  <b_lp_Chiralities_Consistent>  (62) 
1

>  <s_lp_Variant>  (62) 
14:0-24

>  <s_i_glide_gridfile>  (62) 
pfpi4k_grid

>  <i_i_glide_lignum>  (62) 
7

>  <i_i_glide_rotatable_bonds>  (62) 
16

>  <r_i_docking_score>  (62) 
-3.67966

>  <r_i_glide_ligand_efficiency>  (62) 
-0.0645554

>  <r_i_glide_ligand_efficiency_sa>  (62) 
-0.248442

>  <r_i_glide_ligand_efficiency_ln>  (62) 
-0.729649

>  <r_i_glide_gscore>  (62) 
-3.67966

>  <r_i_glide_lipo>  (62) 
-0.334204

>  <r_i_glide_hbond>  (62) 
-0.221126

>  <r_i_glide_metal>  (62) 
-0

>  <r_i_glide_rewards>  (62) 
-0.502115

>  <r_i_glide_evdw>  (62) 
-27.011

>  <r_i_glide_ecoul>  (62) 
-7.33049

>  <r_i_glide_erotb>  (62) 
0.0313225

>  <r_i_glide_esite>  (62) 
-0.203415

>  <r_i_glide_emodel>  (62) 
-44.9134

>  <r_i_glide_energy>  (62) 
-34.3415

>  <r_i_glide_einternal>  (62) 
7.70456

>  <r_i_glide_intrahb_reward>  (62) 
-0.5

>  <i_i_glide_confnum>  (62) 
4

>  <i_i_glide_posenum>  (62) 
21

>  <r_i_glide_eff_state_penalty>  (62) 
0

>  <ligand_id>  (62) 
14

>  <original_smiles>  (62) 
CNC(=O)C1(O)C(=O)C2(O)CCC=C1C1OC3(O)C4(C)OC(OC)C5(CC(C2O)C1(O)C1C(O)C(OC)C1(O)C1(O)C(O)C3(O)C2OC2(C)CC5[S+]1[O-])C(O)C4O

>  <smiles>  (62) 
[H]OC1(C(=O)N([H])C([H])([H])[H])C(=O)C2(O[H])C([H])([H])C([H])([H])C([H])=C1C1([H])OC3(O[H])C4(C([H])([H])[H])OC([H])(OC([H])([H])[H])C5(C([H])([H])C([H])(C2([H])O[H])C1(O[H])C1([H])C([H])(O[H])C([H])(OC([H])([H])[H])C1(O[H])C1(O[H])S(=O)C5([H])C([H])([H])C2(C([H])([H])[H])OC2([H])C3(O[H])C1([H])O[H])C([H])(O[H])C4([H])O[H]

$$$$
14:23:2
     RDKit          3D

106114  0  0  1  0  0  0  0  0999 V2000
   -1.8819   -9.0620    2.4869 C   0  0  0  0  0  0  0  0  0  0  0  0
   -0.9826   -9.0227    3.6225 N   0  0  0  0  0  0  0  0  0  0  0  0
   -0.2784   -7.9169    3.9900 C   0  0  0  0  0  0  0  0  0  0  0  0
   -0.5051   -6.8326    3.4682 O   0  0  0  0  0  0  0  0  0  0  0  0
    0.8568   -8.0367    5.0610 C   0  0  1  0  0  0  0  0  0  0  0  0
    0.4024   -7.1378    6.0598 O   0  0  0  0  0  0  0  0  0  0  0  0
    0.8724   -9.4310    5.8081 C   0  0  0  0  0  0  0  0  0  0  0  0
   -0.1292   -9.7273    6.4725 O   0  0  0  0  0  0  0  0  0  0  0  0
    2.1329  -10.4159    5.9472 C   0  0  2  0  0  0  0  0  0  0  0  0
    3.4206  -10.3621    5.3554 O   0  0  0  0  0  0  0  0  0  0  0  0
    2.0275  -11.0405    4.4725 C   0  0  0  0  0  0  0  0  0  0  0  0
    2.0240  -10.0365    3.2218 C   0  0  0  0  0  0  0  0  0  0  0  0
    2.6523   -8.6674    3.5393 C   0  0  0  0  0  0  0  0  0  0  0  0
    2.2955   -7.6885    4.4550 C   0  0  0  0  0  0  0  0  0  0  0  0
    3.4987   -6.8039    5.2973 C   0  0  2  0  0  0  0  0  0  0  0  0
    3.9874   -5.2584    5.3245 O   0  0  0  0  0  0  0  0  0  0  0  0
    4.7956   -4.0563    5.7834 C   0  0  2  0  0  0  0  0  0  0  0  0
    6.1316   -4.2869    5.4086 O   0  0  0  0  0  0  0  0  0  0  0  0
    4.8746   -3.5263    7.3931 C   0  0  1  0  0  0  0  0  0  0  0  0
    5.5973   -2.1624    7.5587 C   0  0  0  0  0  0  0  0  0  0  0  0
    3.6654   -3.3775    8.2519 O   0  0  0  0  0  0  0  0  0  0  0  0
    3.1113   -4.5509    8.8944 C   0  0  1  0  0  0  0  0  0  0  0  0
    1.8293   -4.4215    9.4363 O   0  0  0  0  0  0  0  0  0  0  0  0
    1.4858   -5.3501   10.4635 C   0  0  0  0  0  0  0  0  0  0  0  0
    3.1493   -5.5047    7.7243 C   0  0  1  0  0  0  0  0  0  0  0  0
    2.9195   -7.0864    7.9545 C   0  0  0  0  0  0  0  0  0  0  0  0
    3.5937   -8.1935    6.8793 C   0  0  2  0  0  0  0  0  0  0  0  0
    3.1890   -9.7495    7.0462 C   0  0  1  0  0  0  0  0  0  0  0  0
    2.5111   -9.8792    8.2831 O   0  0  0  0  0  0  0  0  0  0  0  0
    4.5107   -7.8906    5.4242 C   0  0  1  0  0  0  0  0  0  0  0  0
    5.7885   -7.9935    6.0275 O   0  0  0  0  0  0  0  0  0  0  0  0
    4.9379   -6.9523    4.0587 C   0  0  1  0  0  0  0  0  0  0  0  0
    5.9300   -7.2581    2.9248 C   0  0  1  0  0  0  0  0  0  0  0  0
    5.8063   -8.4322    2.1386 O   0  0  0  0  0  0  0  0  0  0  0  0
    5.4913   -5.8800    2.3274 C   0  0  1  0  0  0  0  0  0  0  0  0
    5.6619   -5.8497    0.9144 O   0  0  0  0  0  0  0  0  0  0  0  0
    5.3247   -4.6186    0.2971 C   0  0  0  0  0  0  0  0  0  0  0  0
    4.0383   -6.0045    2.9164 C   0  0  1  0  0  0  0  0  0  0  0  0
    3.3067   -6.7011    1.9314 O   0  0  0  0  0  0  0  0  0  0  0  0
    2.9890   -4.6587    3.2157 C   0  0  2  0  0  0  0  0  0  0  0  0
    2.2698   -4.4637    1.9950 O   0  0  0  0  0  0  0  0  0  0  0  0
    3.8180   -3.3339    3.3952 C   0  0  1  0  0  0  0  0  0  0  0  0
    3.2897   -2.2072    2.6834 O   0  0  0  0  0  0  0  0  0  0  0  0
    4.2459   -2.8735    4.8383 C   0  0  2  0  0  0  0  0  0  0  0  0
    5.3441   -2.0496    4.4497 O   0  0  0  0  0  0  0  0  0  0  0  0
    3.3386   -1.7791    5.4791 C   0  0  1  0  0  0  0  0  0  0  0  0
    1.9973   -1.6889    5.0124 O   0  0  0  0  0  0  0  0  0  0  0  0
    2.1376   -1.8878    6.4039 C   0  0  2  0  0  0  0  0  0  0  0  0
    1.7510   -0.6777    7.2343 C   0  0  0  0  0  0  0  0  0  0  0  0
    1.4216   -3.1312    6.9041 C   0  0  0  0  0  0  0  0  0  0  0  0
    2.0229   -4.5670    6.5989 C   0  0  1  0  0  0  0  0  0  0  0  0
    1.6138   -4.7108    4.6363 S   0  0  0  0  0  0  0  0  0  0  0  0
    0.4412   -3.7819    4.2631 O   0  0  0  0  0  0  0  0  0  0  0  0
    4.8060   -5.7198    7.8982 C   0  0  2  0  0  0  0  0  0  0  0  0
    5.2995   -6.6138    8.9031 O   0  0  0  0  0  0  0  0  0  0  0  0
    5.6640   -4.5149    8.1927 C   0  0  1  0  0  0  0  0  0  0  0  0
    7.0358   -4.6781    7.8797 O   0  0  0  0  0  0  0  0  0  0  0  0
   -2.8344   -9.4954    2.7775 H   0  0  0  0  0  0  0  0  0  0  0  0
   -1.4494   -9.7138    1.7305 H   0  0  0  0  0  0  0  0  0  0  0  0
   -2.0816   -8.0889    2.0357 H   0  0  0  0  0  0  0  0  0  0  0  0
   -0.8357   -9.9017    4.1081 H   0  0  0  0  0  0  0  0  0  0  0  0
    0.9879   -7.2153    6.8065 H   0  0  0  0  0  0  0  0  0  0  0  0
    3.8596  -11.1752    5.5741 H   0  0  0  0  0  0  0  0  0  0  0  0
    2.6149  -11.9589    4.2671 H   0  0  0  0  0  0  0  0  0  0  0  0
    1.0368  -11.4956    4.4419 H   0  0  0  0  0  0  0  0  0  0  0  0
    2.6571  -10.4861    2.4511 H   0  0  0  0  0  0  0  0  0  0  0  0
    1.0545   -9.9717    2.7311 H   0  0  0  0  0  0  0  0  0  0  0  0
    3.6655   -8.7530    3.2037 H   0  0  0  0  0  0  0  0  0  0  0  0
    2.6033   -6.6210    5.7942 H   0  0  0  0  0  0  0  0  0  0  0  0
    6.1693   -4.2971    4.4663 H   0  0  0  0  0  0  0  0  0  0  0  0
    6.5243   -2.1063    6.9972 H   0  0  0  0  0  0  0  0  0  0  0  0
    5.8599   -1.9981    8.6025 H   0  0  0  0  0  0  0  0  0  0  0  0
    4.9874   -1.3064    7.3034 H   0  0  0  0  0  0  0  0  0  0  0  0
    3.7334   -4.8184    9.7513 H   0  0  0  0  0  0  0  0  0  0  0  0
    0.4897   -5.1236   10.8487 H   0  0  0  0  0  0  0  0  0  0  0  0
    2.1895   -5.3154   11.2991 H   0  0  0  0  0  0  0  0  0  0  0  0
    1.4432   -6.3725   10.0939 H   0  0  0  0  0  0  0  0  0  0  0  0
    3.1605   -7.4195    8.9608 H   0  0  0  0  0  0  0  0  0  0  0  0
    1.8372   -7.1924    8.0511 H   0  0  0  0  0  0  0  0  0  0  0  0
    2.5862   -8.2458    6.7167 H   0  0  0  0  0  0  0  0  0  0  0  0
    4.0884  -10.3286    7.3242 H   0  0  0  0  0  0  0  0  0  0  0  0
    2.1713  -10.7712    8.3001 H   0  0  0  0  0  0  0  0  0  0  0  0
    5.8657   -8.8578    6.4070 H   0  0  0  0  0  0  0  0  0  0  0  0
    5.7146   -6.3537    4.5257 H   0  0  0  0  0  0  0  0  0  0  0  0
    6.9672   -7.2000    3.2741 H   0  0  0  0  0  0  0  0  0  0  0  0
    4.8890   -8.6399    2.0390 H   0  0  0  0  0  0  0  0  0  0  0  0
    6.1119   -5.1139    2.8024 H   0  0  0  0  0  0  0  0  0  0  0  0
    5.5284   -4.6650   -0.7709 H   0  0  0  0  0  0  0  0  0  0  0  0
    5.8820   -3.7773    0.7117 H   0  0  0  0  0  0  0  0  0  0  0  0
    4.2645   -4.4238    0.4081 H   0  0  0  0  0  0  0  0  0  0  0  0
    3.9320   -7.2734    1.5137 H   0  0  0  0  0  0  0  0  0  0  0  0
    2.7029   -3.8276    1.4511 H   0  0  0  0  0  0  0  0  0  0  0  0
    4.7315   -3.5264    2.8506 H   0  0  0  0  0  0  0  0  0  0  0  0
    3.3147   -2.3518    1.7458 H   0  0  0  0  0  0  0  0  0  0  0  0
    4.9875   -1.3989    3.8561 H   0  0  0  0  0  0  0  0  0  0  0  0
    3.8055   -0.7928    5.5018 H   0  0  0  0  0  0  0  0  0  0  0  0
    2.1418   -0.7761    8.2475 H   0  0  0  0  0  0  0  0  0  0  0  0
    0.6686   -0.5657    7.2681 H   0  0  0  0  0  0  0  0  0  0  0  0
    2.1755    0.2264    6.7931 H   0  0  0  0  0  0  0  0  0  0  0  0
    1.1762   -2.9402    7.9389 H   0  0  0  0  0  0  0  0  0  0  0  0
    0.4233   -3.0736    6.4698 H   0  0  0  0  0  0  0  0  0  0  0  0
    1.1415   -5.0654    6.9688 H   0  0  0  0  0  0  0  0  0  0  0  0
    5.2587   -6.0808    7.0138 H   0  0  0  0  0  0  0  0  0  0  0  0
    5.1062   -6.2426    9.7543 H   0  0  0  0  0  0  0  0  0  0  0  0
    5.6693   -4.2293    9.2491 H   0  0  0  0  0  0  0  0  0  0  0  0
    7.0801   -4.9295    6.9608 H   0  0  0  0  0  0  0  0  0  0  0  0
  1  2  1  0
  1 58  1  0
  1 59  1  0
  1 60  1  0
  2  3  1  0
  2 61  1  0
  3  4  2  0
  3  5  1  0
  5 14  1  0
  5  6  1  1
  5  7  1  0
  6 62  1  0
  7  8  2  0
  7  9  1  0
  9 28  1  0
  9 10  1  6
  9 11  1  0
 10 63  1  0
 11 12  1  0
 11 64  1  0
 11 65  1  0
 12 13  1  0
 12 66  1  0
 12 67  1  0
 13 14  2  0
 13 68  1  0
 14 15  1  0
 15 30  1  0
 15 16  1  0
 15 69  1  1
 16 17  1  0
 17 44  1  0
 17 18  1  6
 17 19  1  0
 18 70  1  0
 19 56  1  0
 19 20  1  6
 19 21  1  0
 20 71  1  0
 20 72  1  0
 20 73  1  0
 21 22  1  0
 22 23  1  0
 22 25  1  0
 22 74  1  1
 23 24  1  0
 24 75  1  0
 24 76  1  0
 24 77  1  0
 25 51  1  0
 25 26  1  1
 25 54  1  0
 26 27  1  0
 26 78  1  0
 26 79  1  0
 27 28  1  0
 27 30  1  0
 27 80  1  1
 28 29  1  0
 28 81  1  1
 29 82  1  0
 30 31  1  1
 30 32  1  0
 31 83  1  0
 32 38  1  0
 32 33  1  0
 32 84  1  1
 33 34  1  0
 33 35  1  0
 33 85  1  1
 34 86  1  0
 35 36  1  0
 35 38  1  0
 35 87  1  1
 36 37  1  0
 37 88  1  0
 37 89  1  0
 37 90  1  0
 38 39  1  6
 38 40  1  0
 39 91  1  0
 52 40  1  6
 40 41  1  6
 40 42  1  0
 41 92  1  0
 42 43  1  0
 42 44  1  0
 42 93  1  6
 43 94  1  0
 44 45  1  6
 44 46  1  0
 45 95  1  0
 46 48  1  0
 46 47  1  0
 46 96  1  1
 47 48  1  0
 48 49  1  1
 48 50  1  0
 49 97  1  0
 49 98  1  0
 49 99  1  0
 50 51  1  0
 50100  1  0
 50101  1  0
 51 52  1  0
 51102  1  1
 52 53  2  0
 54 55  1  0
 54 56  1  0
 54103  1  6
 55104  1  0
 56 57  1  0
 56105  1  1
 57106  1  0
M  END
>  <i_m_ct_stereo_status>  (63) 
1

>  <s_m_source_file>  (63) 
/var/tmp/pbs.5075288.sched01/tmpq0rgj53d/65gxdktgdh.sdf

>  <i_m_source_file_index>  (63) 
7

>  <i_lp_mmshare_version>  (63) 
48012

>  <i_f3d_flags>  (63) 
0

>  <s_epik_input>  (63) 
W09IXVtDQEhdMVtDQEBIXShPW0NIM10pW0NAXShbT0hdKShbQ0BAXShbT0hdKShbUytdMltPLV0pW0NASF0zW09IXSlbQ0BIXTFbQ0BdNChbT0hdKVtDQEhdKFtDSDJdNSlbQ0BASF0oW09IXSlbQ0BdKFtPSF0pKEMoPU8pW0NAXTYoW09IXSlDKD1PKVtOSF1bQ0gzXSlbQ0gyXVtDSDJdW0NIXT1DNltDQEBIXTRPW0NAXShbT0hdKShbQ0BdKFtDSDNdKShbQ0BIXShbT0hdKVtDQEBIXTdbT0hdKU9bQ0BIXThPW0NIM10pW0NAXTMoW09IXSlbQ0BASF0oTzkpW0NAXTkoW0NIM10pW0NIMl1bQ0BASF0yQzU3OA==

>  <s_epik_cmdline>  (63) 
J2VwaWtfcHl0aG9uJywgJy1waHQnLCAnMi4wJywgJy1waCcsICc3LjAnLCAnLXRuJywgJzgnLCAnLW1hJywgJzIwMCcsICctaW1hZScsICc8aW5maWxlLm1hZT4nLCAnLW9tYWUnLCAnPG91dGZpbGUubWFlPic=

>  <r_lp_tautomer_probability>  (63) 
1

>  <r_epik_Ionization_Penalty>  (63) 
1.40957e-05

>  <r_epik_Ionization_Penalty_Charging>  (63) 
0

>  <r_epik_Ionization_Penalty_Neutral>  (63) 
1.40957e-05

>  <r_epik_State_Penalty>  (63) 
-0

>  <r_epik_Charging_Adjusted_Penalty>  (63) 
0

>  <i_epik_Tot_Q>  (63) 
0

>  <i_epik_Tot_abs_Q>  (63) 
2

>  <s_epik_Chemistry_Notes>  (63) 
This compound contains an acetal/aminal-like group ( X-CH(R)-Y where X, Y are N, S, or O) that may be acid/base labile, releasing an aldehyde.

>  <s_lp_Force_Field>  (63) 
OPLS3e

>  <r_lp_Energy>  (63) 
964.744

>  <b_lp_Chiralities_Consistent>  (63) 
1

>  <s_lp_Variant>  (63) 
14:0-24

>  <s_i_glide_gridfile>  (63) 
pfpi4k_grid

>  <i_i_glide_lignum>  (63) 
7

>  <i_i_glide_rotatable_bonds>  (63) 
16

>  <r_i_docking_score>  (63) 
-3.54657

>  <r_i_glide_ligand_efficiency>  (63) 
-0.0622205

>  <r_i_glide_ligand_efficiency_sa>  (63) 
-0.239456

>  <r_i_glide_ligand_efficiency_ln>  (63) 
-0.703258

>  <r_i_glide_gscore>  (63) 
-3.54657

>  <r_i_glide_lipo>  (63) 
-0.3782

>  <r_i_glide_hbond>  (63) 
-0.176422

>  <r_i_glide_metal>  (63) 
-0

>  <r_i_glide_rewards>  (63) 
-0.502486

>  <r_i_glide_evdw>  (63) 
-27.8389

>  <r_i_glide_ecoul>  (63) 
-6.25635

>  <r_i_glide_erotb>  (63) 
0.0313225

>  <r_i_glide_esite>  (63) 
-0.190387

>  <r_i_glide_emodel>  (63) 
-45.6168

>  <r_i_glide_energy>  (63) 
-34.0952

>  <r_i_glide_einternal>  (63) 
6.2531

>  <r_i_glide_intrahb_reward>  (63) 
-0.5

>  <i_i_glide_confnum>  (63) 
4

>  <i_i_glide_posenum>  (63) 
17

>  <r_i_glide_eff_state_penalty>  (63) 
0

>  <ligand_id>  (63) 
14

>  <original_smiles>  (63) 
CNC(=O)C1(O)C(=O)C2(O)CCC=C1C1OC3(O)C4(C)OC(OC)C5(CC(C2O)C1(O)C1C(O)C(OC)C1(O)C1(O)C(O)C3(O)C2OC2(C)CC5[S+]1[O-])C(O)C4O

>  <smiles>  (63) 
[H]OC1(C(=O)N([H])C([H])([H])[H])C(=O)C2(O[H])C([H])([H])C([H])([H])C([H])=C1C1([H])OC3(O[H])C4(C([H])([H])[H])OC([H])(OC([H])([H])[H])C5(C([H])([H])C([H])(C2([H])O[H])C1(O[H])C1([H])C([H])(O[H])C([H])(OC([H])([H])[H])C1(O[H])C1(O[H])S(=O)C5([H])C([H])([H])C2(C([H])([H])[H])OC2([H])C3(O[H])C1([H])O[H])C([H])(O[H])C4([H])O[H]

$$$$
14:24:0
     RDKit          3D

106114  0  0  1  0  0  0  0  0999 V2000
   -1.9405   -9.6056    2.2281 C   0  0  0  0  0  0  0  0  0  0  0  0
   -0.9467   -9.4531    3.2781 N   0  0  0  0  0  0  0  0  0  0  0  0
    0.1367   -8.6559    3.1750 C   0  0  0  0  0  0  0  0  0  0  0  0
    0.2914   -7.9311    2.1986 O   0  0  0  0  0  0  0  0  0  0  0  0
    1.2013   -8.6307    4.3151 C   0  0  1  0  0  0  0  0  0  0  0  0
    0.5966   -7.7149    5.1812 O   0  0  0  0  0  0  0  0  0  0  0  0
    1.2398   -9.9388    5.1684 C   0  0  0  0  0  0  0  0  0  0  0  0
    0.2118  -10.2394    5.7953 O   0  0  0  0  0  0  0  0  0  0  0  0
    2.5253  -10.7954    5.5010 C   0  0  2  0  0  0  0  0  0  0  0  0
    3.8473  -10.5834    4.9966 O   0  0  0  0  0  0  0  0  0  0  0  0
    2.6183  -11.5656    4.1082 C   0  0  0  0  0  0  0  0  0  0  0  0
    2.4788  -10.6615    2.7949 C   0  0  0  0  0  0  0  0  0  0  0  0
    3.0400   -9.2205    2.8991 C   0  0  0  0  0  0  0  0  0  0  0  0
    2.6722   -8.2435    3.8175 C   0  0  0  0  0  0  0  0  0  0  0  0
    3.7019   -7.1794    4.7324 C   0  0  2  0  0  0  0  0  0  0  0  0
    4.4276   -5.7682    4.5893 O   0  0  0  0  0  0  0  0  0  0  0  0
    4.5062   -4.2487    4.8064 C   0  0  2  0  0  0  0  0  0  0  0  0
    5.8747   -4.1724    4.7517 O   0  0  0  0  0  0  0  0  0  0  0  0
    4.3163   -3.4406    6.3216 C   0  0  1  0  0  0  0  0  0  0  0  0
    4.7713   -1.9629    6.2669 C   0  0  0  0  0  0  0  0  0  0  0  0
    3.0179   -3.3607    7.0554 O   0  0  0  0  0  0  0  0  0  0  0  0
    2.5203   -4.5151    7.7816 C   0  0  1  0  0  0  0  0  0  0  0  0
    1.1494   -4.5523    8.0073 O   0  0  0  0  0  0  0  0  0  0  0  0
    0.6870   -3.5318    8.8792 C   0  0  0  0  0  0  0  0  0  0  0  0
    2.9356   -5.6163    6.8359 C   0  0  1  0  0  0  0  0  0  0  0  0
    2.8114   -7.2156    7.3358 C   0  0  0  0  0  0  0  0  0  0  0  0
    3.6284   -8.4525    6.4958 C   0  0  2  0  0  0  0  0  0  0  0  0
    3.3742  -10.0307    6.6889 C   0  0  1  0  0  0  0  0  0  0  0  0
    2.6064  -10.1558    7.8785 O   0  0  0  0  0  0  0  0  0  0  0  0
    4.7619   -8.0012    5.3378 C   0  0  2  0  0  0  0  0  0  0  0  0
    5.8726   -7.8564    6.2015 O   0  0  0  0  0  0  0  0  0  0  0  0
    5.3399   -7.9130    3.7659 C   0  0  2  0  0  0  0  0  0  0  0  0
    6.7451   -7.3161    3.5786 C   0  0  1  0  0  0  0  0  0  0  0  0
    7.7765   -8.2325    3.2788 O   0  0  0  0  0  0  0  0  0  0  0  0
    6.3001   -6.3655    2.4802 C   0  0  1  0  0  0  0  0  0  0  0  0
    7.0549   -6.4536    1.2665 O   0  0  0  0  0  0  0  0  0  0  0  0
    8.3066   -5.7759    1.3305 C   0  0  0  0  0  0  0  0  0  0  0  0
    4.8477   -6.9246    2.4419 C   0  0  1  0  0  0  0  0  0  0  0  0
    4.8443   -7.6785    1.2472 O   0  0  0  0  0  0  0  0  0  0  0  0
    3.5140   -5.7654    2.2688 C   0  0  2  0  0  0  0  0  0  0  0  0
    2.9850   -6.0965    0.9732 O   0  0  0  0  0  0  0  0  0  0  0  0
    4.0077   -4.2848    2.1429 C   0  0  1  0  0  0  0  0  0  0  0  0
    3.2700   -3.6065    1.1267 O   0  0  0  0  0  0  0  0  0  0  0  0
    4.0824   -3.4217    3.4793 C   0  0  2  0  0  0  0  0  0  0  0  0
    5.1543   -2.5473    3.0899 O   0  0  0  0  0  0  0  0  0  0  0  0
    3.0121   -2.3267    3.7201 C   0  0  1  0  0  0  0  0  0  0  0  0
    1.7210   -2.5076    3.1626 O   0  0  0  0  0  0  0  0  0  0  0  0
    1.7636   -2.4109    4.5805 C   0  0  2  0  0  0  0  0  0  0  0  0
    1.1663   -1.1207    5.1168 C   0  0  0  0  0  0  0  0  0  0  0  0
    1.1507   -3.6250    5.2834 C   0  0  0  0  0  0  0  0  0  0  0  0
    1.9565   -5.0014    5.3915 C   0  0  1  0  0  0  0  0  0  0  0  0
    1.9639   -5.4825    3.4672 S   0  0  0  0  0  0  0  0  0  0  0  0
    0.6235   -5.1510    2.7638 O   0  0  0  0  0  0  0  0  0  0  0  0
    4.5300   -5.4642    7.2976 C   0  0  2  0  0  0  0  0  0  0  0  0
    4.8856   -6.0591    8.5398 O   0  0  0  0  0  0  0  0  0  0  0  0
    5.1317   -4.0886    7.4191 C   0  0  1  0  0  0  0  0  0  0  0  0
    6.5621   -3.9514    7.4427 O   0  0  0  0  0  0  0  0  0  0  0  0
   -2.9162   -9.6011    2.6505 H   0  0  0  0  0  0  0  0  0  0  0  0
   -1.7623  -10.5478    1.6971 H   0  0  0  0  0  0  0  0  0  0  0  0
   -1.9044   -8.8215    1.4697 H   0  0  0  0  0  0  0  0  0  0  0  0
   -1.0739  -10.0715    4.0848 H   0  0  0  0  0  0  0  0  0  0  0  0
   -0.2235   -8.1305    5.4236 H   0  0  0  0  0  0  0  0  0  0  0  0
    4.3728  -11.3295    5.2695 H   0  0  0  0  0  0  0  0  0  0  0  0
    3.3792  -12.3646    3.9984 H   0  0  0  0  0  0  0  0  0  0  0  0
    1.7250  -12.2009    4.0750 H   0  0  0  0  0  0  0  0  0  0  0  0
    3.0986  -11.1633    2.0687 H   0  0  0  0  0  0  0  0  0  0  0  0
    1.4695  -10.6983    2.3870 H   0  0  0  0  0  0  0  0  0  0  0  0
    3.9786   -9.3492    2.4247 H   0  0  0  0  0  0  0  0  0  0  0  0
    2.7850   -7.0052    5.1206 H   0  0  0  0  0  0  0  0  0  0  0  0
    6.1859   -4.7571    5.4251 H   0  0  0  0  0  0  0  0  0  0  0  0
    5.7421   -1.8171    5.8014 H   0  0  0  0  0  0  0  0  0  0  0  0
    4.8548   -1.5638    7.2741 H   0  0  0  0  0  0  0  0  0  0  0  0
    4.0549   -1.3166    5.7834 H   0  0  0  0  0  0  0  0  0  0  0  0
    2.9625   -4.5885    8.7796 H   0  0  0  0  0  0  0  0  0  0  0  0
   -0.3965   -3.6013    8.9566 H   0  0  0  0  0  0  0  0  0  0  0  0
    0.9299   -2.5371    8.5048 H   0  0  0  0  0  0  0  0  0  0  0  0
    1.0954   -3.6390    9.8822 H   0  0  0  0  0  0  0  0  0  0  0  0
    2.9912   -7.3643    8.3985 H   0  0  0  0  0  0  0  0  0  0  0  0
    1.7304   -7.3902    7.3664 H   0  0  0  0  0  0  0  0  0  0  0  0
    2.6528   -8.5173    6.2073 H   0  0  0  0  0  0  0  0  0  0  0  0
    4.2948  -10.5294    7.0289 H   0  0  0  0  0  0  0  0  0  0  0  0
    2.1249  -10.9828    7.8353 H   0  0  0  0  0  0  0  0  0  0  0  0
    6.2624   -8.7141    6.3147 H   0  0  0  0  0  0  0  0  0  0  0  0
    5.5636   -8.9130    3.4140 H   0  0  0  0  0  0  0  0  0  0  0  0
    7.0435   -6.6948    4.4179 H   0  0  0  0  0  0  0  0  0  0  0  0
    7.6240   -8.5291    2.3914 H   0  0  0  0  0  0  0  0  0  0  0  0
    6.3684   -5.3600    2.8476 H   0  0  0  0  0  0  0  0  0  0  0  0
    8.8584   -5.9256    0.4048 H   0  0  0  0  0  0  0  0  0  0  0  0
    8.9357   -6.1434    2.1385 H   0  0  0  0  0  0  0  0  0  0  0  0
    8.1781   -4.7042    1.4789 H   0  0  0  0  0  0  0  0  0  0  0  0
    4.8650   -7.0170    0.5678 H   0  0  0  0  0  0  0  0  0  0  0  0
    3.3633   -5.5385    0.3040 H   0  0  0  0  0  0  0  0  0  0  0  0
    4.9879   -4.3249    1.6819 H   0  0  0  0  0  0  0  0  0  0  0  0
    3.5694   -2.7132    1.0569 H   0  0  0  0  0  0  0  0  0  0  0  0
    4.8885   -2.0230    2.3519 H   0  0  0  0  0  0  0  0  0  0  0  0
    3.3892   -1.3044    3.6035 H   0  0  0  0  0  0  0  0  0  0  0  0
    1.4551   -0.9659    6.1574 H   0  0  0  0  0  0  0  0  0  0  0  0
    0.0807   -1.1442    5.0361 H   0  0  0  0  0  0  0  0  0  0  0  0
    1.5321   -0.2714    4.5354 H   0  0  0  0  0  0  0  0  0  0  0  0
    0.7450   -3.2456    6.2120 H   0  0  0  0  0  0  0  0  0  0  0  0
    0.2279   -3.8193    4.7324 H   0  0  0  0  0  0  0  0  0  0  0  0
    1.0688   -5.5279    5.7073 H   0  0  0  0  0  0  0  0  0  0  0  0
    5.2320   -5.8340    6.6094 H   0  0  0  0  0  0  0  0  0  0  0  0
    4.8405   -6.9987    8.4123 H   0  0  0  0  0  0  0  0  0  0  0  0
    4.8577   -3.6450    8.3795 H   0  0  0  0  0  0  0  0  0  0  0  0
    7.0116   -4.5007    6.8136 H   0  0  0  0  0  0  0  0  0  0  0  0
  1  2  1  0
  1 58  1  0
  1 59  1  0
  1 60  1  0
  2  3  1  0
  2 61  1  0
  3  4  2  0
  3  5  1  0
  5 14  1  0
  5  6  1  1
  5  7  1  0
  6 62  1  0
  7  8  2  0
  7  9  1  0
  9 28  1  0
  9 10  1  6
  9 11  1  0
 10 63  1  0
 11 12  1  0
 11 64  1  0
 11 65  1  0
 12 13  1  0
 12 66  1  0
 12 67  1  0
 13 14  2  0
 13 68  1  0
 14 15  1  0
 15 30  1  0
 15 16  1  0
 15 69  1  1
 16 17  1  0
 17 44  1  0
 17 18  1  6
 17 19  1  0
 18 70  1  0
 19 56  1  0
 19 20  1  6
 19 21  1  0
 20 71  1  0
 20 72  1  0
 20 73  1  0
 21 22  1  0
 22 23  1  0
 22 25  1  0
 22 74  1  1
 23 24  1  0
 24 75  1  0
 24 76  1  0
 24 77  1  0
 25 51  1  0
 25 26  1  1
 25 54  1  0
 26 27  1  0
 26 78  1  0
 26 79  1  0
 27 28  1  0
 27 30  1  0
 27 80  1  1
 28 29  1  0
 28 81  1  1
 29 82  1  0
 30 31  1  1
 30 32  1  0
 31 83  1  0
 32 38  1  0
 32 33  1  0
 32 84  1  6
 33 34  1  0
 33 35  1  0
 33 85  1  1
 34 86  1  0
 35 36  1  0
 35 38  1  0
 35 87  1  1
 36 37  1  0
 37 88  1  0
 37 89  1  0
 37 90  1  0
 38 39  1  6
 38 40  1  0
 39 91  1  0
 52 40  1  6
 40 41  1  6
 40 42  1  0
 41 92  1  0
 42 43  1  0
 42 44  1  0
 42 93  1  6
 43 94  1  0
 44 45  1  6
 44 46  1  0
 45 95  1  0
 46 48  1  0
 46 47  1  0
 46 96  1  6
 47 48  1  0
 48 49  1  6
 48 50  1  0
 49 97  1  0
 49 98  1  0
 49 99  1  0
 50 51  1  0
 50100  1  0
 50101  1  0
 51 52  1  0
 51102  1  1
 52 53  2  0
 54 55  1  0
 54 56  1  0
 54103  1  6
 55104  1  0
 56 57  1  0
 56105  1  1
 57106  1  0
M  END
>  <i_m_ct_stereo_status>  (64) 
1

>  <s_m_source_file>  (64) 
/var/tmp/pbs.5075288.sched01/tmpq0rgj53d/65gxdktgdh.sdf

>  <i_m_source_file_index>  (64) 
8

>  <i_lp_mmshare_version>  (64) 
48012

>  <i_f3d_flags>  (64) 
0

>  <s_epik_input>  (64) 
W09IXVtDQEhdMVtDQEBIXShPW0NIM10pW0NAXShbT0hdKShbQ0BAXShbT0hdKShbUytdMltPLV0pW0NASF0zW09IXSlbQ0BIXTFbQ0BdNChbT0hdKVtDQEhdKFtDSDJdNSlbQ0BASF0oW09IXSlbQ0BdKFtPSF0pKEMoPU8pW0NAXTYoW09IXSlDKD1PKVtOSF1bQ0gzXSlbQ0gyXVtDSDJdW0NIXT1DNltDQEBIXTRPW0NAXShbT0hdKShbQ0BdKFtDSDNdKShbQ0BIXShbT0hdKVtDQEBIXTdbT0hdKU9bQ0BIXThPW0NIM10pW0NAXTMoW09IXSlbQ0BASF0oTzkpW0NAXTkoW0NIM10pW0NIMl1bQ0BASF0yQzU3OA==

>  <s_epik_cmdline>  (64) 
J2VwaWtfcHl0aG9uJywgJy1waHQnLCAnMi4wJywgJy1waCcsICc3LjAnLCAnLXRuJywgJzgnLCAnLW1hJywgJzIwMCcsICctaW1hZScsICc8aW5maWxlLm1hZT4nLCAnLW9tYWUnLCAnPG91dGZpbGUubWFlPic=

>  <r_lp_tautomer_probability>  (64) 
1

>  <r_epik_Ionization_Penalty>  (64) 
1.40957e-05

>  <r_epik_Ionization_Penalty_Charging>  (64) 
0

>  <r_epik_Ionization_Penalty_Neutral>  (64) 
1.40957e-05

>  <r_epik_State_Penalty>  (64) 
-0

>  <r_epik_Charging_Adjusted_Penalty>  (64) 
0

>  <i_epik_Tot_Q>  (64) 
0

>  <i_epik_Tot_abs_Q>  (64) 
2

>  <s_epik_Chemistry_Notes>  (64) 
This compound contains an acetal/aminal-like group ( X-CH(R)-Y where X, Y are N, S, or O) that may be acid/base labile, releasing an aldehyde.

>  <s_lp_Force_Field>  (64) 
OPLS3e

>  <r_lp_Energy>  (64) 
950.411

>  <b_lp_Chiralities_Consistent>  (64) 
1

>  <s_lp_Variant>  (64) 
14:0-25

>  <s_i_glide_gridfile>  (64) 
pfpi4k_grid

>  <i_i_glide_lignum>  (64) 
8

>  <i_i_glide_rotatable_bonds>  (64) 
16

>  <r_i_docking_score>  (64) 
-3.52269

>  <r_i_glide_ligand_efficiency>  (64) 
-0.0618016

>  <r_i_glide_ligand_efficiency_sa>  (64) 
-0.237843

>  <r_i_glide_ligand_efficiency_ln>  (64) 
-0.698524

>  <r_i_glide_gscore>  (64) 
-3.52269

>  <r_i_glide_lipo>  (64) 
-0.235796

>  <r_i_glide_hbond>  (64) 
-0.190469

>  <r_i_glide_metal>  (64) 
-0

>  <r_i_glide_rewards>  (64) 
-0.501878

>  <r_i_glide_evdw>  (64) 
-25.1767

>  <r_i_glide_ecoul>  (64) 
-8.08033

>  <r_i_glide_erotb>  (64) 
0.0313225

>  <r_i_glide_esite>  (64) 
-0.154984

>  <r_i_glide_emodel>  (64) 
-44.7773

>  <r_i_glide_energy>  (64) 
-33.2571

>  <r_i_glide_einternal>  (64) 
4.55108

>  <r_i_glide_intrahb_reward>  (64) 
-0.5

>  <i_i_glide_confnum>  (64) 
5

>  <i_i_glide_posenum>  (64) 
13

>  <r_i_glide_eff_state_penalty>  (64) 
0

>  <ligand_id>  (64) 
14

>  <original_smiles>  (64) 
CNC(=O)C1(O)C(=O)C2(O)CCC=C1C1OC3(O)C4(C)OC(OC)C5(CC(C2O)C1(O)C1C(O)C(OC)C1(O)C1(O)C(O)C3(O)C2OC2(C)CC5[S+]1[O-])C(O)C4O

>  <smiles>  (64) 
[H]OC1(C(=O)N([H])C([H])([H])[H])C(=O)C2(O[H])C([H])([H])C([H])([H])C([H])=C1C1([H])OC3(O[H])C4(C([H])([H])[H])OC([H])(OC([H])([H])[H])C5(C([H])([H])C([H])(C2([H])O[H])C1(O[H])C1([H])C([H])(O[H])C([H])(OC([H])([H])[H])C1(O[H])C1(O[H])S(=O)C5([H])C([H])([H])C2(C([H])([H])[H])OC2([H])C3(O[H])C1([H])O[H])C([H])(O[H])C4([H])O[H]

$$$$
14:24:1
     RDKit          3D

106114  0  0  1  0  0  0  0  0999 V2000
   -2.0167   -8.9915    2.3780 C   0  0  0  0  0  0  0  0  0  0  0  0
   -1.3667   -8.8989    3.6775 N   0  0  0  0  0  0  0  0  0  0  0  0
   -0.5904   -7.8372    4.0180 C   0  0  0  0  0  0  0  0  0  0  0  0
   -0.7804   -6.7565    3.4689 O   0  0  0  0  0  0  0  0  0  0  0  0
    0.6001   -8.0040    5.0257 C   0  0  1  0  0  0  0  0  0  0  0  0
    0.2964   -7.0005    5.9824 O   0  0  0  0  0  0  0  0  0  0  0  0
    0.4933   -9.3214    5.8647 C   0  0  0  0  0  0  0  0  0  0  0  0
   -0.4811   -9.4491    6.6222 O   0  0  0  0  0  0  0  0  0  0  0  0
    1.6745  -10.3732    6.0278 C   0  0  2  0  0  0  0  0  0  0  0  0
    2.9498  -10.3753    5.3986 O   0  0  0  0  0  0  0  0  0  0  0  0
    1.5172  -11.1630    4.6563 C   0  0  0  0  0  0  0  0  0  0  0  0
    1.4460  -10.2846    3.3099 C   0  0  0  0  0  0  0  0  0  0  0  0
    2.1471   -8.8907    3.3740 C   0  0  0  0  0  0  0  0  0  0  0  0
    2.0493   -7.8843    4.3312 C   0  0  0  0  0  0  0  0  0  0  0  0
    3.3499   -7.0226    5.1197 C   0  0  2  0  0  0  0  0  0  0  0  0
    4.3085   -5.7469    4.8912 O   0  0  0  0  0  0  0  0  0  0  0  0
    4.6971   -4.2656    5.1014 C   0  0  2  0  0  0  0  0  0  0  0  0
    6.0699   -4.3951    4.8823 O   0  0  0  0  0  0  0  0  0  0  0  0
    4.8132   -3.4681    6.6380 C   0  0  1  0  0  0  0  0  0  0  0  0
    5.4860   -2.0799    6.5336 C   0  0  0  0  0  0  0  0  0  0  0  0
    3.6266   -3.1925    7.4989 O   0  0  0  0  0  0  0  0  0  0  0  0
    3.0466   -4.2524    8.2971 C   0  0  1  0  0  0  0  0  0  0  0  0
    1.7298   -4.0356    8.7141 O   0  0  0  0  0  0  0  0  0  0  0  0
    1.3362   -4.7108    9.9063 C   0  0  0  0  0  0  0  0  0  0  0  0
    3.1485   -5.3873    7.3039 C   0  0  1  0  0  0  0  0  0  0  0  0
    2.8113   -6.9543    7.8118 C   0  0  0  0  0  0  0  0  0  0  0  0
    3.2867   -8.2827    6.8806 C   0  0  0  0  0  0  0  0  0  0  0  0
    2.7672   -9.7906    7.1191 C   0  0  1  0  0  0  0  0  0  0  0  0
    2.1114   -9.8176    8.3685 O   0  0  0  0  0  0  0  0  0  0  0  0
    4.3322   -8.0050    5.6044 C   0  0  2  0  0  0  0  0  0  0  0  0
    5.5466   -8.0744    6.3327 O   0  0  0  0  0  0  0  0  0  0  0  0
    4.7214   -8.0012    3.9811 C   0  0  2  0  0  0  0  0  0  0  0  0
    6.1838   -7.6518    3.6348 C   0  0  1  0  0  0  0  0  0  0  0  0
    7.0162   -8.7259    3.2309 O   0  0  0  0  0  0  0  0  0  0  0  0
    5.7842   -6.6173    2.5867 C   0  0  1  0  0  0  0  0  0  0  0  0
    6.3779   -6.8366    1.3004 O   0  0  0  0  0  0  0  0  0  0  0  0
    7.7099   -6.3341    1.2047 C   0  0  0  0  0  0  0  0  0  0  0  0
    4.2499   -6.8999    2.7242 C   0  0  1  0  0  0  0  0  0  0  0  0
    3.9412   -7.5744    1.5142 O   0  0  0  0  0  0  0  0  0  0  0  0
    3.1193   -5.5312    2.7183 C   0  0  2  0  0  0  0  0  0  0  0  0
    2.3600   -5.7218    1.5108 O   0  0  0  0  0  0  0  0  0  0  0  0
    3.8552   -4.1726    2.5329 C   0  0  1  0  0  0  0  0  0  0  0  0
    3.1785   -3.3397    1.6061 O   0  0  0  0  0  0  0  0  0  0  0  0
    4.2346   -3.3472    3.8419 C   0  0  2  0  0  0  0  0  0  0  0  0
    5.3529   -2.6478    3.2649 O   0  0  0  0  0  0  0  0  0  0  0  0
    3.4128   -2.0945    4.2124 C   0  0  1  0  0  0  0  0  0  0  0  0
    2.0496   -2.0318    3.8100 O   0  0  0  0  0  0  0  0  0  0  0  0
    2.2787   -1.9760    5.2225 C   0  0  2  0  0  0  0  0  0  0  0  0
    1.9749   -0.6170    5.8134 C   0  0  0  0  0  0  0  0  0  0  0  0
    1.5559   -3.0822    5.9921 C   0  0  0  0  0  0  0  0  0  0  0  0
    2.1241   -4.5756    5.9979 C   0  0  1  0  0  0  0  0  0  0  0  0
    1.7909   -5.0070    4.0844 S   0  0  0  0  0  0  0  0  0  0  0  0
    0.6128   -4.2228    3.5187 O   0  0  0  0  0  0  0  0  0  0  0  0
    4.7883   -5.5133    7.5707 C   0  0  2  0  0  0  0  0  0  0  0  0
    5.1679   -6.1792    8.7691 O   0  0  0  0  0  0  0  0  0  0  0  0
    5.6208   -4.2645    7.6251 C   0  0  1  0  0  0  0  0  0  0  0  0
    7.0433   -4.3577    7.4564 O   0  0  0  0  0  0  0  0  0  0  0  0
   -2.9700   -9.4736    2.4384 H   0  0  0  0  0  0  0  0  0  0  0  0
   -1.4104   -9.6499    1.7576 H   0  0  0  0  0  0  0  0  0  0  0  0
   -2.1264   -8.0425    1.8461 H   0  0  0  0  0  0  0  0  0  0  0  0
   -1.3189   -9.7701    4.2060 H   0  0  0  0  0  0  0  0  0  0  0  0
    0.9249   -7.0777    6.6805 H   0  0  0  0  0  0  0  0  0  0  0  0
    3.3422  -11.2155    5.6034 H   0  0  0  0  0  0  0  0  0  0  0  0
    2.1026  -12.0927    4.5301 H   0  0  0  0  0  0  0  0  0  0  0  0
    0.5185  -11.6023    4.7257 H   0  0  0  0  0  0  0  0  0  0  0  0
    1.9856  -10.8470    2.5462 H   0  0  0  0  0  0  0  0  0  0  0  0
    0.4302  -10.2676    2.8933 H   0  0  0  0  0  0  0  0  0  0  0  0
    3.0079   -9.1150    2.8171 H   0  0  0  0  0  0  0  0  0  0  0  0
    2.5351   -6.6932    5.6233 H   0  0  0  0  0  0  0  0  0  0  0  0
    6.3702   -5.0624    5.4651 H   0  0  0  0  0  0  0  0  0  0  0  0
    6.4164   -2.0968    5.9785 H   0  0  0  0  0  0  0  0  0  0  0  0
    5.7462   -1.7237    7.5225 H   0  0  0  0  0  0  0  0  0  0  0  0
    4.8397   -1.3137    6.1298 H   0  0  0  0  0  0  0  0  0  0  0  0
    3.6287   -4.3642    9.2178 H   0  0  0  0  0  0  0  0  0  0  0  0
    0.3096   -4.4414   10.1599 H   0  0  0  0  0  0  0  0  0  0  0  0
    1.9770   -4.4469   10.7497 H   0  0  0  0  0  0  0  0  0  0  0  0
    1.3518   -5.7934    9.7996 H   0  0  0  0  0  0  0  0  0  0  0  0
    3.0944   -7.1628    8.8453 H   0  0  0  0  0  0  0  0  0  0  0  0
    1.7273   -6.9737    7.9733 H   0  0  0  0  0  0  0  0  0  0  0  0
    2.2971   -8.1983    6.6750 H   0  0  0  0  0  0  0  0  0  0  0  0
    3.6138  -10.4468    7.3892 H   0  0  0  0  0  0  0  0  0  0  0  0
    1.8187  -10.7363    8.4610 H   0  0  0  0  0  0  0  0  0  0  0  0
    5.8186   -8.9814    6.3810 H   0  0  0  0  0  0  0  0  0  0  0  0
    4.7449   -9.0274    3.6274 H   0  0  0  0  0  0  0  0  0  0  0  0
    6.6862   -7.0935    4.4218 H   0  0  0  0  0  0  0  0  0  0  0  0
    6.6441   -9.0894    2.4406 H   0  0  0  0  0  0  0  0  0  0  0  0
    6.0639   -5.6401    2.9367 H   0  0  0  0  0  0  0  0  0  0  0  0
    8.1218   -6.5513    0.2213 H   0  0  0  0  0  0  0  0  0  0  0  0
    8.3725   -6.7936    1.9367 H   0  0  0  0  0  0  0  0  0  0  0  0
    7.7562   -5.2539    1.3530 H   0  0  0  0  0  0  0  0  0  0  0  0
    4.5081   -8.3201    1.4759 H   0  0  0  0  0  0  0  0  0  0  0  0
    2.9020   -5.4653    0.7763 H   0  0  0  0  0  0  0  0  0  0  0  0
    4.7504   -4.3754    1.9511 H   0  0  0  0  0  0  0  0  0  0  0  0
    3.7019   -2.5644    1.5013 H   0  0  0  0  0  0  0  0  0  0  0  0
    5.7463   -2.1153    3.9392 H   0  0  0  0  0  0  0  0  0  0  0  0
    3.9286   -1.1501    4.0340 H   0  0  0  0  0  0  0  0  0  0  0  0
    2.4048   -0.5324    6.8135 H   0  0  0  0  0  0  0  0  0  0  0  0
    0.8962   -0.4555    5.8632 H   0  0  0  0  0  0  0  0  0  0  0  0
    2.4066    0.1658    5.1891 H   0  0  0  0  0  0  0  0  0  0  0  0
    1.3406   -2.6674    6.9764 H   0  0  0  0  0  0  0  0  0  0  0  0
    0.5478   -3.1027    5.5698 H   0  0  0  0  0  0  0  0  0  0  0  0
    1.1939   -4.9422    6.4123 H   0  0  0  0  0  0  0  0  0  0  0  0
    5.3279   -5.9793    6.8056 H   0  0  0  0  0  0  0  0  0  0  0  0
    4.9748   -7.0972    8.6545 H   0  0  0  0  0  0  0  0  0  0  0  0
    5.5519   -3.7924    8.6018 H   0  0  0  0  0  0  0  0  0  0  0  0
    7.3135   -5.0076    6.8309 H   0  0  0  0  0  0  0  0  0  0  0  0
  1  2  1  0
  1 58  1  0
  1 59  1  0
  1 60  1  0
  2  3  1  0
  2 61  1  0
  3  4  2  0
  3  5  1  0
  5 14  1  0
  5  6  1  1
  5  7  1  0
  6 62  1  0
  7  8  2  0
  7  9  1  0
  9 28  1  0
  9 10  1  6
  9 11  1  0
 10 63  1  0
 11 12  1  0
 11 64  1  0
 11 65  1  0
 12 13  1  0
 12 66  1  0
 12 67  1  0
 13 14  2  0
 13 68  1  0
 14 15  1  0
 15 30  1  0
 15 16  1  0
 15 69  1  1
 16 17  1  0
 17 44  1  0
 17 18  1  6
 17 19  1  0
 18 70  1  0
 19 56  1  0
 19 20  1  6
 19 21  1  0
 20 71  1  0
 20 72  1  0
 20 73  1  0
 21 22  1  0
 22 23  1  0
 22 25  1  0
 22 74  1  1
 23 24  1  0
 24 75  1  0
 24 76  1  0
 24 77  1  0
 25 51  1  0
 25 26  1  1
 25 54  1  0
 26 27  1  0
 26 78  1  0
 26 79  1  0
 27 28  1  0
 27 30  1  0
 27 80  1  0
 28 29  1  0
 28 81  1  1
 29 82  1  0
 30 31  1  1
 30 32  1  0
 31 83  1  0
 32 38  1  0
 32 33  1  0
 32 84  1  6
 33 34  1  0
 33 35  1  0
 33 85  1  1
 34 86  1  0
 35 36  1  0
 35 38  1  0
 35 87  1  1
 36 37  1  0
 37 88  1  0
 37 89  1  0
 37 90  1  0
 38 39  1  6
 38 40  1  0
 39 91  1  0
 52 40  1  6
 40 41  1  6
 40 42  1  0
 41 92  1  0
 42 43  1  0
 42 44  1  0
 42 93  1  6
 43 94  1  0
 44 45  1  6
 44 46  1  0
 45 95  1  0
 46 48  1  0
 46 47  1  0
 46 96  1  6
 47 48  1  0
 48 49  1  1
 48 50  1  0
 49 97  1  0
 49 98  1  0
 49 99  1  0
 50 51  1  0
 50100  1  0
 50101  1  0
 51 52  1  0
 51102  1  1
 52 53  2  0
 54 55  1  0
 54 56  1  0
 54103  1  6
 55104  1  0
 56 57  1  0
 56105  1  1
 57106  1  0
M  END
>  <i_m_ct_stereo_status>  (65) 
1

>  <s_m_source_file>  (65) 
/var/tmp/pbs.5075288.sched01/tmpq0rgj53d/65gxdktgdh.sdf

>  <i_m_source_file_index>  (65) 
8

>  <i_lp_mmshare_version>  (65) 
48012

>  <i_f3d_flags>  (65) 
0

>  <s_epik_input>  (65) 
W09IXVtDQEhdMVtDQEBIXShPW0NIM10pW0NAXShbT0hdKShbQ0BAXShbT0hdKShbUytdMltPLV0pW0NASF0zW09IXSlbQ0BIXTFbQ0BdNChbT0hdKVtDQEhdKFtDSDJdNSlbQ0BASF0oW09IXSlbQ0BdKFtPSF0pKEMoPU8pW0NAXTYoW09IXSlDKD1PKVtOSF1bQ0gzXSlbQ0gyXVtDSDJdW0NIXT1DNltDQEBIXTRPW0NAXShbT0hdKShbQ0BdKFtDSDNdKShbQ0BIXShbT0hdKVtDQEBIXTdbT0hdKU9bQ0BIXThPW0NIM10pW0NAXTMoW09IXSlbQ0BASF0oTzkpW0NAXTkoW0NIM10pW0NIMl1bQ0BASF0yQzU3OA==

>  <s_epik_cmdline>  (65) 
J2VwaWtfcHl0aG9uJywgJy1waHQnLCAnMi4wJywgJy1waCcsICc3LjAnLCAnLXRuJywgJzgnLCAnLW1hJywgJzIwMCcsICctaW1hZScsICc8aW5maWxlLm1hZT4nLCAnLW9tYWUnLCAnPG91dGZpbGUubWFlPic=

>  <r_lp_tautomer_probability>  (65) 
1

>  <r_epik_Ionization_Penalty>  (65) 
1.40957e-05

>  <r_epik_Ionization_Penalty_Charging>  (65) 
0

>  <r_epik_Ionization_Penalty_Neutral>  (65) 
1.40957e-05

>  <r_epik_State_Penalty>  (65) 
-0

>  <r_epik_Charging_Adjusted_Penalty>  (65) 
0

>  <i_epik_Tot_Q>  (65) 
0

>  <i_epik_Tot_abs_Q>  (65) 
2

>  <s_epik_Chemistry_Notes>  (65) 
This compound contains an acetal/aminal-like group ( X-CH(R)-Y where X, Y are N, S, or O) that may be acid/base labile, releasing an aldehyde.

>  <s_lp_Force_Field>  (65) 
OPLS3e

>  <r_lp_Energy>  (65) 
950.411

>  <b_lp_Chiralities_Consistent>  (65) 
1

>  <s_lp_Variant>  (65) 
14:0-25

>  <s_i_glide_gridfile>  (65) 
pfpi4k_grid

>  <i_i_glide_lignum>  (65) 
8

>  <i_i_glide_rotatable_bonds>  (65) 
16

>  <r_i_docking_score>  (65) 
-3.37834

>  <r_i_glide_ligand_efficiency>  (65) 
-0.0592691

>  <r_i_glide_ligand_efficiency_sa>  (65) 
-0.228097

>  <r_i_glide_ligand_efficiency_ln>  (65) 
-0.669899

>  <r_i_glide_gscore>  (65) 
-3.37834

>  <r_i_glide_lipo>  (65) 
-0.405781

>  <r_i_glide_hbond>  (65) 
-0.278633

>  <r_i_glide_metal>  (65) 
-0

>  <r_i_glide_rewards>  (65) 
-0.0017245

>  <r_i_glide_evdw>  (65) 
-27.6909

>  <r_i_glide_ecoul>  (65) 
-7.52743

>  <r_i_glide_erotb>  (65) 
0.0313225

>  <r_i_glide_esite>  (65) 
-0.209862

>  <r_i_glide_emodel>  (65) 
-39.0993

>  <r_i_glide_energy>  (65) 
-35.2183

>  <r_i_glide_einternal>  (65) 
9.53186

>  <r_i_glide_intrahb_reward>  (65) 
-0

>  <i_i_glide_confnum>  (65) 
5

>  <i_i_glide_posenum>  (65) 
8

>  <r_i_glide_eff_state_penalty>  (65) 
0

>  <ligand_id>  (65) 
14

>  <original_smiles>  (65) 
CNC(=O)C1(O)C(=O)C2(O)CCC=C1C1OC3(O)C4(C)OC(OC)C5(CC(C2O)C1(O)C1C(O)C(OC)C1(O)C1(O)C(O)C3(O)C2OC2(C)CC5[S+]1[O-])C(O)C4O

>  <smiles>  (65) 
[H]OC1(C(=O)N([H])C([H])([H])[H])C(=O)C2(O[H])C([H])([H])C([H])([H])C([H])=C1C1([H])OC3(O[H])C4(C([H])([H])[H])OC([H])(OC([H])([H])[H])C5(C([H])([H])C([H])(C2([H])O[H])C1(O[H])C1([H])C([H])(O[H])C([H])(OC([H])([H])[H])C1(O[H])C1(O[H])S(=O)C5([H])C([H])([H])C2(C([H])([H])[H])OC2([H])C3(O[H])C1([H])O[H])C([H])(O[H])C4([H])O[H]

$$$$
14:24:2
     RDKit          3D

106114  0  0  1  0  0  0  0  0999 V2000
   -1.9702   -9.0350    2.4045 C   0  0  0  0  0  0  0  0  0  0  0  0
   -1.3645   -8.8634    3.7161 N   0  0  0  0  0  0  0  0  0  0  0  0
   -0.6016   -7.7916    4.0608 C   0  0  0  0  0  0  0  0  0  0  0  0
   -0.7643   -6.7340    3.4703 O   0  0  0  0  0  0  0  0  0  0  0  0
    0.5460   -7.9141    5.1374 C   0  0  1  0  0  0  0  0  0  0  0  0
    0.1904   -6.8812    6.0440 O   0  0  0  0  0  0  0  0  0  0  0  0
    0.4356   -9.2245    6.0076 C   0  0  0  0  0  0  0  0  0  0  0  0
   -0.5841   -9.4425    6.6559 O   0  0  0  0  0  0  0  0  0  0  0  0
    1.6343  -10.2240    6.2641 C   0  0  2  0  0  0  0  0  0  0  0  0
    2.9272  -10.2072    5.6825 O   0  0  0  0  0  0  0  0  0  0  0  0
    1.5367  -11.0433    4.9031 C   0  0  0  0  0  0  0  0  0  0  0  0
    1.4961  -10.1992    3.5348 C   0  0  0  0  0  0  0  0  0  0  0  0
    2.1840   -8.7995    3.5831 C   0  0  0  0  0  0  0  0  0  0  0  0
    2.0258   -7.7719    4.5045 C   0  0  0  0  0  0  0  0  0  0  0  0
    3.2862   -6.8518    5.3116 C   0  0  2  0  0  0  0  0  0  0  0  0
    4.2286   -5.5709    5.0673 O   0  0  0  0  0  0  0  0  0  0  0  0
    4.5912   -4.0803    5.2384 C   0  0  2  0  0  0  0  0  0  0  0  0
    5.9718   -4.2125    5.0742 O   0  0  0  0  0  0  0  0  0  0  0  0
    4.6269   -3.2221    6.7437 C   0  0  1  0  0  0  0  0  0  0  0  0
    5.2882   -1.8241    6.6182 C   0  0  0  0  0  0  0  0  0  0  0  0
    3.4018   -2.9281    7.5470 O   0  0  0  0  0  0  0  0  0  0  0  0
    2.7923   -3.9656    8.3586 C   0  0  1  0  0  0  0  0  0  0  0  0
    1.4533   -3.7868    8.6898 O   0  0  0  0  0  0  0  0  0  0  0  0
    1.2155   -2.6954    9.5699 C   0  0  0  0  0  0  0  0  0  0  0  0
    2.9573   -5.1353    7.4188 C   0  0  1  0  0  0  0  0  0  0  0  0
    2.6169   -6.6842    7.9795 C   0  0  0  0  0  0  0  0  0  0  0  0
    3.1452   -8.0484    7.1136 C   0  0  0  0  0  0  0  0  0  0  0  0
    2.6560   -9.5642    7.3817 C   0  0  1  0  0  0  0  0  0  0  0  0
    1.9468   -9.5590    8.6083 O   0  0  0  0  0  0  0  0  0  0  0  0
    4.2551   -7.8062    5.8682 C   0  0  2  0  0  0  0  0  0  0  0  0
    5.4446   -7.8256    6.6403 O   0  0  0  0  0  0  0  0  0  0  0  0
    4.7170   -7.8459    4.2612 C   0  0  2  0  0  0  0  0  0  0  0  0
    6.1896   -7.4847    3.9587 C   0  0  1  0  0  0  0  0  0  0  0  0
    7.0581   -8.5520    3.6247 O   0  0  0  0  0  0  0  0  0  0  0  0
    5.8138   -6.4916    2.8589 C   0  0  1  0  0  0  0  0  0  0  0  0
    6.4650   -6.7381    1.6070 O   0  0  0  0  0  0  0  0  0  0  0  0
    7.7997   -6.2288    1.5511 C   0  0  0  0  0  0  0  0  0  0  0  0
    4.2833   -6.8010    2.9407 C   0  0  1  0  0  0  0  0  0  0  0  0
    4.0396   -7.5248    1.7412 O   0  0  0  0  0  0  0  0  0  0  0  0
    3.1379   -5.4518    2.8421 C   0  0  2  0  0  0  0  0  0  0  0  0
    2.4131   -5.7074    1.6280 O   0  0  0  0  0  0  0  0  0  0  0  0
    3.8564   -4.0768    2.6292 C   0  0  1  0  0  0  0  0  0  0  0  0
    3.1714   -3.2959    1.6507 O   0  0  0  0  0  0  0  0  0  0  0  0
    4.1781   -3.2118    3.9297 C   0  0  2  0  0  0  0  0  0  0  0  0
    5.3241   -2.5180    3.4100 O   0  0  0  0  0  0  0  0  0  0  0  0
    3.3139   -1.9582    4.2196 C   0  0  1  0  0  0  0  0  0  0  0  0
    1.9730   -1.9250    3.7525 O   0  0  0  0  0  0  0  0  0  0  0  0
    2.1287   -1.8219    5.1673 C   0  0  2  0  0  0  0  0  0  0  0  0
    1.7788   -0.4470    5.7069 C   0  0  0  0  0  0  0  0  0  0  0  0
    1.3880   -2.9153    5.9442 C   0  0  0  0  0  0  0  0  0  0  0  0
    1.9883   -4.3934    6.0388 C   0  0  1  0  0  0  0  0  0  0  0  0
    1.7511   -4.9131    4.1377 S   0  0  0  0  0  0  0  0  0  0  0  0
    0.6204   -4.1471    3.4707 O   0  0  0  0  0  0  0  0  0  0  0  0
    4.5840   -5.2317    7.7581 C   0  0  2  0  0  0  0  0  0  0  0  0
    4.9389   -5.8572    8.9876 O   0  0  0  0  0  0  0  0  0  0  0  0
    5.3978   -3.9683    7.8000 C   0  0  1  0  0  0  0  0  0  0  0  0
    6.8245   -4.0641    7.7055 O   0  0  0  0  0  0  0  0  0  0  0  0
   -2.9786   -9.4492    2.4529 H   0  0  0  0  0  0  0  0  0  0  0  0
   -1.3687   -9.7563    1.8512 H   0  0  0  0  0  0  0  0  0  0  0  0
   -1.9902   -8.1266    1.8033 H   0  0  0  0  0  0  0  0  0  0  0  0
   -1.3411   -9.6990    4.2983 H   0  0  0  0  0  0  0  0  0  0  0  0
    0.8114   -6.8822    6.7573 H   0  0  0  0  0  0  0  0  0  0  0  0
    3.3308  -11.0342    5.9177 H   0  0  0  0  0  0  0  0  0  0  0  0
    2.1322  -11.9652    4.8116 H   0  0  0  0  0  0  0  0  0  0  0  0
    0.5444  -11.5009    4.9430 H   0  0  0  0  0  0  0  0  0  0  0  0
    2.0305  -10.7822    2.7845 H   0  0  0  0  0  0  0  0  0  0  0  0
    0.4973  -10.1897    3.0998 H   0  0  0  0  0  0  0  0  0  0  0  0
    3.0664   -9.0276    3.0599 H   0  0  0  0  0  0  0  0  0  0  0  0
    2.4491   -6.5151    5.7689 H   0  0  0  0  0  0  0  0  0  0  0  0
    6.2647   -4.8105    5.7338 H   0  0  0  0  0  0  0  0  0  0  0  0
    6.2292   -1.8374    6.0760 H   0  0  0  0  0  0  0  0  0  0  0  0
    5.5050   -1.4270    7.6104 H   0  0  0  0  0  0  0  0  0  0  0  0
    4.6409   -1.0805    6.1704 H   0  0  0  0  0  0  0  0  0  0  0  0
    3.2941   -4.0804    9.3241 H   0  0  0  0  0  0  0  0  0  0  0  0
    0.1423   -2.5903    9.7293 H   0  0  0  0  0  0  0  0  0  0  0  0
    1.5777   -1.7556    9.1537 H   0  0  0  0  0  0  0  0  0  0  0  0
    1.6801   -2.8501   10.5426 H   0  0  0  0  0  0  0  0  0  0  0  0
    2.8661   -6.8363    9.0287 H   0  0  0  0  0  0  0  0  0  0  0  0
    1.5328   -6.7008    8.1230 H   0  0  0  0  0  0  0  0  0  0  0  0
    2.1573   -7.9840    6.8699 H   0  0  0  0  0  0  0  0  0  0  0  0
    3.5086  -10.1899    7.7059 H   0  0  0  0  0  0  0  0  0  0  0  0
    1.6692  -10.4583    8.7485 H   0  0  0  0  0  0  0  0  0  0  0  0
    5.7276   -8.7264    6.7276 H   0  0  0  0  0  0  0  0  0  0  0  0
    4.7647   -8.8887    3.9512 H   0  0  0  0  0  0  0  0  0  0  0  0
    6.6560   -6.8946    4.7474 H   0  0  0  0  0  0  0  0  0  0  0  0
    6.7266   -8.9505    2.8341 H   0  0  0  0  0  0  0  0  0  0  0  0
    6.0619   -5.4928    3.1704 H   0  0  0  0  0  0  0  0  0  0  0  0
    8.2478   -6.4751    0.5907 H   0  0  0  0  0  0  0  0  0  0  0  0
    8.4331   -6.6624    2.3228 H   0  0  0  0  0  0  0  0  0  0  0  0
    7.8374   -5.1443    1.6633 H   0  0  0  0  0  0  0  0  0  0  0  0
    4.6215   -8.2644    1.7458 H   0  0  0  0  0  0  0  0  0  0  0  0
    2.9674   -5.4713    0.8990 H   0  0  0  0  0  0  0  0  0  0  0  0
    4.7711   -4.2928    2.0839 H   0  0  0  0  0  0  0  0  0  0  0  0
    3.6708   -2.5220    1.4545 H   0  0  0  0  0  0  0  0  0  0  0  0
    5.0660   -1.9746    2.6858 H   0  0  0  0  0  0  0  0  0  0  0  0
    3.8261   -1.0099    4.0502 H   0  0  0  0  0  0  0  0  0  0  0  0
    2.1654   -0.3228    6.7196 H   0  0  0  0  0  0  0  0  0  0  0  0
    0.6995   -0.2979    5.7074 H   0  0  0  0  0  0  0  0  0  0  0  0
    2.2250    0.3267    5.0780 H   0  0  0  0  0  0  0  0  0  0  0  0
    1.1252   -2.4741    6.8970 H   0  0  0  0  0  0  0  0  0  0  0  0
    0.3995   -2.9736    5.4870 H   0  0  0  0  0  0  0  0  0  0  0  0
    1.0470   -4.7688    6.4195 H   0  0  0  0  0  0  0  0  0  0  0  0
    5.1592   -5.7224    7.0300 H   0  0  0  0  0  0  0  0  0  0  0  0
    4.7533   -6.7819    8.9017 H   0  0  0  0  0  0  0  0  0  0  0  0
    5.2784   -3.4623    8.7593 H   0  0  0  0  0  0  0  0  0  0  0  0
    7.1224   -4.6671    7.0451 H   0  0  0  0  0  0  0  0  0  0  0  0
  1  2  1  0
  1 58  1  0
  1 59  1  0
  1 60  1  0
  2  3  1  0
  2 61  1  0
  3  4  2  0
  3  5  1  0
  5 14  1  0
  5  6  1  1
  5  7  1  0
  6 62  1  0
  7  8  2  0
  7  9  1  0
  9 28  1  0
  9 10  1  6
  9 11  1  0
 10 63  1  0
 11 12  1  0
 11 64  1  0
 11 65  1  0
 12 13  1  0
 12 66  1  0
 12 67  1  0
 13 14  2  0
 13 68  1  0
 14 15  1  0
 15 30  1  0
 15 16  1  0
 15 69  1  1
 16 17  1  0
 17 44  1  0
 17 18  1  6
 17 19  1  0
 18 70  1  0
 19 56  1  0
 19 20  1  6
 19 21  1  0
 20 71  1  0
 20 72  1  0
 20 73  1  0
 21 22  1  0
 22 23  1  0
 22 25  1  0
 22 74  1  1
 23 24  1  0
 24 75  1  0
 24 76  1  0
 24 77  1  0
 25 51  1  0
 25 26  1  1
 25 54  1  0
 26 27  1  0
 26 78  1  0
 26 79  1  0
 27 28  1  0
 27 30  1  0
 27 80  1  0
 28 29  1  0
 28 81  1  1
 29 82  1  0
 30 31  1  1
 30 32  1  0
 31 83  1  0
 32 38  1  0
 32 33  1  0
 32 84  1  6
 33 34  1  0
 33 35  1  0
 33 85  1  1
 34 86  1  0
 35 36  1  0
 35 38  1  0
 35 87  1  1
 36 37  1  0
 37 88  1  0
 37 89  1  0
 37 90  1  0
 38 39  1  6
 38 40  1  0
 39 91  1  0
 52 40  1  6
 40 41  1  6
 40 42  1  0
 41 92  1  0
 42 43  1  0
 42 44  1  0
 42 93  1  6
 43 94  1  0
 44 45  1  6
 44 46  1  0
 45 95  1  0
 46 48  1  0
 46 47  1  0
 46 96  1  6
 47 48  1  0
 48 49  1  1
 48 50  1  0
 49 97  1  0
 49 98  1  0
 49 99  1  0
 50 51  1  0
 50100  1  0
 50101  1  0
 51 52  1  0
 51102  1  1
 52 53  2  0
 54 55  1  0
 54 56  1  0
 54103  1  6
 55104  1  0
 56 57  1  0
 56105  1  1
 57106  1  0
M  END
>  <i_m_ct_stereo_status>  (66) 
1

>  <s_m_source_file>  (66) 
/var/tmp/pbs.5075288.sched01/tmpq0rgj53d/65gxdktgdh.sdf

>  <i_m_source_file_index>  (66) 
8

>  <i_lp_mmshare_version>  (66) 
48012

>  <i_f3d_flags>  (66) 
0

>  <s_epik_input>  (66) 
W09IXVtDQEhdMVtDQEBIXShPW0NIM10pW0NAXShbT0hdKShbQ0BAXShbT0hdKShbUytdMltPLV0pW0NASF0zW09IXSlbQ0BIXTFbQ0BdNChbT0hdKVtDQEhdKFtDSDJdNSlbQ0BASF0oW09IXSlbQ0BdKFtPSF0pKEMoPU8pW0NAXTYoW09IXSlDKD1PKVtOSF1bQ0gzXSlbQ0gyXVtDSDJdW0NIXT1DNltDQEBIXTRPW0NAXShbT0hdKShbQ0BdKFtDSDNdKShbQ0BIXShbT0hdKVtDQEBIXTdbT0hdKU9bQ0BIXThPW0NIM10pW0NAXTMoW09IXSlbQ0BASF0oTzkpW0NAXTkoW0NIM10pW0NIMl1bQ0BASF0yQzU3OA==

>  <s_epik_cmdline>  (66) 
J2VwaWtfcHl0aG9uJywgJy1waHQnLCAnMi4wJywgJy1waCcsICc3LjAnLCAnLXRuJywgJzgnLCAnLW1hJywgJzIwMCcsICctaW1hZScsICc8aW5maWxlLm1hZT4nLCAnLW9tYWUnLCAnPG91dGZpbGUubWFlPic=

>  <r_lp_tautomer_probability>  (66) 
1

>  <r_epik_Ionization_Penalty>  (66) 
1.40957e-05

>  <r_epik_Ionization_Penalty_Charging>  (66) 
0

>  <r_epik_Ionization_Penalty_Neutral>  (66) 
1.40957e-05

>  <r_epik_State_Penalty>  (66) 
-0

>  <r_epik_Charging_Adjusted_Penalty>  (66) 
0

>  <i_epik_Tot_Q>  (66) 
0

>  <i_epik_Tot_abs_Q>  (66) 
2

>  <s_epik_Chemistry_Notes>  (66) 
This compound contains an acetal/aminal-like group ( X-CH(R)-Y where X, Y are N, S, or O) that may be acid/base labile, releasing an aldehyde.

>  <s_lp_Force_Field>  (66) 
OPLS3e

>  <r_lp_Energy>  (66) 
950.411

>  <b_lp_Chiralities_Consistent>  (66) 
1

>  <s_lp_Variant>  (66) 
14:0-25

>  <s_i_glide_gridfile>  (66) 
pfpi4k_grid

>  <i_i_glide_lignum>  (66) 
8

>  <i_i_glide_rotatable_bonds>  (66) 
16

>  <r_i_docking_score>  (66) 
-3.17362

>  <r_i_glide_ligand_efficiency>  (66) 
-0.0556776

>  <r_i_glide_ligand_efficiency_sa>  (66) 
-0.214275

>  <r_i_glide_ligand_efficiency_ln>  (66) 
-0.629306

>  <r_i_glide_gscore>  (66) 
-3.17362

>  <r_i_glide_lipo>  (66) 
-0.348914

>  <r_i_glide_hbond>  (66) 
-0.290299

>  <r_i_glide_metal>  (66) 
-0

>  <r_i_glide_rewards>  (66) 
-0.00334656

>  <r_i_glide_evdw>  (66) 
-28.1103

>  <r_i_glide_ecoul>  (66) 
-6.33403

>  <r_i_glide_erotb>  (66) 
0.0313225

>  <r_i_glide_esite>  (66) 
-0.206767

>  <r_i_glide_emodel>  (66) 
-39.7026

>  <r_i_glide_energy>  (66) 
-34.4443

>  <r_i_glide_einternal>  (66) 
6.35481

>  <r_i_glide_intrahb_reward>  (66) 
-0

>  <i_i_glide_confnum>  (66) 
2

>  <i_i_glide_posenum>  (66) 
4

>  <r_i_glide_eff_state_penalty>  (66) 
0

>  <ligand_id>  (66) 
14

>  <original_smiles>  (66) 
CNC(=O)C1(O)C(=O)C2(O)CCC=C1C1OC3(O)C4(C)OC(OC)C5(CC(C2O)C1(O)C1C(O)C(OC)C1(O)C1(O)C(O)C3(O)C2OC2(C)CC5[S+]1[O-])C(O)C4O

>  <smiles>  (66) 
[H]OC1(C(=O)N([H])C([H])([H])[H])C(=O)C2(O[H])C([H])([H])C([H])([H])C([H])=C1C1([H])OC3(O[H])C4(C([H])([H])[H])OC([H])(OC([H])([H])[H])C5(C([H])([H])C([H])(C2([H])O[H])C1(O[H])C1([H])C([H])(O[H])C([H])(OC([H])([H])[H])C1(O[H])C1(O[H])S(=O)C5([H])C([H])([H])C2(C([H])([H])[H])OC2([H])C3(O[H])C1([H])O[H])C([H])(O[H])C4([H])O[H]

$$$$
14:26:0
     RDKit          3D

106114  0  0  1  0  0  0  0  0999 V2000
    6.9960   -9.9284    4.0098 C   0  0  0  0  0  0  0  0  0  0  0  0
    6.6792   -8.6773    3.3438 N   0  0  0  0  0  0  0  0  0  0  0  0
    6.8071   -7.4410    3.8809 C   0  0  0  0  0  0  0  0  0  0  0  0
    7.2727   -7.2874    5.0050 O   0  0  0  0  0  0  0  0  0  0  0  0
    6.4229   -6.1655    3.0697 C   0  0  1  0  0  0  0  0  0  0  0  0
    7.7309   -5.6300    2.8910 O   0  0  0  0  0  0  0  0  0  0  0  0
    5.9356   -6.3361    1.6086 C   0  0  0  0  0  0  0  0  0  0  0  0
    6.4940   -7.1919    0.9175 O   0  0  0  0  0  0  0  0  0  0  0  0
    4.9377   -5.3277    0.9260 C   0  0  2  0  0  0  0  0  0  0  0  0
    5.1441   -5.5092   -0.4681 O   0  0  0  0  0  0  0  0  0  0  0  0
    5.4003   -3.7970    1.0361 C   0  0  0  0  0  0  0  0  0  0  0  0
    6.1956   -3.2714    2.2476 C   0  0  0  0  0  0  0  0  0  0  0  0
    5.7363   -3.8186    3.5804 C   0  0  0  0  0  0  0  0  0  0  0  0
    5.5064   -5.1327    3.7787 C   0  0  0  0  0  0  0  0  0  0  0  0
    4.1933   -5.5041    4.5508 C   0  0  2  0  0  0  0  0  0  0  0  0
    4.4081   -6.9071    5.0818 O   0  0  0  0  0  0  0  0  0  0  0  0
    3.9023   -7.9737    6.0189 C   0  0  2  0  0  0  0  0  0  0  0  0
    5.0549   -8.1981    6.7914 O   0  0  0  0  0  0  0  0  0  0  0  0
    3.6768   -9.4642    5.1492 C   0  0  2  0  0  0  0  0  0  0  0  0
    3.9735  -10.5563    6.2620 C   0  0  0  0  0  0  0  0  0  0  0  0
    2.5863   -8.7950    4.9348 O   0  0  0  0  0  0  0  0  0  0  0  0
    2.5436   -7.9970    3.8010 C   0  0  1  0  0  0  0  0  0  0  0  0
    3.6576   -8.0290    2.8789 O   0  0  0  0  0  0  0  0  0  0  0  0
    4.0510   -9.1041    2.0054 C   0  0  0  0  0  0  0  0  0  0  0  0
    1.2069   -8.2127    3.3369 C   0  0  2  0  0  0  0  0  0  0  0  0
    1.3272   -7.0810    2.1914 C   0  0  0  0  0  0  0  0  0  0  0  0
    2.3468   -5.7501    2.2889 C   0  0  2  0  0  0  0  0  0  0  0  0
    3.3584   -5.7210    1.0061 C   0  0  1  0  0  0  0  0  0  0  0  0
    2.6705   -4.9531    0.0183 O   0  0  0  0  0  0  0  0  0  0  0  0
    2.8528   -4.9449    3.6601 C   0  0  2  0  0  0  0  0  0  0  0  0
    3.2032   -3.8269    2.8770 O   0  0  0  0  0  0  0  0  0  0  0  0
    1.8178   -3.9106    4.3826 C   0  0  2  0  0  0  0  0  0  0  0  0
    2.3504   -2.5696    4.9998 C   0  0  1  0  0  0  0  0  0  0  0  0
    1.8363   -1.3558    4.4821 O   0  0  0  0  0  0  0  0  0  0  0  0
    1.8937   -3.0327    6.3731 C   0  0  1  0  0  0  0  0  0  0  0  0
    1.3201   -1.9663    7.1228 O   0  0  0  0  0  0  0  0  0  0  0  0
    1.0064   -2.2988    8.4656 C   0  0  0  0  0  0  0  0  0  0  0  0
    0.9139   -4.0359    5.6905 C   0  0  1  0  0  0  0  0  0  0  0  0
   -0.3549   -3.4092    5.5195 O   0  0  0  0  0  0  0  0  0  0  0  0
    0.6087   -5.4601    6.3141 C   0  0  2  0  0  0  0  0  0  0  0  0
   -0.2769   -5.2701    7.4013 O   0  0  0  0  0  0  0  0  0  0  0  0
    2.0057   -6.0497    6.9553 C   0  0  1  0  0  0  0  0  0  0  0  0
    2.1037   -5.3728    8.2252 O   0  0  0  0  0  0  0  0  0  0  0  0
    2.6547   -7.5357    7.0996 C   0  0  2  0  0  0  0  0  0  0  0  0
    3.2634   -7.5170    8.4028 O   0  0  0  0  0  0  0  0  0  0  0  0
    1.6342   -8.6631    7.4999 C   0  0  1  0  0  0  0  0  0  0  0  0
    0.3387   -8.1647    7.8560 O   0  0  0  0  0  0  0  0  0  0  0  0
    0.3384   -9.2260    6.8916 C   0  0  2  0  0  0  0  0  0  0  0  0
   -0.1954  -10.5119    7.3931 C   0  0  0  0  0  0  0  0  0  0  0  0
   -0.3751   -8.9626    5.5447 C   0  0  0  0  0  0  0  0  0  0  0  0
    0.2876   -7.9160    4.6595 C   0  0  2  0  0  0  0  0  0  0  0  0
   -0.4544   -6.2764    4.9508 S   0  0  0  0  0  0  0  0  0  0  0  0
   -0.1523   -5.5526    3.6947 O   0  0  0  0  0  0  0  0  0  0  0  0
    1.4413   -9.7837    3.1252 C   0  0  2  0  0  0  0  0  0  0  0  0
    0.2418  -10.5111    2.9430 O   0  0  0  0  0  0  0  0  0  0  0  0
    2.4291  -10.3857    4.3531 C   0  0  1  0  0  0  0  0  0  0  0  0
    3.0012  -11.5544    3.7773 O   0  0  0  0  0  0  0  0  0  0  0  0
    7.9520  -10.3115    3.6525 H   0  0  0  0  0  0  0  0  0  0  0  0
    6.2326  -10.6736    3.7801 H   0  0  0  0  0  0  0  0  0  0  0  0
    7.0457   -9.8374    5.0950 H   0  0  0  0  0  0  0  0  0  0  0  0
    6.3403   -8.7295    2.3968 H   0  0  0  0  0  0  0  0  0  0  0  0
    8.1362   -5.5548    3.7448 H   0  0  0  0  0  0  0  0  0  0  0  0
    4.5466   -4.9501   -0.9492 H   0  0  0  0  0  0  0  0  0  0  0  0
    6.0340   -3.5291    0.1856 H   0  0  0  0  0  0  0  0  0  0  0  0
    4.5313   -3.1497    0.8918 H   0  0  0  0  0  0  0  0  0  0  0  0
    7.2754   -3.4585    2.0643 H   0  0  0  0  0  0  0  0  0  0  0  0
    6.1361   -2.1826    2.2943 H   0  0  0  0  0  0  0  0  0  0  0  0
    5.1938   -3.0875    4.1493 H   0  0  0  0  0  0  0  0  0  0  0  0
    4.3059   -4.8372    5.3998 H   0  0  0  0  0  0  0  0  0  0  0  0
    5.1921   -7.4393    7.3484 H   0  0  0  0  0  0  0  0  0  0  0  0
    5.0198  -10.8516    6.1896 H   0  0  0  0  0  0  0  0  0  0  0  0
    3.4188  -11.4943    6.1977 H   0  0  0  0  0  0  0  0  0  0  0  0
    3.8159  -10.2314    7.2839 H   0  0  0  0  0  0  0  0  0  0  0  0
    2.4393   -7.0644    4.2803 H   0  0  0  0  0  0  0  0  0  0  0  0
    4.2953  -10.0112    2.5408 H   0  0  0  0  0  0  0  0  0  0  0  0
    4.9665   -8.8783    1.4857 H   0  0  0  0  0  0  0  0  0  0  0  0
    3.3692   -9.2850    1.1820 H   0  0  0  0  0  0  0  0  0  0  0  0
    1.5361   -7.5994    1.2641 H   0  0  0  0  0  0  0  0  0  0  0  0
    0.3172   -6.7602    1.9340 H   0  0  0  0  0  0  0  0  0  0  0  0
    1.5653   -5.0518    1.9747 H   0  0  0  0  0  0  0  0  0  0  0  0
    3.3422   -6.7342    0.6020 H   0  0  0  0  0  0  0  0  0  0  0  0
    2.9126   -5.2771   -0.8457 H   0  0  0  0  0  0  0  0  0  0  0  0
    3.8662   -4.0845    2.2505 H   0  0  0  0  0  0  0  0  0  0  0  0
    1.0917   -3.6125    3.6090 H   0  0  0  0  0  0  0  0  0  0  0  0
    3.4342   -2.4744    4.9962 H   0  0  0  0  0  0  0  0  0  0  0  0
    0.8927   -1.3684    4.5554 H   0  0  0  0  0  0  0  0  0  0  0  0
    2.7555   -3.4383    6.8938 H   0  0  0  0  0  0  0  0  0  0  0  0
    0.6237   -1.4187    8.9822 H   0  0  0  0  0  0  0  0  0  0  0  0
    1.8780   -2.6518    9.0178 H   0  0  0  0  0  0  0  0  0  0  0  0
    0.2316   -3.0596    8.5114 H   0  0  0  0  0  0  0  0  0  0  0  0
   -0.2130   -2.6183    5.0131 H   0  0  0  0  0  0  0  0  0  0  0  0
    0.0154   -5.8206    8.1135 H   0  0  0  0  0  0  0  0  0  0  0  0
    2.7849   -5.5342    6.4545 H   0  0  0  0  0  0  0  0  0  0  0  0
    1.6145   -5.8764    8.8698 H   0  0  0  0  0  0  0  0  0  0  0  0
    3.8701   -6.7875    8.4350 H   0  0  0  0  0  0  0  0  0  0  0  0
    2.0520   -9.3970    8.1893 H   0  0  0  0  0  0  0  0  0  0  0  0
   -0.0253  -11.2964    6.6592 H   0  0  0  0  0  0  0  0  0  0  0  0
   -1.2565  -10.3887    7.3850 H   0  0  0  0  0  0  0  0  0  0  0  0
    0.2165  -10.7190    8.3988 H   0  0  0  0  0  0  0  0  0  0  0  0
   -0.4894   -9.9027    5.0416 H   0  0  0  0  0  0  0  0  0  0  0  0
   -1.4103   -8.6973    5.7150 H   0  0  0  0  0  0  0  0  0  0  0  0
    0.9279   -7.5694    5.4145 H   0  0  0  0  0  0  0  0  0  0  0  0
    1.8286   -9.9882    2.1409 H   0  0  0  0  0  0  0  0  0  0  0  0
   -0.2625  -10.4886    3.7500 H   0  0  0  0  0  0  0  0  0  0  0  0
    1.7341  -10.7974    5.0948 H   0  0  0  0  0  0  0  0  0  0  0  0
    2.2957  -12.1122    3.4738 H   0  0  0  0  0  0  0  0  0  0  0  0
  1  2  1  0
  1 58  1  0
  1 59  1  0
  1 60  1  0
  2  3  1  0
  2 61  1  0
  3  4  2  0
  3  5  1  0
  5 14  1  0
  5  6  1  6
  5  7  1  0
  6 62  1  0
  7  8  2  0
  7  9  1  0
  9 28  1  0
  9 10  1  6
  9 11  1  0
 10 63  1  0
 11 12  1  0
 11 64  1  0
 11 65  1  0
 12 13  1  0
 12 66  1  0
 12 67  1  0
 13 14  2  0
 13 68  1  0
 14 15  1  0
 15 30  1  0
 15 16  1  0
 15 69  1  1
 16 17  1  0
 17 44  1  0
 17 18  1  1
 17 19  1  0
 18 70  1  0
 19 56  1  0
 19 20  1  6
 19 21  1  0
 20 71  1  0
 20 72  1  0
 20 73  1  0
 21 22  1  0
 22 23  1  0
 22 25  1  0
 22 74  1  1
 23 24  1  0
 24 75  1  0
 24 76  1  0
 24 77  1  0
 25 51  1  0
 25 26  1  6
 25 54  1  0
 26 27  1  0
 26 78  1  0
 26 79  1  0
 27 28  1  0
 27 30  1  0
 27 80  1  6
 28 29  1  0
 28 81  1  6
 29 82  1  0
 30 31  1  6
 30 32  1  0
 31 83  1  0
 32 38  1  0
 32 33  1  0
 32 84  1  6
 33 34  1  0
 33 35  1  0
 33 85  1  1
 34 86  1  0
 35 36  1  0
 35 38  1  0
 35 87  1  1
 36 37  1  0
 37 88  1  0
 37 89  1  0
 37 90  1  0
 38 39  1  6
 38 40  1  0
 39 91  1  0
 52 40  1  1
 40 41  1  1
 40 42  1  0
 41 92  1  0
 42 43  1  0
 42 44  1  0
 42 93  1  6
 43 94  1  0
 44 45  1  1
 44 46  1  0
 45 95  1  0
 46 48  1  0
 46 47  1  0
 46 96  1  1
 47 48  1  0
 48 49  1  1
 48 50  1  0
 49 97  1  0
 49 98  1  0
 49 99  1  0
 50 51  1  0
 50100  1  0
 50101  1  0
 51 52  1  0
 51102  1  1
 52 53  2  0
 54 55  1  0
 54 56  1  0
 54103  1  6
 55104  1  0
 56 57  1  0
 56105  1  1
 57106  1  0
M  END
>  <i_m_ct_stereo_status>  (67) 
1

>  <s_m_source_file>  (67) 
/var/tmp/pbs.5075288.sched01/tmpq0rgj53d/65gxdktgdh.sdf

>  <i_m_source_file_index>  (67) 
10

>  <i_lp_mmshare_version>  (67) 
48012

>  <i_f3d_flags>  (67) 
0

>  <s_epik_input>  (67) 
W09IXVtDQEhdMVtDQEBIXShPW0NIM10pW0NAXShbT0hdKShbQ0BAXShbT0hdKShbUytdMltPLV0pW0NASF0zW09IXSlbQ0BIXTFbQ0BdNChbT0hdKVtDQEhdKFtDSDJdNSlbQ0BASF0oW09IXSlbQ0BdKFtPSF0pKEMoPU8pW0NAXTYoW09IXSlDKD1PKVtOSF1bQ0gzXSlbQ0gyXVtDSDJdW0NIXT1DNltDQEBIXTRPW0NAXShbT0hdKShbQ0BdKFtDSDNdKShbQ0BIXShbT0hdKVtDQEBIXTdbT0hdKU9bQ0BIXThPW0NIM10pW0NAXTMoW09IXSlbQ0BASF0oTzkpW0NAXTkoW0NIM10pW0NIMl1bQ0BASF0yQzU3OA==

>  <s_epik_cmdline>  (67) 
J2VwaWtfcHl0aG9uJywgJy1waHQnLCAnMi4wJywgJy1waCcsICc3LjAnLCAnLXRuJywgJzgnLCAnLW1hJywgJzIwMCcsICctaW1hZScsICc8aW5maWxlLm1hZT4nLCAnLW9tYWUnLCAnPG91dGZpbGUubWFlPic=

>  <r_lp_tautomer_probability>  (67) 
1

>  <r_epik_Ionization_Penalty>  (67) 
1.40957e-05

>  <r_epik_Ionization_Penalty_Charging>  (67) 
0

>  <r_epik_Ionization_Penalty_Neutral>  (67) 
1.40957e-05

>  <r_epik_State_Penalty>  (67) 
-0

>  <r_epik_Charging_Adjusted_Penalty>  (67) 
0

>  <i_epik_Tot_Q>  (67) 
0

>  <i_epik_Tot_abs_Q>  (67) 
2

>  <s_epik_Chemistry_Notes>  (67) 
This compound contains an acetal/aminal-like group ( X-CH(R)-Y where X, Y are N, S, or O) that may be acid/base labile, releasing an aldehyde.

>  <s_lp_Force_Field>  (67) 
OPLS3e

>  <r_lp_Energy>  (67) 
643.764

>  <b_lp_Chiralities_Consistent>  (67) 
1

>  <s_lp_Variant>  (67) 
14:0-27

>  <s_i_glide_gridfile>  (67) 
pfpi4k_grid

>  <i_i_glide_lignum>  (67) 
10

>  <i_i_glide_rotatable_bonds>  (67) 
16

>  <r_i_docking_score>  (67) 
-2.39185

>  <r_i_glide_ligand_efficiency>  (67) 
-0.0419624

>  <r_i_glide_ligand_efficiency_sa>  (67) 
-0.161492

>  <r_i_glide_ligand_efficiency_ln>  (67) 
-0.474287

>  <r_i_glide_gscore>  (67) 
-2.39185

>  <r_i_glide_lipo>  (67) 
-0.21235

>  <r_i_glide_hbond>  (67) 
-0.0435742

>  <r_i_glide_metal>  (67) 
-0

>  <r_i_glide_rewards>  (67) 
-1.10792

>  <r_i_glide_evdw>  (67) 
2.90676

>  <r_i_glide_ecoul>  (67) 
-7.84729

>  <r_i_glide_erotb>  (67) 
0.0313225

>  <r_i_glide_esite>  (67) 
-0.027578

>  <r_i_glide_emodel>  (67) 
-20.5241

>  <r_i_glide_energy>  (67) 
-4.94053

>  <r_i_glide_einternal>  (67) 
3.31999

>  <r_i_glide_intrahb_reward>  (67) 
-1

>  <i_i_glide_confnum>  (67) 
4

>  <i_i_glide_posenum>  (67) 
4

>  <r_i_glide_eff_state_penalty>  (67) 
0

>  <ligand_id>  (67) 
14

>  <original_smiles>  (67) 
CNC(=O)C1(O)C(=O)C2(O)CCC=C1C1OC3(O)C4(C)OC(OC)C5(CC(C2O)C1(O)C1C(O)C(OC)C1(O)C1(O)C(O)C3(O)C2OC2(C)CC5[S+]1[O-])C(O)C4O

>  <smiles>  (67) 
[H]OC1(C(=O)N([H])C([H])([H])[H])C(=O)C2(O[H])C([H])([H])C([H])([H])C([H])=C1C1([H])OC3(O[H])C4(C([H])([H])[H])OC([H])(OC([H])([H])[H])C5(C([H])([H])C([H])(C2([H])O[H])C1(O[H])C1([H])C([H])(O[H])C([H])(OC([H])([H])[H])C1(O[H])C1(O[H])S(=O)C5([H])C([H])([H])C2(C([H])([H])[H])OC2([H])C3(O[H])C1([H])O[H])C([H])(O[H])C4([H])O[H]

$$$$
14:26:1
     RDKit          3D

106114  0  0  1  0  0  0  0  0999 V2000
    7.7979   -8.4028    5.9843 C   0  0  0  0  0  0  0  0  0  0  0  0
    7.3576   -7.3255    5.0890 N   0  0  0  0  0  0  0  0  0  0  0  0
    6.7749   -7.4834    3.8811 C   0  0  0  0  0  0  0  0  0  0  0  0
    6.5395   -8.6018    3.4339 O   0  0  0  0  0  0  0  0  0  0  0  0
    6.4290   -6.1849    3.0798 C   0  0  1  0  0  0  0  0  0  0  0  0
    7.7432   -5.6718    2.8974 O   0  0  0  0  0  0  0  0  0  0  0  0
    5.9395   -6.3549    1.6118 C   0  0  0  0  0  0  0  0  0  0  0  0
    6.5161   -7.1982    0.9295 O   0  0  0  0  0  0  0  0  0  0  0  0
    4.9382   -5.3470    0.9245 C   0  0  2  0  0  0  0  0  0  0  0  0
    5.1411   -5.5336   -0.4728 O   0  0  0  0  0  0  0  0  0  0  0  0
    5.4007   -3.8195    1.0271 C   0  0  0  0  0  0  0  0  0  0  0  0
    6.2088   -3.2905    2.2473 C   0  0  0  0  0  0  0  0  0  0  0  0
    5.7452   -3.8400    3.5756 C   0  0  0  0  0  0  0  0  0  0  0  0
    5.5108   -5.1452    3.7857 C   0  0  0  0  0  0  0  0  0  0  0  0
    4.1932   -5.5149    4.5465 C   0  0  2  0  0  0  0  0  0  0  0  0
    4.3995   -6.9116    5.1058 O   0  0  0  0  0  0  0  0  0  0  0  0
    3.8720   -7.9807    6.0199 C   0  0  2  0  0  0  0  0  0  0  0  0
    4.9839   -8.1941    6.8147 O   0  0  0  0  0  0  0  0  0  0  0  0
    3.6673   -9.4762    5.1559 C   0  0  2  0  0  0  0  0  0  0  0  0
    3.9590  -10.5672    6.2613 C   0  0  0  0  0  0  0  0  0  0  0  0
    2.5744   -8.7923    4.9341 O   0  0  0  0  0  0  0  0  0  0  0  0
    2.5389   -8.0038    3.8085 C   0  0  1  0  0  0  0  0  0  0  0  0
    3.6506   -8.0374    2.8780 O   0  0  0  0  0  0  0  0  0  0  0  0
    4.0575   -9.1219    2.0222 C   0  0  0  0  0  0  0  0  0  0  0  0
    1.2011   -8.2161    3.3288 C   0  0  2  0  0  0  0  0  0  0  0  0
    1.3159   -7.0831    2.1941 C   0  0  0  0  0  0  0  0  0  0  0  0
    2.3415   -5.7570    2.2850 C   0  0  2  0  0  0  0  0  0  0  0  0
    3.3541   -5.7348    1.0019 C   0  0  1  0  0  0  0  0  0  0  0  0
    2.6690   -4.9660    0.0102 O   0  0  0  0  0  0  0  0  0  0  0  0
    2.8479   -4.9494    3.6542 C   0  0  2  0  0  0  0  0  0  0  0  0
    3.2150   -3.8387    2.8696 O   0  0  0  0  0  0  0  0  0  0  0  0
    1.8152   -3.9158    4.3740 C   0  0  2  0  0  0  0  0  0  0  0  0
    2.3564   -2.5742    4.9910 C   0  0  1  0  0  0  0  0  0  0  0  0
    1.8382   -1.3599    4.4760 O   0  0  0  0  0  0  0  0  0  0  0  0
    1.8984   -3.0338    6.3663 C   0  0  1  0  0  0  0  0  0  0  0  0
    1.3304   -1.9685    7.1161 O   0  0  0  0  0  0  0  0  0  0  0  0
    0.9929   -2.3038    8.4528 C   0  0  0  0  0  0  0  0  0  0  0  0
    0.9173   -4.0339    5.6842 C   0  0  1  0  0  0  0  0  0  0  0  0
   -0.3520   -3.3967    5.5099 O   0  0  0  0  0  0  0  0  0  0  0  0
    0.6135   -5.4555    6.3097 C   0  0  2  0  0  0  0  0  0  0  0  0
   -0.2744   -5.2850    7.4009 O   0  0  0  0  0  0  0  0  0  0  0  0
    2.0032   -6.0438    6.9568 C   0  0  1  0  0  0  0  0  0  0  0  0
    2.0953   -5.3582    8.2244 O   0  0  0  0  0  0  0  0  0  0  0  0
    2.6314   -7.5417    7.1095 C   0  0  2  0  0  0  0  0  0  0  0  0
    3.2296   -7.5099    8.4156 O   0  0  0  0  0  0  0  0  0  0  0  0
    1.6228   -8.6612    7.5062 C   0  0  1  0  0  0  0  0  0  0  0  0
    0.3177   -8.1759    7.8625 O   0  0  0  0  0  0  0  0  0  0  0  0
    0.3315   -9.2454    6.8978 C   0  0  2  0  0  0  0  0  0  0  0  0
   -0.1943  -10.5336    7.4035 C   0  0  0  0  0  0  0  0  0  0  0  0
   -0.3722   -8.9745    5.5456 C   0  0  0  0  0  0  0  0  0  0  0  0
    0.2836   -7.9265    4.6553 C   0  0  2  0  0  0  0  0  0  0  0  0
   -0.4442   -6.2882    4.9646 S   0  0  0  0  0  0  0  0  0  0  0  0
   -0.1809   -5.5556    3.6884 O   0  0  0  0  0  0  0  0  0  0  0  0
    1.4326   -9.7872    3.1249 C   0  0  2  0  0  0  0  0  0  0  0  0
    0.2168  -10.5050    2.9440 O   0  0  0  0  0  0  0  0  0  0  0  0
    2.4192  -10.3941    4.3419 C   0  0  1  0  0  0  0  0  0  0  0  0
    2.9874  -11.5827    3.7806 O   0  0  0  0  0  0  0  0  0  0  0  0
    7.1419   -8.5295    6.8230 H   0  0  0  0  0  0  0  0  0  0  0  0
    8.7644   -8.1645    6.4205 H   0  0  0  0  0  0  0  0  0  0  0  0
    7.8644   -9.3663    5.4734 H   0  0  0  0  0  0  0  0  0  0  0  0
    7.5220   -6.3770    5.3991 H   0  0  0  0  0  0  0  0  0  0  0  0
    8.2684   -6.3209    2.4545 H   0  0  0  0  0  0  0  0  0  0  0  0
    4.5291   -5.0104   -0.9547 H   0  0  0  0  0  0  0  0  0  0  0  0
    6.0359   -3.5492    0.1795 H   0  0  0  0  0  0  0  0  0  0  0  0
    4.5374   -3.1701    0.8873 H   0  0  0  0  0  0  0  0  0  0  0  0
    7.2744   -3.4699    2.0611 H   0  0  0  0  0  0  0  0  0  0  0  0
    6.1410   -2.2012    2.2843 H   0  0  0  0  0  0  0  0  0  0  0  0
    5.2007   -3.0982    4.1457 H   0  0  0  0  0  0  0  0  0  0  0  0
    4.3007   -4.8400    5.3919 H   0  0  0  0  0  0  0  0  0  0  0  0
    5.1611   -7.4245    7.3126 H   0  0  0  0  0  0  0  0  0  0  0  0
    5.0068  -10.8597    6.1874 H   0  0  0  0  0  0  0  0  0  0  0  0
    3.4075  -11.5066    6.1995 H   0  0  0  0  0  0  0  0  0  0  0  0
    3.8012  -10.2520    7.2859 H   0  0  0  0  0  0  0  0  0  0  0  0
    2.4332   -7.0667    4.2780 H   0  0  0  0  0  0  0  0  0  0  0  0
    4.3114  -10.0193    2.5705 H   0  0  0  0  0  0  0  0  0  0  0  0
    4.9762   -8.8957    1.5032 H   0  0  0  0  0  0  0  0  0  0  0  0
    3.3750   -9.3220    1.2027 H   0  0  0  0  0  0  0  0  0  0  0  0
    1.5238   -7.6059    1.2652 H   0  0  0  0  0  0  0  0  0  0  0  0
    0.3058   -6.7610    1.9426 H   0  0  0  0  0  0  0  0  0  0  0  0
    1.5607   -5.0589    1.9721 H   0  0  0  0  0  0  0  0  0  0  0  0
    3.3346   -6.7483    0.5983 H   0  0  0  0  0  0  0  0  0  0  0  0
    2.9189   -5.2776   -0.8512 H   0  0  0  0  0  0  0  0  0  0  0  0
    3.9196   -4.0884    2.2901 H   0  0  0  0  0  0  0  0  0  0  0  0
    1.0908   -3.6219    3.5974 H   0  0  0  0  0  0  0  0  0  0  0  0
    3.4394   -2.4800    4.9864 H   0  0  0  0  0  0  0  0  0  0  0  0
    0.9053   -1.4179    4.4312 H   0  0  0  0  0  0  0  0  0  0  0  0
    2.7585   -3.4413    6.8910 H   0  0  0  0  0  0  0  0  0  0  0  0
    0.6141   -1.4216    8.9682 H   0  0  0  0  0  0  0  0  0  0  0  0
    1.8521   -2.6707    9.0160 H   0  0  0  0  0  0  0  0  0  0  0  0
    0.2072   -3.0550    8.4831 H   0  0  0  0  0  0  0  0  0  0  0  0
   -0.1969   -2.5646    5.1045 H   0  0  0  0  0  0  0  0  0  0  0  0
   -0.0686   -5.9377    8.0417 H   0  0  0  0  0  0  0  0  0  0  0  0
    2.7822   -5.5400    6.4546 H   0  0  0  0  0  0  0  0  0  0  0  0
    1.5324   -5.7946    8.8363 H   0  0  0  0  0  0  0  0  0  0  0  0
    3.9130   -6.8665    8.4198 H   0  0  0  0  0  0  0  0  0  0  0  0
    2.0432   -9.4028    8.1926 H   0  0  0  0  0  0  0  0  0  0  0  0
   -0.0457  -11.3424    6.6922 H   0  0  0  0  0  0  0  0  0  0  0  0
   -1.2736  -10.4042    7.4106 H   0  0  0  0  0  0  0  0  0  0  0  0
    0.2065  -10.7475    8.4110 H   0  0  0  0  0  0  0  0  0  0  0  0
   -0.5044   -9.9156    5.0486 H   0  0  0  0  0  0  0  0  0  0  0  0
   -1.3893   -8.6919    5.7359 H   0  0  0  0  0  0  0  0  0  0  0  0
    0.9149   -7.5730    5.4101 H   0  0  0  0  0  0  0  0  0  0  0  0
    1.8142   -9.9937    2.1362 H   0  0  0  0  0  0  0  0  0  0  0  0
   -0.2404  -10.5469    3.7690 H   0  0  0  0  0  0  0  0  0  0  0  0
    1.7324  -10.8036    5.0868 H   0  0  0  0  0  0  0  0  0  0  0  0
    3.4217  -11.3676    2.9721 H   0  0  0  0  0  0  0  0  0  0  0  0
  1  2  1  0
  1 58  1  0
  1 59  1  0
  1 60  1  0
  2  3  1  0
  2 61  1  0
  3  4  2  0
  3  5  1  0
  5 14  1  0
  5  6  1  6
  5  7  1  0
  6 62  1  0
  7  8  2  0
  7  9  1  0
  9 28  1  0
  9 10  1  6
  9 11  1  0
 10 63  1  0
 11 12  1  0
 11 64  1  0
 11 65  1  0
 12 13  1  0
 12 66  1  0
 12 67  1  0
 13 14  2  0
 13 68  1  0
 14 15  1  0
 15 30  1  0
 15 16  1  0
 15 69  1  1
 16 17  1  0
 17 44  1  0
 17 18  1  1
 17 19  1  0
 18 70  1  0
 19 56  1  0
 19 20  1  6
 19 21  1  0
 20 71  1  0
 20 72  1  0
 20 73  1  0
 21 22  1  0
 22 23  1  0
 22 25  1  0
 22 74  1  1
 23 24  1  0
 24 75  1  0
 24 76  1  0
 24 77  1  0
 25 51  1  0
 25 26  1  6
 25 54  1  0
 26 27  1  0
 26 78  1  0
 26 79  1  0
 27 28  1  0
 27 30  1  0
 27 80  1  6
 28 29  1  0
 28 81  1  6
 29 82  1  0
 30 31  1  6
 30 32  1  0
 31 83  1  0
 32 38  1  0
 32 33  1  0
 32 84  1  6
 33 34  1  0
 33 35  1  0
 33 85  1  1
 34 86  1  0
 35 36  1  0
 35 38  1  0
 35 87  1  1
 36 37  1  0
 37 88  1  0
 37 89  1  0
 37 90  1  0
 38 39  1  6
 38 40  1  0
 39 91  1  0
 52 40  1  1
 40 41  1  1
 40 42  1  0
 41 92  1  0
 42 43  1  0
 42 44  1  0
 42 93  1  6
 43 94  1  0
 44 45  1  1
 44 46  1  0
 45 95  1  0
 46 48  1  0
 46 47  1  0
 46 96  1  1
 47 48  1  0
 48 49  1  1
 48 50  1  0
 49 97  1  0
 49 98  1  0
 49 99  1  0
 50 51  1  0
 50100  1  0
 50101  1  0
 51 52  1  0
 51102  1  1
 52 53  2  0
 54 55  1  0
 54 56  1  0
 54103  1  6
 55104  1  0
 56 57  1  0
 56105  1  1
 57106  1  0
M  END
>  <i_m_ct_stereo_status>  (68) 
1

>  <s_m_source_file>  (68) 
/var/tmp/pbs.5075288.sched01/tmpq0rgj53d/65gxdktgdh.sdf

>  <i_m_source_file_index>  (68) 
10

>  <i_lp_mmshare_version>  (68) 
48012

>  <i_f3d_flags>  (68) 
0

>  <s_epik_input>  (68) 
W09IXVtDQEhdMVtDQEBIXShPW0NIM10pW0NAXShbT0hdKShbQ0BAXShbT0hdKShbUytdMltPLV0pW0NASF0zW09IXSlbQ0BIXTFbQ0BdNChbT0hdKVtDQEhdKFtDSDJdNSlbQ0BASF0oW09IXSlbQ0BdKFtPSF0pKEMoPU8pW0NAXTYoW09IXSlDKD1PKVtOSF1bQ0gzXSlbQ0gyXVtDSDJdW0NIXT1DNltDQEBIXTRPW0NAXShbT0hdKShbQ0BdKFtDSDNdKShbQ0BIXShbT0hdKVtDQEBIXTdbT0hdKU9bQ0BIXThPW0NIM10pW0NAXTMoW09IXSlbQ0BASF0oTzkpW0NAXTkoW0NIM10pW0NIMl1bQ0BASF0yQzU3OA==

>  <s_epik_cmdline>  (68) 
J2VwaWtfcHl0aG9uJywgJy1waHQnLCAnMi4wJywgJy1waCcsICc3LjAnLCAnLXRuJywgJzgnLCAnLW1hJywgJzIwMCcsICctaW1hZScsICc8aW5maWxlLm1hZT4nLCAnLW9tYWUnLCAnPG91dGZpbGUubWFlPic=

>  <r_lp_tautomer_probability>  (68) 
1

>  <r_epik_Ionization_Penalty>  (68) 
1.40957e-05

>  <r_epik_Ionization_Penalty_Charging>  (68) 
0

>  <r_epik_Ionization_Penalty_Neutral>  (68) 
1.40957e-05

>  <r_epik_State_Penalty>  (68) 
-0

>  <r_epik_Charging_Adjusted_Penalty>  (68) 
0

>  <i_epik_Tot_Q>  (68) 
0

>  <i_epik_Tot_abs_Q>  (68) 
2

>  <s_epik_Chemistry_Notes>  (68) 
This compound contains an acetal/aminal-like group ( X-CH(R)-Y where X, Y are N, S, or O) that may be acid/base labile, releasing an aldehyde.

>  <s_lp_Force_Field>  (68) 
OPLS3e

>  <r_lp_Energy>  (68) 
643.764

>  <b_lp_Chiralities_Consistent>  (68) 
1

>  <s_lp_Variant>  (68) 
14:0-27

>  <s_i_glide_gridfile>  (68) 
pfpi4k_grid

>  <i_i_glide_lignum>  (68) 
10

>  <i_i_glide_rotatable_bonds>  (68) 
16

>  <r_i_docking_score>  (68) 
-1.47516

>  <r_i_glide_ligand_efficiency>  (68) 
-0.02588

>  <r_i_glide_ligand_efficiency_sa>  (68) 
-0.0995992

>  <r_i_glide_ligand_efficiency_ln>  (68) 
-0.292513

>  <r_i_glide_gscore>  (68) 
-1.47516

>  <r_i_glide_lipo>  (68) 
-0.202512

>  <r_i_glide_hbond>  (68) 
-0.0438287

>  <r_i_glide_metal>  (68) 
-0

>  <r_i_glide_rewards>  (68) 
-0.608539

>  <r_i_glide_evdw>  (68) 
6.78828

>  <r_i_glide_ecoul>  (68) 
-7.12917

>  <r_i_glide_erotb>  (68) 
0.0313225

>  <r_i_glide_esite>  (68) 
-0.027462

>  <r_i_glide_emodel>  (68) 
-5.66397

>  <r_i_glide_energy>  (68) 
-0.340888

>  <r_i_glide_einternal>  (68) 
4.52001

>  <r_i_glide_intrahb_reward>  (68) 
-0.5

>  <i_i_glide_confnum>  (68) 
3

>  <i_i_glide_posenum>  (68) 
3

>  <r_i_glide_eff_state_penalty>  (68) 
0

>  <ligand_id>  (68) 
14

>  <original_smiles>  (68) 
CNC(=O)C1(O)C(=O)C2(O)CCC=C1C1OC3(O)C4(C)OC(OC)C5(CC(C2O)C1(O)C1C(O)C(OC)C1(O)C1(O)C(O)C3(O)C2OC2(C)CC5[S+]1[O-])C(O)C4O

>  <smiles>  (68) 
[H]OC1(C(=O)N([H])C([H])([H])[H])C(=O)C2(O[H])C([H])([H])C([H])([H])C([H])=C1C1([H])OC3(O[H])C4(C([H])([H])[H])OC([H])(OC([H])([H])[H])C5(C([H])([H])C([H])(C2([H])O[H])C1(O[H])C1([H])C([H])(O[H])C([H])(OC([H])([H])[H])C1(O[H])C1(O[H])S(=O)C5([H])C([H])([H])C2(C([H])([H])[H])OC2([H])C3(O[H])C1([H])O[H])C([H])(O[H])C4([H])O[H]

$$$$
15:0:0
     RDKit          3D

 88 95  0  0  1  0  0  0  0  0999 V2000
   -1.3282    1.1824    3.5573 C   0  0  0  0  0  0  0  0  0  0  0  0
   -1.7859    2.4427    4.3021 C   0  0  2  0  0  0  0  0  0  0  0  0
   -1.2021    3.7280    3.6750 C   0  0  0  0  0  0  0  0  0  0  0  0
    0.2309    3.8641    3.6886 O   0  0  0  0  0  0  0  0  0  0  0  0
    0.9468    3.8673    4.9248 C   0  0  1  0  0  0  0  0  0  0  0  0
    0.0368    4.0948    6.1669 C   0  0  0  0  0  0  0  0  0  0  0  0
   -0.5417    2.7720    6.6626 C   0  0  1  0  0  0  0  0  0  0  0  0
   -1.7969    2.3615    5.8537 C   0  0  0  0  0  0  0  0  0  0  0  0
    0.5693    1.7045    6.7602 C   0  0  1  0  0  0  0  0  0  0  0  0
    0.9573    1.5337    5.4208 O   0  0  0  0  0  0  0  0  0  0  0  0
    1.7260    2.7074    5.0301 O   0  0  0  0  0  0  0  0  0  0  0  0
    1.7676    1.9869    7.7947 C   0  0  2  0  0  0  0  0  0  0  0  0
    2.3927    3.3365    7.8280 O   0  0  0  0  0  0  0  0  0  0  0  0
    3.3242    4.0511    6.9908 C   0  0  1  0  0  0  0  0  0  0  0  0
    3.9968    4.9876    8.0104 C   0  0  0  0  0  0  0  0  0  0  0  0
    4.3841    3.3130    6.3723 O   0  0  0  0  0  0  0  0  0  0  0  0
    5.0813    2.3291    7.1553 C   0  0  2  0  0  0  0  0  0  0  0  0
    6.2371    2.7434    8.1342 C   0  0  2  0  0  0  0  0  0  0  0  0
    7.5699    1.9765    8.0698 C   0  0  0  0  0  0  0  0  0  0  0  0
    7.3309    0.6202    8.4994 O   0  0  0  0  0  0  0  0  0  0  0  0
    6.0314    0.4874    9.0650 C   0  0  2  0  0  0  0  0  0  0  0  0
    6.1937   -0.4885   10.2495 C   0  0  0  0  0  0  0  0  0  0  0  0
    4.9872    0.0217    7.9082 C   0  0  2  0  0  0  0  0  0  0  0  0
    5.1631    0.8706    6.5897 C   0  0  2  0  0  0  0  0  0  0  0  0
    6.4389    0.4979    5.7641 C   0  0  0  0  0  0  0  0  0  0  0  0
    3.9912    0.5818    5.6164 C   0  0  1  0  0  0  0  0  0  0  0  0
    4.2265    0.9411    4.2702 O   0  0  0  0  0  0  0  0  0  0  0  0
    3.5222   -0.8674    5.6692 C   0  0  0  0  0  0  0  0  0  0  0  0
    2.8261   -1.1092    7.0177 C   0  0  0  0  0  0  0  0  0  0  0  0
    3.4500   -0.3032    8.2022 C   0  0  1  0  0  0  0  0  0  0  0  0
    3.4964   -1.2898    9.1865 O   0  0  0  0  0  0  0  0  0  0  0  0
    2.3653    0.8083    8.7202 C   0  0  1  0  0  0  0  0  0  0  0  0
    2.6801    1.3417   10.1487 C   0  0  0  0  0  0  0  0  0  0  0  0
    1.3458    1.5523   10.8149 C   0  0  0  0  0  0  0  0  0  0  0  0
    0.5129    0.4397   10.2016 C   0  0  0  0  0  0  0  0  0  0  0  0
    1.1608    0.0696    8.9844 O   0  0  0  0  0  0  0  0  0  0  0  0
    5.6704    2.1569    9.8039 S   0  0  0  0  0  0  0  0  0  0  0  0
    6.7751    2.4892   10.7713 O   0  0  0  0  0  0  0  0  0  0  0  0
    2.7484    5.0430    6.1639 O   0  0  0  0  0  0  0  0  0  0  0  0
    2.1036    4.9167    4.8902 C   0  0  0  0  0  0  0  0  0  0  0  0
    3.1541    4.6365    3.8020 C   0  0  0  0  0  0  0  0  0  0  0  0
    1.5096    6.3139    4.6357 C   0  0  0  0  0  0  0  0  0  0  0  0
   -0.2502    1.1415    3.4063 H   0  0  0  0  0  0  0  0  0  0  0  0
   -1.7852    1.1606    2.5644 H   0  0  0  0  0  0  0  0  0  0  0  0
   -1.6453    0.2791    4.0734 H   0  0  0  0  0  0  0  0  0  0  0  0
   -2.8523    2.4867    4.0604 H   0  0  0  0  0  0  0  0  0  0  0  0
   -1.4857    3.7434    2.6211 H   0  0  0  0  0  0  0  0  0  0  0  0
   -1.7134    4.6050    4.0792 H   0  0  0  0  0  0  0  0  0  0  0  0
    0.5834    4.5414    6.9975 H   0  0  0  0  0  0  0  0  0  0  0  0
   -0.7409    4.8288    5.9743 H   0  0  0  0  0  0  0  0  0  0  0  0
   -0.9012    2.9494    7.6749 H   0  0  0  0  0  0  0  0  0  0  0  0
   -2.6087    3.0062    6.1884 H   0  0  0  0  0  0  0  0  0  0  0  0
   -2.1060    1.3616    6.1547 H   0  0  0  0  0  0  0  0  0  0  0  0
    0.0860    0.7705    7.0799 H   0  0  0  0  0  0  0  0  0  0  0  0
    1.0942    2.3740    8.5568 H   0  0  0  0  0  0  0  0  0  0  0  0
    4.8398    5.5030    7.5590 H   0  0  0  0  0  0  0  0  0  0  0  0
    4.3184    4.4577    8.9040 H   0  0  0  0  0  0  0  0  0  0  0  0
    3.2809    5.7412    8.3423 H   0  0  0  0  0  0  0  0  0  0  0  0
    4.3050    2.1959    7.8707 H   0  0  0  0  0  0  0  0  0  0  0  0
    6.4262    3.8143    8.1300 H   0  0  0  0  0  0  0  0  0  0  0  0
    8.0606    2.0404    7.0977 H   0  0  0  0  0  0  0  0  0  0  0  0
    8.2899    2.4039    8.7684 H   0  0  0  0  0  0  0  0  0  0  0  0
    6.3961   -1.5040    9.9026 H   0  0  0  0  0  0  0  0  0  0  0  0
    5.3076   -0.5178   10.8795 H   0  0  0  0  0  0  0  0  0  0  0  0
    7.0236   -0.2037   10.9032 H   0  0  0  0  0  0  0  0  0  0  0  0
    5.4118   -0.9497    7.6395 H   0  0  0  0  0  0  0  0  0  0  0  0
    6.2242   -0.2692    5.0206 H   0  0  0  0  0  0  0  0  0  0  0  0
    7.2513    0.0325    6.3165 H   0  0  0  0  0  0  0  0  0  0  0  0
    6.8391    1.3575    5.2249 H   0  0  0  0  0  0  0  0  0  0  0  0
    3.1731    1.1760    5.9281 H   0  0  0  0  0  0  0  0  0  0  0  0
    3.3961    0.9982    3.8342 H   0  0  0  0  0  0  0  0  0  0  0  0
    2.8079   -1.0862    4.8578 H   0  0  0  0  0  0  0  0  0  0  0  0
    4.3615   -1.5536    5.5347 H   0  0  0  0  0  0  0  0  0  0  0  0
    1.7776   -0.8645    6.8689 H   0  0  0  0  0  0  0  0  0  0  0  0
    2.8237   -2.1889    7.1845 H   0  0  0  0  0  0  0  0  0  0  0  0
    3.7167   -0.9044   10.0151 H   0  0  0  0  0  0  0  0  0  0  0  0
    3.1972    0.5780   10.7037 H   0  0  0  0  0  0  0  0  0  0  0  0
    3.2181    2.3058   10.1825 H   0  0  0  0  0  0  0  0  0  0  0  0
    1.4181    1.4920   11.9127 H   0  0  0  0  0  0  0  0  0  0  0  0
    0.9878    2.5423   10.5101 H   0  0  0  0  0  0  0  0  0  0  0  0
    0.4490   -0.4180   10.8711 H   0  0  0  0  0  0  0  0  0  0  0  0
   -0.5011    0.7814    9.9937 H   0  0  0  0  0  0  0  0  0  0  0  0
    2.7027    4.5873    2.8078 H   0  0  0  0  0  0  0  0  0  0  0  0
    3.7019    3.7085    3.9574 H   0  0  0  0  0  0  0  0  0  0  0  0
    3.8823    5.4411    3.7940 H   0  0  0  0  0  0  0  0  0  0  0  0
    1.0056    6.3679    3.6683 H   0  0  0  0  0  0  0  0  0  0  0  0
    2.3035    7.0516    4.6372 H   0  0  0  0  0  0  0  0  0  0  0  0
    0.7954    6.5972    5.4066 H   0  0  0  0  0  0  0  0  0  0  0  0
  1  2  1  0
  1 43  1  0
  1 44  1  0
  1 45  1  0
  2  8  1  0
  2  3  1  0
  2 46  1  6
  3  4  1  0
  3 47  1  0
  3 48  1  0
  5  4  1  6
  5 11  1  0
  5 40  1  0
  5  6  1  0
  6  7  1  0
  6 49  1  0
  6 50  1  0
  7  8  1  0
  7  9  1  0
  7 51  1  1
  8 52  1  0
  8 53  1  0
  9 10  1  0
  9 12  1  0
  9 54  1  1
 10 11  1  0
 12 32  1  0
 12 13  1  0
 12 55  1  1
 13 14  1  0
 14 15  1  1
 14 16  1  0
 14 39  1  0
 15 56  1  0
 15 57  1  0
 15 58  1  0
 16 17  1  0
 17 24  1  0
 17 18  1  0
 17 59  1  1
 18 37  1  0
 18 19  1  0
 18 60  1  1
 19 20  1  0
 19 61  1  0
 19 62  1  0
 20 21  1  0
 21 22  1  1
 21 23  1  0
 37 21  1  6
 22 63  1  0
 22 64  1  0
 22 65  1  0
 23 30  1  0
 23 24  1  0
 23 66  1  6
 24 25  1  6
 24 26  1  0
 25 67  1  0
 25 68  1  0
 25 69  1  0
 26 27  1  0
 26 28  1  0
 26 70  1  1
 27 71  1  0
 28 29  1  0
 28 72  1  0
 28 73  1  0
 29 30  1  0
 29 74  1  0
 29 75  1  0
 30 31  1  1
 30 32  1  0
 31 76  1  0
 32 36  1  1
 32 33  1  0
 33 34  1  0
 33 77  1  0
 33 78  1  0
 34 35  1  0
 34 79  1  0
 34 80  1  0
 35 36  1  0
 35 81  1  0
 35 82  1  0
 37 38  2  0
 39 40  1  0
 40 41  1  0
 40 42  1  0
 41 83  1  0
 41 84  1  0
 41 85  1  0
 42 86  1  0
 42 87  1  0
 42 88  1  0
M  END
>  <i_m_ct_stereo_status>  (69) 
1

>  <s_m_source_file>  (69) 
/var/tmp/pbs.5075288.sched01/tmpq0rgj53d/65gxdktgdh.sdf

>  <i_m_source_file_index>  (69) 
11

>  <i_lp_mmshare_version>  (69) 
48012

>  <i_f3d_flags>  (69) 
0

>  <s_epik_input>  (69) 
W0NAXTEyM09bQ0gyXVtDQEBIXShbQ0gzXSlbQ0gyXVtDQEhdKFtDSDJdMSlbQ0BASF0oT08yKVtDQEhdNFtDQF01KFtDSDJdW0NIMl1bQ0gyXU81KVtDQF02KFtPSF0pW0NAQEhdN1tDQEBdOChbQ0gzXSlPW0NIMl1bQ0BIXShbUytdOFtPLV0pW0NASF0oW0NAXTcoW0NIM10pW0NAQEhdKFtPSF0pW0NIMl1bQ0gyXTYpT1tDQEBdKE80KShbQ0gzXSlPQzMoW0NIM10pW0NIM10=

>  <s_epik_cmdline>  (69) 
J2VwaWtfcHl0aG9uJywgJy1waHQnLCAnMi4wJywgJy1waCcsICc3LjAnLCAnLXRuJywgJzgnLCAnLW1hJywgJzIwMCcsICctaW1hZScsICc8aW5maWxlLm1hZT4nLCAnLW9tYWUnLCAnPG91dGZpbGUubWFlPic=

>  <r_lp_tautomer_probability>  (69) 
1

>  <r_epik_Ionization_Penalty>  (69) 
2.62925e-07

>  <r_epik_Ionization_Penalty_Charging>  (69) 
0

>  <r_epik_Ionization_Penalty_Neutral>  (69) 
2.62925e-07

>  <r_epik_State_Penalty>  (69) 
-0

>  <r_epik_Charging_Adjusted_Penalty>  (69) 
0

>  <i_epik_Tot_Q>  (69) 
0

>  <i_epik_Tot_abs_Q>  (69) 
2

>  <s_lp_Force_Field>  (69) 
OPLS3e

>  <r_lp_Energy>  (69) 
146.566

>  <b_lp_Chiralities_Consistent>  (69) 
1

>  <s_lp_Variant>  (69) 
15:0-1

>  <s_i_glide_gridfile>  (69) 
pfpi4k_grid

>  <i_i_glide_lignum>  (69) 
11

>  <i_i_glide_rotatable_bonds>  (69) 
2

>  <r_i_docking_score>  (69) 
-2.24419

>  <r_i_glide_ligand_efficiency>  (69) 
-0.053433

>  <r_i_glide_ligand_efficiency_sa>  (69) 
-0.185735

>  <r_i_glide_ligand_efficiency_ln>  (69) 
-0.47369

>  <r_i_glide_gscore>  (69) 
-2.24419

>  <r_i_glide_lipo>  (69) 
-0.230179

>  <r_i_glide_hbond>  (69) 
-0.32

>  <r_i_glide_metal>  (69) 
-0

>  <r_i_glide_rewards>  (69) 
0

>  <r_i_glide_evdw>  (69) 
-24.6902

>  <r_i_glide_ecoul>  (69) 
-2.95767

>  <r_i_glide_erotb>  (69) 
0

>  <r_i_glide_esite>  (69) 
-0.0158451

>  <r_i_glide_emodel>  (69) 
-31.7432

>  <r_i_glide_energy>  (69) 
-27.6479

>  <r_i_glide_einternal>  (69) 
0.356194

>  <r_i_glide_intrahb_reward>  (69) 
-0

>  <i_i_glide_confnum>  (69) 
3

>  <i_i_glide_posenum>  (69) 
15

>  <r_i_glide_eff_state_penalty>  (69) 
0

>  <ligand_id>  (69) 
15

>  <original_smiles>  (69) 
CC1COC23CC(C1)C(OO2)C1OC(C)(OC2C4COC(C)(C5C2(C)C(O)CCC5(O)C12CCCO2)[S+]4[O-])OC3(C)C

>  <smiles>  (69) 
[H]OC1([H])C([H])([H])C([H])([H])C2(O[H])C3([H])C4(C([H])([H])[H])OC([H])([H])C([H])(S4=O)C([H])(OC4(C([H])([H])[H])OC([H])(C5([H])OOC6(OC([H])([H])C([H])(C([H])([H])[H])C([H])([H])C5([H])C6([H])[H])C(C([H])([H])[H])(C([H])([H])[H])O4)C24OC([H])([H])C([H])([H])C4([H])[H])C13C([H])([H])[H]

$$$$
15:0:1
     RDKit          3D

 88 95  0  0  1  0  0  0  0  0999 V2000
   -3.5120    3.5260    8.8880 C   0  0  0  0  0  0  0  0  0  0  0  0
   -2.3695    3.9576    9.8020 C   0  0  2  0  0  0  0  0  0  0  0  0
   -1.7201    5.2862    9.3623 C   0  0  0  0  0  0  0  0  0  0  0  0
   -1.0872    5.3013    8.0655 O   0  0  0  0  0  0  0  0  0  0  0  0
    0.0020    4.4140    7.7880 C   0  0  1  0  0  0  0  0  0  0  0  0
    0.6195    3.7648    9.0598 C   0  0  0  0  0  0  0  0  0  0  0  0
   -0.1391    2.4958    9.4441 C   0  0  1  0  0  0  0  0  0  0  0  0
   -1.4113    2.8227   10.2682 C   0  0  0  0  0  0  0  0  0  0  0  0
   -0.3543    1.6018    8.2055 C   0  0  1  0  0  0  0  0  0  0  0  0
   -1.1976    2.3875    7.4019 O   0  0  0  0  0  0  0  0  0  0  0  0
   -0.3914    3.4650    6.8351 O   0  0  0  0  0  0  0  0  0  0  0  0
    0.9583    1.0284    7.4758 C   0  0  2  0  0  0  0  0  0  0  0  0
    2.1011    1.9420    7.2191 O   0  0  0  0  0  0  0  0  0  0  0  0
    2.3775    2.9895    6.2649 C   0  0  1  0  0  0  0  0  0  0  0  0
    3.9135    2.9259    6.1665 C   0  0  0  0  0  0  0  0  0  0  0  0
    1.8898    2.8331    4.9291 O   0  0  0  0  0  0  0  0  0  0  0  0
    2.0193    1.5488    4.2972 C   0  0  2  0  0  0  0  0  0  0  0  0
    3.3666    1.1051    3.6243 C   0  0  2  0  0  0  0  0  0  0  0  0
    3.3198    0.5345    2.1966 C   0  0  0  0  0  0  0  0  0  0  0  0
    2.6249   -0.7289    2.2384 O   0  0  0  0  0  0  0  0  0  0  0  0
    2.4258   -1.1494    3.5799 C   0  0  2  0  0  0  0  0  0  0  0  0
    2.6191   -2.6795    3.5692 C   0  0  0  0  0  0  0  0  0  0  0  0
    0.9663   -0.6247    4.0795 C   0  0  2  0  0  0  0  0  0  0  0  0
    0.7268    0.8939    3.7088 C   0  0  2  0  0  0  0  0  0  0  0  0
    0.4213    1.1276    2.1911 C   0  0  0  0  0  0  0  0  0  0  0  0
   -0.5391    1.4299    4.4302 C   0  0  1  0  0  0  0  0  0  0  0  0
   -1.0733    2.6300    3.8961 O   0  0  0  0  0  0  0  0  0  0  0  0
   -1.6185    0.3623    4.5404 C   0  0  0  0  0  0  0  0  0  0  0  0
   -1.1687   -0.7082    5.5416 C   0  0  0  0  0  0  0  0  0  0  0  0
    0.3678   -0.9859    5.5187 C   0  0  1  0  0  0  0  0  0  0  0  0
    0.3700   -2.3827    5.5535 O   0  0  0  0  0  0  0  0  0  0  0  0
    1.0221   -0.4913    6.9374 C   0  0  1  0  0  0  0  0  0  0  0  0
    2.4254   -1.1085    7.2066 C   0  0  0  0  0  0  0  0  0  0  0  0
    2.4946   -1.3545    8.6924 C   0  0  0  0  0  0  0  0  0  0  0  0
    1.0471   -1.6870    9.0175 C   0  0  0  0  0  0  0  0  0  0  0  0
    0.2496   -1.1488    7.9584 O   0  0  0  0  0  0  0  0  0  0  0  0
    3.8378   -0.4314    4.5270 S   0  0  0  0  0  0  0  0  0  0  0  0
    5.1456   -0.9268    3.8643 O   0  0  0  0  0  0  0  0  0  0  0  0
    2.2700    4.3050    6.7722 O   0  0  0  0  0  0  0  0  0  0  0  0
    1.1076    5.1279    6.9447 C   0  0  0  0  0  0  0  0  0  0  0  0
    0.6147    5.6225    5.5708 C   0  0  0  0  0  0  0  0  0  0  0  0
    1.6319    6.3388    7.7351 C   0  0  0  0  0  0  0  0  0  0  0  0
   -3.2246    3.5412    7.8222 H   0  0  0  0  0  0  0  0  0  0  0  0
   -4.3481    4.2225    8.9612 H   0  0  0  0  0  0  0  0  0  0  0  0
   -3.8789    2.5460    9.1276 H   0  0  0  0  0  0  0  0  0  0  0  0
   -2.8958    4.2029   10.7311 H   0  0  0  0  0  0  0  0  0  0  0  0
   -2.5071    6.0418    9.3137 H   0  0  0  0  0  0  0  0  0  0  0  0
   -1.0673    5.6650   10.1500 H   0  0  0  0  0  0  0  0  0  0  0  0
    1.6605    3.4834    8.9095 H   0  0  0  0  0  0  0  0  0  0  0  0
    0.6809    4.4649    9.8893 H   0  0  0  0  0  0  0  0  0  0  0  0
    0.5034    1.9447   10.1280 H   0  0  0  0  0  0  0  0  0  0  0  0
   -1.0767    3.0955   11.2684 H   0  0  0  0  0  0  0  0  0  0  0  0
   -1.9832    1.9101   10.4240 H   0  0  0  0  0  0  0  0  0  0  0  0
   -0.9332    0.7336    8.5446 H   0  0  0  0  0  0  0  0  0  0  0  0
    1.4581    0.8127    8.4184 H   0  0  0  0  0  0  0  0  0  0  0  0
    4.2731    3.5685    5.3647 H   0  0  0  0  0  0  0  0  0  0  0  0
    4.2743    1.9117    6.0196 H   0  0  0  0  0  0  0  0  0  0  0  0
    4.3551    3.2773    7.1002 H   0  0  0  0  0  0  0  0  0  0  0  0
    2.1052    0.9955    5.2033 H   0  0  0  0  0  0  0  0  0  0  0  0
    4.1331    1.8699    3.6976 H   0  0  0  0  0  0  0  0  0  0  0  0
    2.9140    1.2289    1.4609 H   0  0  0  0  0  0  0  0  0  0  0  0
    4.3278    0.3191    1.8401 H   0  0  0  0  0  0  0  0  0  0  0  0
    1.8065   -3.1805    3.0443 H   0  0  0  0  0  0  0  0  0  0  0  0
    2.6797   -3.0899    4.5752 H   0  0  0  0  0  0  0  0  0  0  0  0
    3.5501   -2.9661    3.0679 H   0  0  0  0  0  0  0  0  0  0  0  0
    0.3175   -1.1646    3.3830 H   0  0  0  0  0  0  0  0  0  0  0  0
   -0.6455    1.0813    1.9741 H   0  0  0  0  0  0  0  0  0  0  0  0
    0.7959    0.3738    1.5017 H   0  0  0  0  0  0  0  0  0  0  0  0
    0.7806    2.1029    1.8546 H   0  0  0  0  0  0  0  0  0  0  0  0
   -0.2598    1.6658    5.4232 H   0  0  0  0  0  0  0  0  0  0  0  0
   -1.1018    2.5396    2.9637 H   0  0  0  0  0  0  0  0  0  0  0  0
   -2.5621    0.7958    4.8978 H   0  0  0  0  0  0  0  0  0  0  0  0
   -1.8116   -0.0927    3.5690 H   0  0  0  0  0  0  0  0  0  0  0  0
   -1.4909   -0.3640    6.5145 H   0  0  0  0  0  0  0  0  0  0  0  0
   -1.7713   -1.6020    5.3564 H   0  0  0  0  0  0  0  0  0  0  0  0
    1.2556   -2.6916    5.6349 H   0  0  0  0  0  0  0  0  0  0  0  0
    2.4830   -2.0680    6.7232 H   0  0  0  0  0  0  0  0  0  0  0  0
    3.2846   -0.4609    6.9447 H   0  0  0  0  0  0  0  0  0  0  0  0
    3.1997   -2.1665    8.9416 H   0  0  0  0  0  0  0  0  0  0  0  0
    2.8110   -0.4116    9.1554 H   0  0  0  0  0  0  0  0  0  0  0  0
    0.9020   -2.7655    9.0892 H   0  0  0  0  0  0  0  0  0  0  0  0
    0.7491   -1.2419    9.9680 H   0  0  0  0  0  0  0  0  0  0  0  0
   -0.2346    6.3001    5.6764 H   0  0  0  0  0  0  0  0  0  0  0  0
    0.3124    4.8169    4.9028 H   0  0  0  0  0  0  0  0  0  0  0  0
    1.4131    6.1679    5.0739 H   0  0  0  0  0  0  0  0  0  0  0  0
    0.8438    7.0700    7.9219 H   0  0  0  0  0  0  0  0  0  0  0  0
    2.4178    6.8295    7.1701 H   0  0  0  0  0  0  0  0  0  0  0  0
    2.0519    6.0447    8.6956 H   0  0  0  0  0  0  0  0  0  0  0  0
  1  2  1  0
  1 43  1  0
  1 44  1  0
  1 45  1  0
  2  8  1  0
  2  3  1  0
  2 46  1  1
  3  4  1  0
  3 47  1  0
  3 48  1  0
  5  4  1  1
  5 11  1  0
  5 40  1  0
  5  6  1  0
  6  7  1  0
  6 49  1  0
  6 50  1  0
  7  8  1  0
  7  9  1  0
  7 51  1  1
  8 52  1  0
  8 53  1  0
  9 10  1  0
  9 12  1  0
  9 54  1  1
 10 11  1  0
 12 32  1  0
 12 13  1  0
 12 55  1  1
 13 14  1  0
 14 15  1  6
 14 16  1  0
 14 39  1  0
 15 56  1  0
 15 57  1  0
 15 58  1  0
 16 17  1  0
 17 24  1  0
 17 18  1  0
 17 59  1  1
 18 37  1  0
 18 19  1  0
 18 60  1  6
 19 20  1  0
 19 61  1  0
 19 62  1  0
 20 21  1  0
 21 22  1  6
 21 23  1  0
 37 21  1  6
 22 63  1  0
 22 64  1  0
 22 65  1  0
 23 30  1  0
 23 24  1  0
 23 66  1  6
 24 25  1  6
 24 26  1  0
 25 67  1  0
 25 68  1  0
 25 69  1  0
 26 27  1  0
 26 28  1  0
 26 70  1  1
 27 71  1  0
 28 29  1  0
 28 72  1  0
 28 73  1  0
 29 30  1  0
 29 74  1  0
 29 75  1  0
 30 31  1  1
 30 32  1  0
 31 76  1  0
 32 36  1  1
 32 33  1  0
 33 34  1  0
 33 77  1  0
 33 78  1  0
 34 35  1  0
 34 79  1  0
 34 80  1  0
 35 36  1  0
 35 81  1  0
 35 82  1  0
 37 38  2  0
 39 40  1  0
 40 41  1  0
 40 42  1  0
 41 83  1  0
 41 84  1  0
 41 85  1  0
 42 86  1  0
 42 87  1  0
 42 88  1  0
M  END
>  <i_m_ct_stereo_status>  (70) 
1

>  <s_m_source_file>  (70) 
/var/tmp/pbs.5075288.sched01/tmpq0rgj53d/65gxdktgdh.sdf

>  <i_m_source_file_index>  (70) 
11

>  <i_lp_mmshare_version>  (70) 
48012

>  <i_f3d_flags>  (70) 
0

>  <s_epik_input>  (70) 
W0NAXTEyM09bQ0gyXVtDQEBIXShbQ0gzXSlbQ0gyXVtDQEhdKFtDSDJdMSlbQ0BASF0oT08yKVtDQEhdNFtDQF01KFtDSDJdW0NIMl1bQ0gyXU81KVtDQF02KFtPSF0pW0NAQEhdN1tDQEBdOChbQ0gzXSlPW0NIMl1bQ0BIXShbUytdOFtPLV0pW0NASF0oW0NAXTcoW0NIM10pW0NAQEhdKFtPSF0pW0NIMl1bQ0gyXTYpT1tDQEBdKE80KShbQ0gzXSlPQzMoW0NIM10pW0NIM10=

>  <s_epik_cmdline>  (70) 
J2VwaWtfcHl0aG9uJywgJy1waHQnLCAnMi4wJywgJy1waCcsICc3LjAnLCAnLXRuJywgJzgnLCAnLW1hJywgJzIwMCcsICctaW1hZScsICc8aW5maWxlLm1hZT4nLCAnLW9tYWUnLCAnPG91dGZpbGUubWFlPic=

>  <r_lp_tautomer_probability>  (70) 
1

>  <r_epik_Ionization_Penalty>  (70) 
2.62925e-07

>  <r_epik_Ionization_Penalty_Charging>  (70) 
0

>  <r_epik_Ionization_Penalty_Neutral>  (70) 
2.62925e-07

>  <r_epik_State_Penalty>  (70) 
-0

>  <r_epik_Charging_Adjusted_Penalty>  (70) 
0

>  <i_epik_Tot_Q>  (70) 
0

>  <i_epik_Tot_abs_Q>  (70) 
2

>  <s_lp_Force_Field>  (70) 
OPLS3e

>  <r_lp_Energy>  (70) 
146.566

>  <b_lp_Chiralities_Consistent>  (70) 
1

>  <s_lp_Variant>  (70) 
15:0-1

>  <s_i_glide_gridfile>  (70) 
pfpi4k_grid

>  <i_i_glide_lignum>  (70) 
11

>  <i_i_glide_rotatable_bonds>  (70) 
2

>  <r_i_docking_score>  (70) 
-2.13288

>  <r_i_glide_ligand_efficiency>  (70) 
-0.0507828

>  <r_i_glide_ligand_efficiency_sa>  (70) 
-0.176522

>  <r_i_glide_ligand_efficiency_ln>  (70) 
-0.450196

>  <r_i_glide_gscore>  (70) 
-2.13288

>  <r_i_glide_lipo>  (70) 
-0.134933

>  <r_i_glide_hbond>  (70) 
-0.00581268

>  <r_i_glide_metal>  (70) 
-0

>  <r_i_glide_rewards>  (70) 
0

>  <r_i_glide_evdw>  (70) 
-31.7402

>  <r_i_glide_ecoul>  (70) 
-2.70025

>  <r_i_glide_erotb>  (70) 
0

>  <r_i_glide_esite>  (70) 
-8.65502e-05

>  <r_i_glide_emodel>  (70) 
-38.1776

>  <r_i_glide_energy>  (70) 
-34.4404

>  <r_i_glide_einternal>  (70) 
0.31414

>  <r_i_glide_intrahb_reward>  (70) 
-0

>  <i_i_glide_confnum>  (70) 
3

>  <i_i_glide_posenum>  (70) 
1

>  <r_i_glide_eff_state_penalty>  (70) 
0

>  <ligand_id>  (70) 
15

>  <original_smiles>  (70) 
CC1COC23CC(C1)C(OO2)C1OC(C)(OC2C4COC(C)(C5C2(C)C(O)CCC5(O)C12CCCO2)[S+]4[O-])OC3(C)C

>  <smiles>  (70) 
[H]OC1([H])C([H])([H])C([H])([H])C2(O[H])C3([H])C4(C([H])([H])[H])OC([H])([H])C([H])(S4=O)C([H])(OC4(C([H])([H])[H])OC([H])(C5([H])OOC6(OC([H])([H])C([H])(C([H])([H])[H])C([H])([H])C5([H])C6([H])[H])C(C([H])([H])[H])(C([H])([H])[H])O4)C24OC([H])([H])C([H])([H])C4([H])[H])C13C([H])([H])[H]

$$$$
15:0:2
     RDKit          3D

 88 95  0  0  1  0  0  0  0  0999 V2000
   -2.1674    6.3833    9.1340 C   0  0  0  0  0  0  0  0  0  0  0  0
   -0.7887    6.6140    9.7713 C   0  0  2  0  0  0  0  0  0  0  0  0
    0.0708    7.5987    8.9519 C   0  0  0  0  0  0  0  0  0  0  0  0
    0.4048    7.2137    7.6075 O   0  0  0  0  0  0  0  0  0  0  0  0
    1.1582    6.0139    7.3717 C   0  0  1  0  0  0  0  0  0  0  0  0
    1.8397    5.4378    8.6530 C   0  0  0  0  0  0  0  0  0  0  0  0
    0.8749    4.5231    9.4095 C   0  0  1  0  0  0  0  0  0  0  0  0
   -0.0758    5.3445   10.3207 C   0  0  0  0  0  0  0  0  0  0  0  0
    0.1993    3.5256    8.4475 C   0  0  1  0  0  0  0  0  0  0  0  0
   -0.5564    4.3745    7.6245 O   0  0  0  0  0  0  0  0  0  0  0  0
    0.3549    5.0695    6.7140 O   0  0  0  0  0  0  0  0  0  0  0  0
    1.1481    2.4943    7.6874 C   0  0  2  0  0  0  0  0  0  0  0  0
    2.4062    2.9797    7.0682 O   0  0  0  0  0  0  0  0  0  0  0  0
    2.7315    3.7201    5.8780 C   0  0  1  0  0  0  0  0  0  0  0  0
    4.1481    3.2042    5.5744 C   0  0  0  0  0  0  0  0  0  0  0  0
    1.9659    3.4898    4.6875 O   0  0  0  0  0  0  0  0  0  0  0  0
    1.6388    2.1328    4.3386 C   0  0  2  0  0  0  0  0  0  0  0  0
    2.6647    1.2178    3.5831 C   0  0  2  0  0  0  0  0  0  0  0  0
    2.1953    0.4398    2.3457 C   0  0  0  0  0  0  0  0  0  0  0  0
    1.2303   -0.5411    2.7746 O   0  0  0  0  0  0  0  0  0  0  0  0
    1.1970   -0.6503    4.1897 C   0  0  2  0  0  0  0  0  0  0  0  0
    0.9928   -2.1503    4.4884 C   0  0  0  0  0  0  0  0  0  0  0  0
    0.0527    0.3485    4.7752 C   0  0  2  0  0  0  0  0  0  0  0  0
    0.1301    1.7845    4.1161 C   0  0  2  0  0  0  0  0  0  0  0  0
   -0.4073    1.8131    2.6531 C   0  0  0  0  0  0  0  0  0  0  0  0
   -0.7959    2.7851    4.8686 C   0  0  1  0  0  0  0  0  0  0  0  0
   -1.1480    3.9478    4.1226 O   0  0  0  0  0  0  0  0  0  0  0  0
   -2.0570    2.1296    5.3864 C   0  0  0  0  0  0  0  0  0  0  0  0
   -1.6937    1.1530    6.5130 C   0  0  0  0  0  0  0  0  0  0  0  0
   -0.3106    0.4367    6.3347 C   0  0  1  0  0  0  0  0  0  0  0  0
   -0.6225   -0.8897    6.6644 O   0  0  0  0  0  0  0  0  0  0  0  0
    0.7273    0.9549    7.4906 C   0  0  1  0  0  0  0  0  0  0  0  0
    1.9528    0.0156    7.6794 C   0  0  0  0  0  0  0  0  0  0  0  0
    2.2454    0.0164    9.1550 C   0  0  0  0  0  0  0  0  0  0  0  0
    0.8600    0.1717    9.7513 C   0  0  0  0  0  0  0  0  0  0  0  0
    0.0330    0.7113    8.7225 O   0  0  0  0  0  0  0  0  0  0  0  0
    2.9158   -0.2196    4.7209 S   0  0  0  0  0  0  0  0  0  0  0  0
    3.8780   -1.1774    4.0217 O   0  0  0  0  0  0  0  0  0  0  0  0
    3.0731    5.0825    6.0818 O   0  0  0  0  0  0  0  0  0  0  0  0
    2.2179    6.2215    6.2456 C   0  0  0  0  0  0  0  0  0  0  0  0
    1.5991    6.5939    4.8803 C   0  0  0  0  0  0  0  0  0  0  0  0
    3.1809    7.3482    6.6585 C   0  0  0  0  0  0  0  0  0  0  0  0
   -2.0997    6.1266    8.0917 H   0  0  0  0  0  0  0  0  0  0  0  0
   -2.7627    7.2994    9.1896 H   0  0  0  0  0  0  0  0  0  0  0  0
   -2.7243    5.5932    9.6467 H   0  0  0  0  0  0  0  0  0  0  0  0
   -1.0367    7.1587   10.6836 H   0  0  0  0  0  0  0  0  0  0  0  0
   -0.4845    8.5258    8.8527 H   0  0  0  0  0  0  0  0  0  0  0  0
    0.9436    7.9010    9.5251 H   0  0  0  0  0  0  0  0  0  0  0  0
    2.7247    4.8479    8.4190 H   0  0  0  0  0  0  0  0  0  0  0  0
    2.2446    6.2269    9.2910 H   0  0  0  0  0  0  0  0  0  0  0  0
    1.4826    3.9412   10.1003 H   0  0  0  0  0  0  0  0  0  0  0  0
    0.5144    5.6782   11.1774 H   0  0  0  0  0  0  0  0  0  0  0  0
   -0.8206    4.6734   10.7538 H   0  0  0  0  0  0  0  0  0  0  0  0
   -0.5119    2.9395    9.0489 H   0  0  0  0  0  0  0  0  0  0  0  0
    1.7515    2.3045    8.5677 H   0  0  0  0  0  0  0  0  0  0  0  0
    4.4824    3.5716    4.6072 H   0  0  0  0  0  0  0  0  0  0  0  0
    4.2083    2.1175    5.5982 H   0  0  0  0  0  0  0  0  0  0  0  0
    4.8484    3.5675    6.3305 H   0  0  0  0  0  0  0  0  0  0  0  0
    1.7682    1.7476    5.3237 H   0  0  0  0  0  0  0  0  0  0  0  0
    3.5991    1.7236    3.3704 H   0  0  0  0  0  0  0  0  0  0  0  0
    1.8345    1.0786    1.5427 H   0  0  0  0  0  0  0  0  0  0  0  0
    3.0203   -0.1162    1.9031 H   0  0  0  0  0  0  0  0  0  0  0  0
   -0.0078   -2.4792    4.2126 H   0  0  0  0  0  0  0  0  0  0  0  0
    1.1514   -2.3826    5.5356 H   0  0  0  0  0  0  0  0  0  0  0  0
    1.6966   -2.7715    3.9315 H   0  0  0  0  0  0  0  0  0  0  0  0
   -0.8458   -0.0887    4.3185 H   0  0  0  0  0  0  0  0  0  0  0  0
   -1.4712    2.0514    2.6046 H   0  0  0  0  0  0  0  0  0  0  0  0
   -0.3877    0.8789    2.0976 H   0  0  0  0  0  0  0  0  0  0  0  0
    0.1227    2.5703    2.0822 H   0  0  0  0  0  0  0  0  0  0  0  0
   -0.2550    3.1207    5.7169 H   0  0  0  0  0  0  0  0  0  0  0  0
   -0.5369    4.0169    3.4202 H   0  0  0  0  0  0  0  0  0  0  0  0
   -2.7583    2.8736    5.7793 H   0  0  0  0  0  0  0  0  0  0  0  0
   -2.5671    1.6100    4.5755 H   0  0  0  0  0  0  0  0  0  0  0  0
   -1.7276    1.7131    7.4423 H   0  0  0  0  0  0  0  0  0  0  0  0
   -2.5240    0.4479    6.5895 H   0  0  0  0  0  0  0  0  0  0  0  0
    0.1896   -1.3788    6.6536 H   0  0  0  0  0  0  0  0  0  0  0  0
    1.6819   -0.9956    7.4169 H   0  0  0  0  0  0  0  0  0  0  0  0
    2.8737    0.3328    7.1605 H   0  0  0  0  0  0  0  0  0  0  0  0
    2.7518   -0.8997    9.4737 H   0  0  0  0  0  0  0  0  0  0  0  0
    2.8752    0.8829    9.3608 H   0  0  0  0  0  0  0  0  0  0  0  0
    0.4664   -0.7852   10.0966 H   0  0  0  0  0  0  0  0  0  0  0  0
    0.8693    0.8445   10.6067 H   0  0  0  0  0  0  0  0  0  0  0  0
    0.9844    7.4961    4.9523 H   0  0  0  0  0  0  0  0  0  0  0  0
    0.9723    5.8069    4.4552 H   0  0  0  0  0  0  0  0  0  0  0  0
    2.3917    6.7926    4.1581 H   0  0  0  0  0  0  0  0  0  0  0  0
    2.6556    8.2957    6.7927 H   0  0  0  0  0  0  0  0  0  0  0  0
    3.9359    7.4862    5.8880 H   0  0  0  0  0  0  0  0  0  0  0  0
    3.6965    7.1133    7.5881 H   0  0  0  0  0  0  0  0  0  0  0  0
  1  2  1  0
  1 43  1  0
  1 44  1  0
  1 45  1  0
  2  8  1  0
  2  3  1  0
  2 46  1  1
  3  4  1  0
  3 47  1  0
  3 48  1  0
  5  4  1  1
  5 11  1  0
  5 40  1  0
  5  6  1  0
  6  7  1  0
  6 49  1  0
  6 50  1  0
  7  8  1  0
  7  9  1  0
  7 51  1  1
  8 52  1  0
  8 53  1  0
  9 10  1  0
  9 12  1  0
  9 54  1  1
 10 11  1  0
 12 32  1  0
 12 13  1  0
 12 55  1  1
 13 14  1  0
 14 15  1  6
 14 16  1  0
 14 39  1  0
 15 56  1  0
 15 57  1  0
 15 58  1  0
 16 17  1  0
 17 24  1  0
 17 18  1  0
 17 59  1  1
 18 37  1  0
 18 19  1  0
 18 60  1  6
 19 20  1  0
 19 61  1  0
 19 62  1  0
 20 21  1  0
 21 22  1  6
 21 23  1  0
 37 21  1  6
 22 63  1  0
 22 64  1  0
 22 65  1  0
 23 30  1  0
 23 24  1  0
 23 66  1  6
 24 25  1  6
 24 26  1  0
 25 67  1  0
 25 68  1  0
 25 69  1  0
 26 27  1  0
 26 28  1  0
 26 70  1  1
 27 71  1  0
 28 29  1  0
 28 72  1  0
 28 73  1  0
 29 30  1  0
 29 74  1  0
 29 75  1  0
 30 31  1  1
 30 32  1  0
 31 76  1  0
 32 36  1  1
 32 33  1  0
 33 34  1  0
 33 77  1  0
 33 78  1  0
 34 35  1  0
 34 79  1  0
 34 80  1  0
 35 36  1  0
 35 81  1  0
 35 82  1  0
 37 38  2  0
 39 40  1  0
 40 41  1  0
 40 42  1  0
 41 83  1  0
 41 84  1  0
 41 85  1  0
 42 86  1  0
 42 87  1  0
 42 88  1  0
M  END
>  <i_m_ct_stereo_status>  (71) 
1

>  <s_m_source_file>  (71) 
/var/tmp/pbs.5075288.sched01/tmpq0rgj53d/65gxdktgdh.sdf

>  <i_m_source_file_index>  (71) 
11

>  <i_lp_mmshare_version>  (71) 
48012

>  <i_f3d_flags>  (71) 
0

>  <s_epik_input>  (71) 
W0NAXTEyM09bQ0gyXVtDQEBIXShbQ0gzXSlbQ0gyXVtDQEhdKFtDSDJdMSlbQ0BASF0oT08yKVtDQEhdNFtDQF01KFtDSDJdW0NIMl1bQ0gyXU81KVtDQF02KFtPSF0pW0NAQEhdN1tDQEBdOChbQ0gzXSlPW0NIMl1bQ0BIXShbUytdOFtPLV0pW0NASF0oW0NAXTcoW0NIM10pW0NAQEhdKFtPSF0pW0NIMl1bQ0gyXTYpT1tDQEBdKE80KShbQ0gzXSlPQzMoW0NIM10pW0NIM10=

>  <s_epik_cmdline>  (71) 
J2VwaWtfcHl0aG9uJywgJy1waHQnLCAnMi4wJywgJy1waCcsICc3LjAnLCAnLXRuJywgJzgnLCAnLW1hJywgJzIwMCcsICctaW1hZScsICc8aW5maWxlLm1hZT4nLCAnLW9tYWUnLCAnPG91dGZpbGUubWFlPic=

>  <r_lp_tautomer_probability>  (71) 
1

>  <r_epik_Ionization_Penalty>  (71) 
2.62925e-07

>  <r_epik_Ionization_Penalty_Charging>  (71) 
0

>  <r_epik_Ionization_Penalty_Neutral>  (71) 
2.62925e-07

>  <r_epik_State_Penalty>  (71) 
-0

>  <r_epik_Charging_Adjusted_Penalty>  (71) 
0

>  <i_epik_Tot_Q>  (71) 
0

>  <i_epik_Tot_abs_Q>  (71) 
2

>  <s_lp_Force_Field>  (71) 
OPLS3e

>  <r_lp_Energy>  (71) 
146.566

>  <b_lp_Chiralities_Consistent>  (71) 
1

>  <s_lp_Variant>  (71) 
15:0-1

>  <s_i_glide_gridfile>  (71) 
pfpi4k_grid

>  <i_i_glide_lignum>  (71) 
11

>  <i_i_glide_rotatable_bonds>  (71) 
2

>  <r_i_docking_score>  (71) 
-2.10611

>  <r_i_glide_ligand_efficiency>  (71) 
-0.0501454

>  <r_i_glide_ligand_efficiency_sa>  (71) 
-0.174307

>  <r_i_glide_ligand_efficiency_ln>  (71) 
-0.444545

>  <r_i_glide_gscore>  (71) 
-2.10611

>  <r_i_glide_lipo>  (71) 
-0.00649376

>  <r_i_glide_hbond>  (71) 
0

>  <r_i_glide_metal>  (71) 
-0

>  <r_i_glide_rewards>  (71) 
0

>  <r_i_glide_evdw>  (71) 
-26.9746

>  <r_i_glide_ecoul>  (71) 
-5.00589

>  <r_i_glide_erotb>  (71) 
0

>  <r_i_glide_esite>  (71) 
0

>  <r_i_glide_emodel>  (71) 
-35.385

>  <r_i_glide_energy>  (71) 
-31.9805

>  <r_i_glide_einternal>  (71) 
1.40061

>  <r_i_glide_intrahb_reward>  (71) 
-0

>  <i_i_glide_confnum>  (71) 
3

>  <i_i_glide_posenum>  (71) 
28

>  <r_i_glide_eff_state_penalty>  (71) 
0

>  <ligand_id>  (71) 
15

>  <original_smiles>  (71) 
CC1COC23CC(C1)C(OO2)C1OC(C)(OC2C4COC(C)(C5C2(C)C(O)CCC5(O)C12CCCO2)[S+]4[O-])OC3(C)C

>  <smiles>  (71) 
[H]OC1([H])C([H])([H])C([H])([H])C2(O[H])C3([H])C4(C([H])([H])[H])OC([H])([H])C([H])(S4=O)C([H])(OC4(C([H])([H])[H])OC([H])(C5([H])OOC6(OC([H])([H])C([H])(C([H])([H])[H])C([H])([H])C5([H])C6([H])[H])C(C([H])([H])[H])(C([H])([H])[H])O4)C24OC([H])([H])C([H])([H])C4([H])[H])C13C([H])([H])[H]

$$$$
16:0:0
     RDKit          3D

120129  0  0  1  0  0  0  0  0999 V2000
    5.8017    1.1283    5.4730 C   0  0  0  0  0  0  0  0  0  0  0  0
    4.8371    0.1034    5.7078 O   0  0  0  0  0  0  0  0  0  0  0  0
    3.9859   -0.2437    4.6209 C   0  0  2  0  0  0  0  0  0  0  0  0
    3.1162    0.9521    4.1084 C   0  0  0  0  0  0  0  0  0  0  0  0
    1.6076    0.7766    3.7555 C   0  0  1  0  0  0  0  0  0  0  0  0
    1.3636    1.5615    2.4320 C   0  0  0  0  0  0  0  0  0  0  0  0
    1.1647   -0.7182    3.4923 C   0  0  2  0  0  0  0  0  0  0  0  0
   -0.1807   -0.8724    4.2549 C   0  0  0  0  0  0  0  0  0  0  0  0
   -0.6643    0.5425    4.5746 C   0  0  0  0  0  0  0  0  0  0  0  0
    0.6440    1.2729    4.8943 C   0  0  2  0  0  0  0  0  0  0  0  0
    0.5489    2.8169    5.2996 C   0  0  1  0  0  0  0  0  0  0  0  0
   -0.8360    3.4195    4.8963 C   0  0  0  0  0  0  0  0  0  0  0  0
   -0.9271    4.8015    5.2488 O   0  0  0  0  0  0  0  0  0  0  0  0
    0.2596    5.3435    5.7235 C   0  0  1  0  0  0  0  0  0  0  0  0
    0.1667    6.7726    5.8835 O   0  0  0  0  0  0  0  0  0  0  0  0
    0.5968    4.6452    7.0887 C   0  0  1  0  0  0  0  0  0  0  0  0
   -0.3737    4.9319    8.0870 O   0  0  0  0  0  0  0  0  0  0  0  0
    0.7936    3.0978    6.8396 C   0  0  1  0  0  0  0  0  0  0  0  0
   -0.2708    2.3997    7.4758 O   0  0  0  0  0  0  0  0  0  0  0  0
    2.1979    2.5397    7.3482 C   0  0  1  0  0  0  0  0  0  0  0  0
    3.2491    3.4144    6.9793 O   0  0  0  0  0  0  0  0  0  0  0  0
    2.4430    1.9709    8.7977 C   0  0  1  0  0  0  0  0  0  0  0  0
    3.0075    3.0734    9.7207 C   0  0  0  0  0  0  0  0  0  0  0  0
    1.2158    1.5551    9.4385 O   0  0  0  0  0  0  0  0  0  0  0  0
    1.8118    0.2897    9.8554 C   0  0  1  0  0  0  0  0  0  0  0  0
    2.1675    0.2262   11.2499 O   0  0  0  0  0  0  0  0  0  0  0  0
    0.8637   -0.8277    9.5216 C   0  0  0  0  0  0  0  0  0  0  0  0
    0.6810   -1.9578   10.5562 C   0  0  0  0  0  0  0  0  0  0  0  0
    0.1763   -0.9188    8.4865 O   0  0  0  0  0  0  0  0  0  0  0  0
    3.0329    0.5364    8.9376 C   0  0  2  0  0  0  0  0  0  0  0  0
    4.3364    0.4806    9.5428 O   0  0  0  0  0  0  0  0  0  0  0  0
    2.9331   -0.0992    7.6452 O   0  0  0  0  0  0  0  0  0  0  0  0
    3.3381   -1.4474    7.4621 C   0  0  0  0  0  0  0  0  0  0  0  0
    2.6115   -1.8971    6.1641 C   0  0  2  0  0  0  0  0  0  0  0  0
    1.9868   -3.6345    6.5057 S   0  0  0  0  0  0  0  0  0  0  0  0
    1.3566   -3.6600    7.9175 O   0  0  0  0  0  0  0  0  0  0  0  0
    0.5701   -3.8355    5.3213 C   0  0  0  0  0  0  0  0  0  0  0  0
    0.5641   -5.2240    4.6792 C   0  0  0  0  0  0  0  0  0  0  0  0
    1.7763   -5.5953    3.7934 C   0  0  2  0  0  0  0  0  0  0  0  0
    1.4688   -7.0284    3.2412 C   0  0  2  0  0  0  0  0  0  0  0  0
    2.6915   -7.9437    2.9295 C   0  0  0  0  0  0  0  0  0  0  0  0
    0.6530   -6.9549    2.0852 O   0  0  0  0  0  0  0  0  0  0  0  0
    2.8266   -5.8648    4.7394 O   0  0  0  0  0  0  0  0  0  0  0  0
    3.7448   -4.9823    4.0591 C   0  0  2  0  0  0  0  0  0  0  0  0
    4.2786   -4.0080    4.9522 O   0  0  0  0  0  0  0  0  0  0  0  0
    4.5353   -2.6950    4.5025 C   0  0  1  0  0  0  0  0  0  0  0  0
    5.3185   -2.7223    3.1450 C   0  0  0  0  0  0  0  0  0  0  0  0
    4.6495   -2.2810    1.8115 C   0  0  1  0  0  0  0  0  0  0  0  0
    5.5043   -2.7036    0.5977 C   0  0  0  0  0  0  0  0  0  0  0  0
    5.3712   -1.7439   -0.4388 O   0  0  0  0  0  0  0  0  0  0  0  0
    3.3176   -2.7265    1.5416 O   0  0  0  0  0  0  0  0  0  0  0  0
    2.3835   -3.0700    2.5929 C   0  0  2  0  0  0  0  0  0  0  0  0
    2.3417   -1.7834    3.5458 C   0  0  2  0  0  0  0  0  0  0  0  0
    3.3428   -1.6874    4.7409 C   0  0  2  0  0  0  0  0  0  0  0  0
    2.6961   -4.5599    3.0515 C   0  0  2  0  0  0  0  0  0  0  0  0
    2.9783   -5.0849    1.7523 O   0  0  0  0  0  0  0  0  0  0  0  0
    1.3540    5.0061    4.6474 C   0  0  0  0  0  0  0  0  0  0  0  0
    0.9065    5.4692    3.2437 C   0  0  0  0  0  0  0  0  0  0  0  0
    2.6951    5.7170    4.9406 C   0  0  0  0  0  0  0  0  0  0  0  0
    1.5666    3.5816    4.6385 O   0  0  0  0  0  0  0  0  0  0  0  0
    6.4329    1.2501    6.3506 H   0  0  0  0  0  0  0  0  0  0  0  0
    5.3244    2.0906    5.2950 H   0  0  0  0  0  0  0  0  0  0  0  0
    6.4546    0.9025    4.6273 H   0  0  0  0  0  0  0  0  0  0  0  0
    4.6944   -0.3294    3.8005 H   0  0  0  0  0  0  0  0  0  0  0  0
    3.2174    1.7781    4.7910 H   0  0  0  0  0  0  0  0  0  0  0  0
    3.6249    1.3339    3.2247 H   0  0  0  0  0  0  0  0  0  0  0  0
    0.3125    1.6190    2.1601 H   0  0  0  0  0  0  0  0  0  0  0  0
    1.8816    1.0873    1.5940 H   0  0  0  0  0  0  0  0  0  0  0  0
    1.7447    2.5808    2.4751 H   0  0  0  0  0  0  0  0  0  0  0  0
    0.8469   -0.7616    2.4469 H   0  0  0  0  0  0  0  0  0  0  0  0
   -0.9189   -1.4411    3.6895 H   0  0  0  0  0  0  0  0  0  0  0  0
   -0.0961   -1.3416    5.2266 H   0  0  0  0  0  0  0  0  0  0  0  0
   -1.1854    0.9614    3.7073 H   0  0  0  0  0  0  0  0  0  0  0  0
   -1.3580    0.5465    5.4108 H   0  0  0  0  0  0  0  0  0  0  0  0
    0.9498    0.7317    5.7838 H   0  0  0  0  0  0  0  0  0  0  0  0
   -1.0177    3.3134    3.8279 H   0  0  0  0  0  0  0  0  0  0  0  0
   -1.6686    2.9152    5.3852 H   0  0  0  0  0  0  0  0  0  0  0  0
    0.3902    7.1592    5.0667 H   0  0  0  0  0  0  0  0  0  0  0  0
    1.5087    5.0929    7.4617 H   0  0  0  0  0  0  0  0  0  0  0  0
   -0.0430    4.6838    8.9235 H   0  0  0  0  0  0  0  0  0  0  0  0
   -0.1342    2.4563    8.4024 H   0  0  0  0  0  0  0  0  0  0  0  0
    2.4247    1.7581    6.6679 H   0  0  0  0  0  0  0  0  0  0  0  0
    3.1678    3.5847    6.0558 H   0  0  0  0  0  0  0  0  0  0  0  0
    4.0197    3.3606    9.4371 H   0  0  0  0  0  0  0  0  0  0  0  0
    3.0686    2.7450   10.7577 H   0  0  0  0  0  0  0  0  0  0  0  0
    2.3981    3.9807    9.7046 H   0  0  0  0  0  0  0  0  0  0  0  0
    1.4050    0.5188   11.7072 H   0  0  0  0  0  0  0  0  0  0  0  0
    1.5283   -2.6477   10.5503 H   0  0  0  0  0  0  0  0  0  0  0  0
   -0.2112   -2.5366   10.3138 H   0  0  0  0  0  0  0  0  0  0  0  0
    0.5408   -1.5796   11.5743 H   0  0  0  0  0  0  0  0  0  0  0  0
    4.5551   -0.4196    9.6278 H   0  0  0  0  0  0  0  0  0  0  0  0
    4.4208   -1.5642    7.4044 H   0  0  0  0  0  0  0  0  0  0  0  0
    3.0296   -2.0318    8.3319 H   0  0  0  0  0  0  0  0  0  0  0  0
    1.7141   -1.2985    6.1628 H   0  0  0  0  0  0  0  0  0  0  0  0
   -0.3662   -3.6340    5.8485 H   0  0  0  0  0  0  0  0  0  0  0  0
    0.6235   -3.1621    4.4956 H   0  0  0  0  0  0  0  0  0  0  0  0
    0.3821   -5.9659    5.4528 H   0  0  0  0  0  0  0  0  0  0  0  0
   -0.3224   -5.2344    4.0609 H   0  0  0  0  0  0  0  0  0  0  0  0
    0.8921   -7.5964    3.9760 H   0  0  0  0  0  0  0  0  0  0  0  0
    3.3346   -8.0567    3.8079 H   0  0  0  0  0  0  0  0  0  0  0  0
    3.3313   -7.6009    2.1208 H   0  0  0  0  0  0  0  0  0  0  0  0
    2.3857   -8.9542    2.6686 H   0  0  0  0  0  0  0  0  0  0  0  0
    0.5427   -7.8267    1.7427 H   0  0  0  0  0  0  0  0  0  0  0  0
    4.5403   -5.5478    3.5894 H   0  0  0  0  0  0  0  0  0  0  0  0
    5.2905   -2.4116    5.2410 H   0  0  0  0  0  0  0  0  0  0  0  0
    6.1491   -2.0262    3.2495 H   0  0  0  0  0  0  0  0  0  0  0  0
    5.8126   -3.6827    3.0217 H   0  0  0  0  0  0  0  0  0  0  0  0
    4.6216   -1.1925    1.8035 H   0  0  0  0  0  0  0  0  0  0  0  0
    6.5627   -2.7360    0.8633 H   0  0  0  0  0  0  0  0  0  0  0  0
    5.2315   -3.6962    0.2414 H   0  0  0  0  0  0  0  0  0  0  0  0
    4.4573   -1.6812   -0.6461 H   0  0  0  0  0  0  0  0  0  0  0  0
    1.4278   -3.0930    2.0846 H   0  0  0  0  0  0  0  0  0  0  0  0
    2.8332   -1.1403    2.8380 H   0  0  0  0  0  0  0  0  0  0  0  0
    3.0403   -6.0037    1.8371 H   0  0  0  0  0  0  0  0  0  0  0  0
    0.7579    6.5453    3.2107 H   0  0  0  0  0  0  0  0  0  0  0  0
   -0.0235    5.0252    2.8971 H   0  0  0  0  0  0  0  0  0  0  0  0
    1.6609    5.2318    2.4941 H   0  0  0  0  0  0  0  0  0  0  0  0
    2.6457    6.7794    4.7126 H   0  0  0  0  0  0  0  0  0  0  0  0
    3.4886    5.2938    4.3206 H   0  0  0  0  0  0  0  0  0  0  0  0
    3.0176    5.6451    5.9773 H   0  0  0  0  0  0  0  0  0  0  0  0
  1  2  1  0
  1 61  1  0
  1 62  1  0
  1 63  1  0
  2  3  1  0
 54  3  1  1
  3  4  1  0
  3 64  1  6
  4  5  1  0
  4 65  1  0
  4 66  1  0
  5 10  1  0
  5  6  1  6
  5  7  1  0
  6 67  1  0
  6 68  1  0
  6 69  1  0
  7 53  1  0
  7  8  1  0
  7 70  1  6
  8  9  1  0
  8 71  1  0
  8 72  1  0
  9 10  1  0
  9 73  1  0
  9 74  1  0
 10 11  1  0
 10 75  1  1
 11 18  1  0
 11 60  1  6
 11 12  1  0
 12 13  1  0
 12 76  1  0
 12 77  1  0
 13 14  1  0
 14 15  1  1
 14 16  1  0
 14 57  1  0
 15 78  1  0
 16 17  1  0
 16 18  1  0
 16 79  1  1
 17 80  1  0
 18 19  1  1
 18 20  1  0
 19 81  1  0
 20 21  1  0
 20 22  1  0
 20 82  1  6
 21 83  1  0
 22 30  1  0
 22 23  1  1
 22 24  1  0
 23 84  1  0
 23 85  1  0
 23 86  1  0
 24 25  1  0
 25 26  1  1
 25 27  1  0
 25 30  1  0
 26 87  1  0
 27 28  1  0
 27 29  2  0
 28 88  1  0
 28 89  1  0
 28 90  1  0
 30 31  1  1
 30 32  1  0
 31 91  1  0
 32 33  1  0
 33 34  1  0
 33 92  1  0
 33 93  1  0
 34 54  1  0
 34 35  1  0
 34 94  1  6
 35 36  2  0
 35 37  1  6
 37 38  1  0
 37 95  1  0
 37 96  1  0
 38 39  1  0
 38 97  1  0
 38 98  1  0
 39 55  1  0
 39 40  1  0
 39 43  1  1
 40 41  1  0
 40 42  1  0
 40 99  1  1
 41100  1  0
 41101  1  0
 41102  1  0
 42103  1  0
 43 44  1  0
 44 55  1  0
 44 45  1  0
 44104  1  6
 45 46  1  0
 46 54  1  0
 46 47  1  0
 46105  1  1
 47 48  1  0
 47106  1  0
 47107  1  0
 48 49  1  0
 48 51  1  0
 48108  1  1
 49 50  1  0
 49109  1  0
 49110  1  0
 50111  1  0
 51 52  1  0
 52 53  1  0
 52 55  1  0
 52112  1  6
 53 54  1  0
 53113  1  6
 55 56  1  6
 56114  1  0
 57 58  1  0
 57 59  1  0
 57 60  1  0
 58115  1  0
 58116  1  0
 58117  1  0
 59118  1  0
 59119  1  0
 59120  1  0
M  END
>  <i_m_ct_stereo_status>  (72) 
1

>  <s_m_source_file>  (72) 
/var/tmp/pbs.5075288.sched01/tmpq0rgj53d/65gxdktgdh.sdf

>  <i_m_source_file_index>  (72) 
12

>  <i_lp_mmshare_version>  (72) 
48012

>  <i_f3d_flags>  (72) 
0

>  <s_epik_input>  (72) 
W0NIMl0xT1tDQF0oW09IXSkoQyhPMikoW0NIM10pW0NIM10pW0NAQEhdKFtPSF0pW0NAXTMoW09IXSlbQ0BASF0oW09IXSlbQ0BAXShbQ0gzXSkoT1tDQEBdNChbT0hdKUMoPU8pW0NIM10pW0NAXTQoW09IXSlPW0NIMl1bQ0BASF0oW0NAXTUoW0NAQEhdKFtDSDJdNilPW0NIM10pW0NAQEhdN1tDQEhdKFtDQEBdNihbQ0gzXSlbQ0BIXThbQ0BdMTIzKVtDSDJdW0NIMl04KVtTK10oW08tXSlbQ0gyXVtDSDJdW0NAQF05KFtDQEhdKFtDSDNdKVtPSF0pW0NAXTEoW09IXSlbQ0BIXShPOSlPW0NASF01W0NIMl1bQ0BASF0oW0NIMl1bT0hdKU9bQ0BASF0xNw==

>  <s_epik_cmdline>  (72) 
J2VwaWtfcHl0aG9uJywgJy1waHQnLCAnMi4wJywgJy1waCcsICc3LjAnLCAnLXRuJywgJzgnLCAnLW1hJywgJzIwMCcsICctaW1hZScsICc8aW5maWxlLm1hZT4nLCAnLW9tYWUnLCAnPG91dGZpbGUubWFlPic=

>  <r_lp_tautomer_probability>  (72) 
1

>  <r_epik_Ionization_Penalty>  (72) 
0.000109046

>  <r_epik_Ionization_Penalty_Charging>  (72) 
0

>  <r_epik_Ionization_Penalty_Neutral>  (72) 
0.000109046

>  <r_epik_State_Penalty>  (72) 
-0

>  <r_epik_Charging_Adjusted_Penalty>  (72) 
0

>  <i_epik_Tot_Q>  (72) 
0

>  <i_epik_Tot_abs_Q>  (72) 
2

>  <s_epik_Chemistry_Notes>  (72) 
This compound contains an acetal/aminal-like group ( X-CH(R)-Y where X, Y are N, S, or O) that may be acid/base labile, releasing an aldehyde.

>  <s_lp_Force_Field>  (72) 
OPLS3e

>  <r_lp_Energy>  (72) 
191.172

>  <b_lp_Chiralities_Consistent>  (72) 
1

>  <s_lp_Variant>  (72) 
16:0-1

>  <s_i_glide_gridfile>  (72) 
pfpi4k_grid

>  <i_i_glide_lignum>  (72) 
12

>  <i_i_glide_rotatable_bonds>  (72) 
13

>  <r_i_docking_score>  (72) 
-4.00828

>  <r_i_glide_ligand_efficiency>  (72) 
-0.0668047

>  <r_i_glide_ligand_efficiency_sa>  (72) 
-0.261532

>  <r_i_glide_ligand_efficiency_ln>  (72) 
-0.78681

>  <r_i_glide_gscore>  (72) 
-4.00828

>  <r_i_glide_lipo>  (72) 
-0.202941

>  <r_i_glide_hbond>  (72) 
-0.0328226

>  <r_i_glide_metal>  (72) 
-0

>  <r_i_glide_rewards>  (72) 
-1

>  <r_i_glide_evdw>  (72) 
-28.1038

>  <r_i_glide_ecoul>  (72) 
-9.24589

>  <r_i_glide_erotb>  (72) 
0.0571927

>  <r_i_glide_esite>  (72) 
-0.0376386

>  <r_i_glide_emodel>  (72) 
-53.8672

>  <r_i_glide_energy>  (72) 
-37.3497

>  <r_i_glide_einternal>  (72) 
6.14417

>  <r_i_glide_intrahb_reward>  (72) 
-1

>  <i_i_glide_confnum>  (72) 
5

>  <i_i_glide_posenum>  (72) 
5

>  <r_i_glide_eff_state_penalty>  (72) 
0

>  <ligand_id>  (72) 
16

>  <original_smiles>  (72) 
COC1CC2(C)C3CCC2C24COC(O)(C(O)C2(O)C(O)C2(C)OC(O)(C(C)=O)C2(O)OCC2[S+]([O-])CCC5(C(C)O)OC6OC7CC(CO)OC(C3C172)C65O)C(C)(C)O4

>  <smiles>  (72) 
[H]OC([H])([H])C1([H])OC2([H])C3([H])C4([H])C([H])([H])C([H])([H])C5([H])C67OC(C([H])([H])[H])(C([H])([H])[H])C(O[H])(OC6([H])[H])C([H])(O[H])C7(O[H])C([H])(O[H])C6(C([H])([H])[H])OC(O[H])(C(=O)C([H])([H])[H])C6(O[H])OC([H])([H])C6([H])S(=O)C([H])([H])C([H])([H])C7(C([H])(O[H])C([H])([H])[H])OC([H])(OC([H])(C1([H])[H])C63C([H])(OC([H])([H])[H])C([H])([H])C45C([H])([H])[H])C27O[H]

$$$$
16:0:1
     RDKit          3D

120129  0  0  1  0  0  0  0  0999 V2000
    5.8884    1.1584    5.6840 C   0  0  0  0  0  0  0  0  0  0  0  0
    4.8884    0.1769    5.9374 O   0  0  0  0  0  0  0  0  0  0  0  0
    4.0390   -0.1897    4.8497 C   0  0  2  0  0  0  0  0  0  0  0  0
    3.2535    1.0213    4.2508 C   0  0  0  0  0  0  0  0  0  0  0  0
    1.7480    0.9104    3.8539 C   0  0  1  0  0  0  0  0  0  0  0  0
    1.5899    1.6302    2.4821 C   0  0  0  0  0  0  0  0  0  0  0  0
    1.2224   -0.5664    3.6715 C   0  0  2  0  0  0  0  0  0  0  0  0
   -0.1513   -0.5898    4.4055 C   0  0  0  0  0  0  0  0  0  0  0  0
   -0.5508    0.8684    4.6248 C   0  0  0  0  0  0  0  0  0  0  0  0
    0.7935    1.5359    4.9333 C   0  0  2  0  0  0  0  0  0  0  0  0
    0.7867    3.1027    5.2397 C   0  0  1  0  0  0  0  0  0  0  0  0
   -0.5480    3.7699    4.7632 C   0  0  0  0  0  0  0  0  0  0  0  0
   -0.5731    5.1698    5.0485 O   0  0  0  0  0  0  0  0  0  0  0  0
    0.6461    5.6803    5.5077 C   0  0  1  0  0  0  0  0  0  0  0  0
    0.6201    7.0933    5.5868 O   0  0  0  0  0  0  0  0  0  0  0  0
    0.9001    5.0357    6.9160 C   0  0  1  0  0  0  0  0  0  0  0  0
   -0.0831    5.4361    7.8563 O   0  0  0  0  0  0  0  0  0  0  0  0
    1.0094    3.4662    6.7686 C   0  0  1  0  0  0  0  0  0  0  0  0
   -0.1005    2.8528    7.4085 O   0  0  0  0  0  0  0  0  0  0  0  0
    2.3641    2.8648    7.3538 C   0  0  1  0  0  0  0  0  0  0  0  0
    3.4810    3.6354    6.9605 O   0  0  0  0  0  0  0  0  0  0  0  0
    2.5355    2.3816    8.8474 C   0  0  1  0  0  0  0  0  0  0  0  0
    3.1507    3.4982    9.7150 C   0  0  0  0  0  0  0  0  0  0  0  0
    1.2820    2.0720    9.5178 O   0  0  0  0  0  0  0  0  0  0  0  0
    1.7904    0.7972    9.9941 C   0  0  1  0  0  0  0  0  0  0  0  0
    2.0944    0.7897   11.3728 O   0  0  0  0  0  0  0  0  0  0  0  0
    0.7538   -0.2886    9.6849 C   0  0  0  0  0  0  0  0  0  0  0  0
    0.6818   -1.4769   10.6581 C   0  0  0  0  0  0  0  0  0  0  0  0
   -0.0285   -0.2850    8.7363 O   0  0  0  0  0  0  0  0  0  0  0  0
    3.0409    0.9176    9.0784 C   0  0  2  0  0  0  0  0  0  0  0  0
    4.3230    0.8209    9.6928 O   0  0  0  0  0  0  0  0  0  0  0  0
    2.9448    0.2088    7.8408 O   0  0  0  0  0  0  0  0  0  0  0  0
    3.2522   -1.1757    7.7471 C   0  0  0  0  0  0  0  0  0  0  0  0
    2.5241   -1.6584    6.4568 C   0  0  2  0  0  0  0  0  0  0  0  0
    1.7843   -3.3296    6.8847 S   0  0  0  0  0  0  0  0  0  0  0  0
    1.1135   -3.2337    8.2628 O   0  0  0  0  0  0  0  0  0  0  0  0
    0.3889   -3.5053    5.6779 C   0  0  0  0  0  0  0  0  0  0  0  0
    0.3013   -4.9204    5.1366 C   0  0  0  0  0  0  0  0  0  0  0  0
    1.5076   -5.4586    4.3332 C   0  0  2  0  0  0  0  0  0  0  0  0
    1.1457   -6.8909    3.8010 C   0  0  2  0  0  0  0  0  0  0  0  0
    0.1761   -6.9269    2.6052 C   0  0  0  0  0  0  0  0  0  0  0  0
    0.5230   -7.6846    4.7968 O   0  0  0  0  0  0  0  0  0  0  0  0
    2.5751   -5.7710    5.2610 O   0  0  0  0  0  0  0  0  0  0  0  0
    3.5284   -4.9434    4.5615 C   0  0  2  0  0  0  0  0  0  0  0  0
    4.0667   -3.9513    5.4098 O   0  0  0  0  0  0  0  0  0  0  0  0
    4.4351   -2.6773    4.9121 C   0  0  1  0  0  0  0  0  0  0  0  0
    5.2466   -2.8360    3.5845 C   0  0  0  0  0  0  0  0  0  0  0  0
    4.6251   -2.5031    2.1976 C   0  0  1  0  0  0  0  0  0  0  0  0
    5.4857   -2.9880    1.0161 C   0  0  0  0  0  0  0  0  0  0  0  0
    5.7053   -4.3787    1.0913 O   0  0  0  0  0  0  0  0  0  0  0  0
    3.2665   -2.8660    1.9133 O   0  0  0  0  0  0  0  0  0  0  0  0
    2.2930   -3.0525    2.9704 C   0  0  2  0  0  0  0  0  0  0  0  0
    2.3298   -1.7010    3.8309 C   0  0  2  0  0  0  0  0  0  0  0  0
    3.3048   -1.5855    5.0493 C   0  0  2  0  0  0  0  0  0  0  0  0
    2.4955   -4.5536    3.4947 C   0  0  2  0  0  0  0  0  0  0  0  0
    2.7648   -5.2037    2.2647 O   0  0  0  0  0  0  0  0  0  0  0  0
    1.7432    5.2171    4.4817 C   0  0  0  0  0  0  0  0  0  0  0  0
    1.3667    5.6309    3.0447 C   0  0  0  0  0  0  0  0  0  0  0  0
    3.1234    5.8469    4.7780 C   0  0  0  0  0  0  0  0  0  0  0  0
    1.8571    3.7824    4.5561 O   0  0  0  0  0  0  0  0  0  0  0  0
    6.5101    1.2869    6.5713 H   0  0  0  0  0  0  0  0  0  0  0  0
    5.4489    2.1312    5.4729 H   0  0  0  0  0  0  0  0  0  0  0  0
    6.5462    0.8806    4.8595 H   0  0  0  0  0  0  0  0  0  0  0  0
    4.7654   -0.3685    4.0610 H   0  0  0  0  0  0  0  0  0  0  0  0
    3.3848    1.8886    4.8767 H   0  0  0  0  0  0  0  0  0  0  0  0
    3.8108    1.3121    3.3590 H   0  0  0  0  0  0  0  0  0  0  0  0
    0.5491    1.7372    2.1787 H   0  0  0  0  0  0  0  0  0  0  0  0
    2.0982    1.0751    1.6901 H   0  0  0  0  0  0  0  0  0  0  0  0
    2.0305    2.6255    2.4784 H   0  0  0  0  0  0  0  0  0  0  0  0
    0.9234   -0.6593    2.6232 H   0  0  0  0  0  0  0  0  0  0  0  0
   -0.9135   -1.1431    3.8559 H   0  0  0  0  0  0  0  0  0  0  0  0
   -0.1194   -1.0019    5.4078 H   0  0  0  0  0  0  0  0  0  0  0  0
   -1.0245    1.2663    3.7265 H   0  0  0  0  0  0  0  0  0  0  0  0
   -1.2638    0.9654    5.4458 H   0  0  0  0  0  0  0  0  0  0  0  0
    1.0457    1.0401    5.8636 H   0  0  0  0  0  0  0  0  0  0  0  0
   -0.7068    3.6156    3.6954 H   0  0  0  0  0  0  0  0  0  0  0  0
   -1.4221    3.3397    5.2531 H   0  0  0  0  0  0  0  0  0  0  0  0
    0.6762    7.4378    4.7010 H   0  0  0  0  0  0  0  0  0  0  0  0
    1.8301    5.4542    7.2967 H   0  0  0  0  0  0  0  0  0  0  0  0
    0.1885    5.1336    8.7123 H   0  0  0  0  0  0  0  0  0  0  0  0
   -0.8875    3.3046    7.1332 H   0  0  0  0  0  0  0  0  0  0  0  0
    2.5546    2.0221    6.7350 H   0  0  0  0  0  0  0  0  0  0  0  0
    3.4456    3.7352    6.0162 H   0  0  0  0  0  0  0  0  0  0  0  0
    4.1900    3.7040    9.4403 H   0  0  0  0  0  0  0  0  0  0  0  0
    3.1638    3.2310   10.7719 H   0  0  0  0  0  0  0  0  0  0  0  0
    2.5974    4.4351    9.6233 H   0  0  0  0  0  0  0  0  0  0  0  0
    1.3334    1.1585   11.8012 H   0  0  0  0  0  0  0  0  0  0  0  0
    1.5038   -2.1775   10.4925 H   0  0  0  0  0  0  0  0  0  0  0  0
   -0.2534   -2.0178   10.4837 H   0  0  0  0  0  0  0  0  0  0  0  0
    0.6867   -1.1774   11.7060 H   0  0  0  0  0  0  0  0  0  0  0  0
    4.4261   -0.0758    9.9810 H   0  0  0  0  0  0  0  0  0  0  0  0
    4.3278   -1.3594    7.7217 H   0  0  0  0  0  0  0  0  0  0  0  0
    2.8904   -1.6838    8.6405 H   0  0  0  0  0  0  0  0  0  0  0  0
    1.6671   -1.0070    6.3958 H   0  0  0  0  0  0  0  0  0  0  0  0
   -0.5407   -3.2131    6.1658 H   0  0  0  0  0  0  0  0  0  0  0  0
    0.5054   -2.9000    4.8080 H   0  0  0  0  0  0  0  0  0  0  0  0
    0.0302   -5.5791    5.9629 H   0  0  0  0  0  0  0  0  0  0  0  0
   -0.5656   -4.9182    4.4833 H   0  0  0  0  0  0  0  0  0  0  0  0
    2.0572   -7.4162    3.5129 H   0  0  0  0  0  0  0  0  0  0  0  0
    0.5065   -6.2957    1.7823 H   0  0  0  0  0  0  0  0  0  0  0  0
   -0.8273   -6.6233    2.8995 H   0  0  0  0  0  0  0  0  0  0  0  0
    0.0911   -7.9438    2.2164 H   0  0  0  0  0  0  0  0  0  0  0  0
    0.4992   -8.5878    4.5083 H   0  0  0  0  0  0  0  0  0  0  0  0
    4.3265   -5.5551    4.1438 H   0  0  0  0  0  0  0  0  0  0  0  0
    5.1868   -2.3931    5.6507 H   0  0  0  0  0  0  0  0  0  0  0  0
    6.0964   -2.1634    3.6397 H   0  0  0  0  0  0  0  0  0  0  0  0
    5.7106   -3.8209    3.5805 H   0  0  0  0  0  0  0  0  0  0  0  0
    4.6566   -1.4197    2.0871 H   0  0  0  0  0  0  0  0  0  0  0  0
    5.0069   -2.7448    0.0663 H   0  0  0  0  0  0  0  0  0  0  0  0
    6.4581   -2.4885    1.0278 H   0  0  0  0  0  0  0  0  0  0  0  0
    4.8534   -4.7962    1.0781 H   0  0  0  0  0  0  0  0  0  0  0  0
    1.3411   -3.0460    2.4470 H   0  0  0  0  0  0  0  0  0  0  0  0
    2.8819   -1.1413    3.0938 H   0  0  0  0  0  0  0  0  0  0  0  0
    3.0248   -6.0875    2.4711 H   0  0  0  0  0  0  0  0  0  0  0  0
    1.3191    6.7121    2.9366 H   0  0  0  0  0  0  0  0  0  0  0  0
    0.3946    5.2526    2.7499 H   0  0  0  0  0  0  0  0  0  0  0  0
    2.1000    5.2686    2.3204 H   0  0  0  0  0  0  0  0  0  0  0  0
    3.1436    6.8967    4.4864 H   0  0  0  0  0  0  0  0  0  0  0  0
    3.8989    5.3385    4.2026 H   0  0  0  0  0  0  0  0  0  0  0  0
    3.4076    5.8172    5.8234 H   0  0  0  0  0  0  0  0  0  0  0  0
  1  2  1  0
  1 61  1  0
  1 62  1  0
  1 63  1  0
  2  3  1  0
 54  3  1  6
  3  4  1  0
  3 64  1  6
  4  5  1  0
  4 65  1  0
  4 66  1  0
  5 10  1  0
  5  6  1  6
  5  7  1  0
  6 67  1  0
  6 68  1  0
  6 69  1  0
  7 53  1  0
  7  8  1  0
  7 70  1  6
  8  9  1  0
  8 71  1  0
  8 72  1  0
  9 10  1  0
  9 73  1  0
  9 74  1  0
 10 11  1  0
 10 75  1  1
 11 18  1  0
 11 60  1  6
 11 12  1  0
 12 13  1  0
 12 76  1  0
 12 77  1  0
 13 14  1  0
 14 15  1  1
 14 16  1  0
 14 57  1  0
 15 78  1  0
 16 17  1  0
 16 18  1  0
 16 79  1  1
 17 80  1  0
 18 19  1  1
 18 20  1  0
 19 81  1  0
 20 21  1  0
 20 22  1  0
 20 82  1  6
 21 83  1  0
 22 30  1  0
 22 23  1  1
 22 24  1  0
 23 84  1  0
 23 85  1  0
 23 86  1  0
 24 25  1  0
 25 26  1  1
 25 27  1  0
 25 30  1  0
 26 87  1  0
 27 28  1  0
 27 29  2  0
 28 88  1  0
 28 89  1  0
 28 90  1  0
 30 31  1  1
 30 32  1  0
 31 91  1  0
 32 33  1  0
 33 34  1  0
 33 92  1  0
 33 93  1  0
 34 54  1  0
 34 35  1  0
 34 94  1  6
 35 36  2  0
 35 37  1  6
 37 38  1  0
 37 95  1  0
 37 96  1  0
 38 39  1  0
 38 97  1  0
 38 98  1  0
 39 55  1  0
 39 40  1  0
 39 43  1  1
 40 41  1  0
 40 42  1  0
 40 99  1  6
 41100  1  0
 41101  1  0
 41102  1  0
 42103  1  0
 43 44  1  0
 44 55  1  0
 44 45  1  0
 44104  1  6
 45 46  1  0
 46 54  1  0
 46 47  1  0
 46105  1  1
 47 48  1  0
 47106  1  0
 47107  1  0
 48 49  1  0
 48 51  1  0
 48108  1  6
 49 50  1  0
 49109  1  0
 49110  1  0
 50111  1  0
 51 52  1  0
 52 53  1  0
 52 55  1  0
 52112  1  6
 53 54  1  0
 53113  1  6
 55 56  1  6
 56114  1  0
 57 58  1  0
 57 59  1  0
 57 60  1  0
 58115  1  0
 58116  1  0
 58117  1  0
 59118  1  0
 59119  1  0
 59120  1  0
M  END
>  <i_m_ct_stereo_status>  (73) 
1

>  <s_m_source_file>  (73) 
/var/tmp/pbs.5075288.sched01/tmpq0rgj53d/65gxdktgdh.sdf

>  <i_m_source_file_index>  (73) 
12

>  <i_lp_mmshare_version>  (73) 
48012

>  <i_f3d_flags>  (73) 
0

>  <s_epik_input>  (73) 
W0NIMl0xT1tDQF0oW09IXSkoQyhPMikoW0NIM10pW0NIM10pW0NAQEhdKFtPSF0pW0NAXTMoW09IXSlbQ0BASF0oW09IXSlbQ0BAXShbQ0gzXSkoT1tDQEBdNChbT0hdKUMoPU8pW0NIM10pW0NAXTQoW09IXSlPW0NIMl1bQ0BASF0oW0NAXTUoW0NAQEhdKFtDSDJdNilPW0NIM10pW0NAQEhdN1tDQEhdKFtDQEBdNihbQ0gzXSlbQ0BIXThbQ0BdMTIzKVtDSDJdW0NIMl04KVtTK10oW08tXSlbQ0gyXVtDSDJdW0NAQF05KFtDQEhdKFtDSDNdKVtPSF0pW0NAXTEoW09IXSlbQ0BIXShPOSlPW0NASF01W0NIMl1bQ0BASF0oW0NIMl1bT0hdKU9bQ0BASF0xNw==

>  <s_epik_cmdline>  (73) 
J2VwaWtfcHl0aG9uJywgJy1waHQnLCAnMi4wJywgJy1waCcsICc3LjAnLCAnLXRuJywgJzgnLCAnLW1hJywgJzIwMCcsICctaW1hZScsICc8aW5maWxlLm1hZT4nLCAnLW9tYWUnLCAnPG91dGZpbGUubWFlPic=

>  <r_lp_tautomer_probability>  (73) 
1

>  <r_epik_Ionization_Penalty>  (73) 
0.000109046

>  <r_epik_Ionization_Penalty_Charging>  (73) 
0

>  <r_epik_Ionization_Penalty_Neutral>  (73) 
0.000109046

>  <r_epik_State_Penalty>  (73) 
-0

>  <r_epik_Charging_Adjusted_Penalty>  (73) 
0

>  <i_epik_Tot_Q>  (73) 
0

>  <i_epik_Tot_abs_Q>  (73) 
2

>  <s_epik_Chemistry_Notes>  (73) 
This compound contains an acetal/aminal-like group ( X-CH(R)-Y where X, Y are N, S, or O) that may be acid/base labile, releasing an aldehyde.

>  <s_lp_Force_Field>  (73) 
OPLS3e

>  <r_lp_Energy>  (73) 
191.172

>  <b_lp_Chiralities_Consistent>  (73) 
1

>  <s_lp_Variant>  (73) 
16:0-1

>  <s_i_glide_gridfile>  (73) 
pfpi4k_grid

>  <i_i_glide_lignum>  (73) 
12

>  <i_i_glide_rotatable_bonds>  (73) 
13

>  <r_i_docking_score>  (73) 
-3.52525

>  <r_i_glide_ligand_efficiency>  (73) 
-0.0587541

>  <r_i_glide_ligand_efficiency_sa>  (73) 
-0.230015

>  <r_i_glide_ligand_efficiency_ln>  (73) 
-0.691992

>  <r_i_glide_gscore>  (73) 
-3.52525

>  <r_i_glide_lipo>  (73) 
-0.204441

>  <r_i_glide_hbond>  (73) 
-0.0048567

>  <r_i_glide_metal>  (73) 
-0

>  <r_i_glide_rewards>  (73) 
-1

>  <r_i_glide_evdw>  (73) 
-26.2354

>  <r_i_glide_ecoul>  (73) 
-6.83137

>  <r_i_glide_erotb>  (73) 
0.0571927

>  <r_i_glide_esite>  (73) 
-0.0366687

>  <r_i_glide_emodel>  (73) 
-48.4531

>  <r_i_glide_energy>  (73) 
-33.0667

>  <r_i_glide_einternal>  (73) 
6.20517

>  <r_i_glide_intrahb_reward>  (73) 
-1

>  <i_i_glide_confnum>  (73) 
3

>  <i_i_glide_posenum>  (73) 
18

>  <r_i_glide_eff_state_penalty>  (73) 
0

>  <ligand_id>  (73) 
16

>  <original_smiles>  (73) 
COC1CC2(C)C3CCC2C24COC(O)(C(O)C2(O)C(O)C2(C)OC(O)(C(C)=O)C2(O)OCC2[S+]([O-])CCC5(C(C)O)OC6OC7CC(CO)OC(C3C172)C65O)C(C)(C)O4

>  <smiles>  (73) 
[H]OC([H])([H])C1([H])OC2([H])C3([H])C4([H])C([H])([H])C([H])([H])C5([H])C67OC(C([H])([H])[H])(C([H])([H])[H])C(O[H])(OC6([H])[H])C([H])(O[H])C7(O[H])C([H])(O[H])C6(C([H])([H])[H])OC(O[H])(C(=O)C([H])([H])[H])C6(O[H])OC([H])([H])C6([H])S(=O)C([H])([H])C([H])([H])C7(C([H])(O[H])C([H])([H])[H])OC([H])(OC([H])(C1([H])[H])C63C([H])(OC([H])([H])[H])C([H])([H])C45C([H])([H])[H])C27O[H]

$$$$
16:0:2
     RDKit          3D

120129  0  0  1  0  0  0  0  0999 V2000
    6.0654    1.2092    5.3960 C   0  0  0  0  0  0  0  0  0  0  0  0
    5.1592    0.1187    5.4900 O   0  0  0  0  0  0  0  0  0  0  0  0
    4.3259   -0.1354    4.3574 C   0  0  2  0  0  0  0  0  0  0  0  0
    3.4170    1.0741    3.9746 C   0  0  0  0  0  0  0  0  0  0  0  0
    1.9282    0.9104    3.5652 C   0  0  1  0  0  0  0  0  0  0  0  0
    1.6861    1.8121    2.3182 C   0  0  0  0  0  0  0  0  0  0  0  0
    1.5280   -0.5599    3.1648 C   0  0  2  0  0  0  0  0  0  0  0  0
    0.1908   -0.8051    3.9174 C   0  0  0  0  0  0  0  0  0  0  0  0
   -0.3347    0.5603    4.3463 C   0  0  0  0  0  0  0  0  0  0  0  0
    0.9543    1.2899    4.7359 C   0  0  2  0  0  0  0  0  0  0  0  0
    0.8237    2.7864    5.2725 C   0  0  1  0  0  0  0  0  0  0  0  0
   -0.5690    3.3997    4.9233 C   0  0  0  0  0  0  0  0  0  0  0  0
   -0.6944    4.7331    5.4190 O   0  0  0  0  0  0  0  0  0  0  0  0
    0.4903    5.2711    5.9389 C   0  0  1  0  0  0  0  0  0  0  0  0
    0.3553    6.6428    6.2335 O   0  0  0  0  0  0  0  0  0  0  0  0
    0.8435    4.4471    7.2284 C   0  0  1  0  0  0  0  0  0  0  0  0
   -0.1289    4.6151    8.2496 O   0  0  0  0  0  0  0  0  0  0  0  0
    1.0570    2.9410    6.8322 C   0  0  1  0  0  0  0  0  0  0  0  0
    0.0074    2.1787    7.4128 O   0  0  0  0  0  0  0  0  0  0  0  0
    2.4684    2.3664    7.2949 C   0  0  1  0  0  0  0  0  0  0  0  0
    3.5243    3.2637    7.0258 O   0  0  0  0  0  0  0  0  0  0  0  0
    2.6967    1.6855    8.6950 C   0  0  1  0  0  0  0  0  0  0  0  0
    3.2463    2.6979    9.7233 C   0  0  0  0  0  0  0  0  0  0  0  0
    1.4699    1.1612    9.2808 O   0  0  0  0  0  0  0  0  0  0  0  0
    2.1275   -0.1010    9.6037 C   0  0  1  0  0  0  0  0  0  0  0  0
    2.4504   -0.2606   10.9618 O   0  0  0  0  0  0  0  0  0  0  0  0
    1.2305   -1.2571    9.2102 C   0  0  0  0  0  0  0  0  0  0  0  0
    0.2793   -1.0434    8.0388 C   0  0  0  0  0  0  0  0  0  0  0  0
    1.1510   -2.3433    9.8054 O   0  0  0  0  0  0  0  0  0  0  0  0
    3.3368    0.2518    8.6852 C   0  0  2  0  0  0  0  0  0  0  0  0
    4.6329    0.1687    9.2703 O   0  0  0  0  0  0  0  0  0  0  0  0
    3.2584   -0.2863    7.3614 O   0  0  0  0  0  0  0  0  0  0  0  0
    3.6948   -1.6097    7.0740 C   0  0  0  0  0  0  0  0  0  0  0  0
    2.9991   -1.9605    5.7247 C   0  0  2  0  0  0  0  0  0  0  0  0
    2.3995   -3.7277    5.9065 S   0  0  0  0  0  0  0  0  0  0  0  0
    1.7478   -3.8670    7.2920 O   0  0  0  0  0  0  0  0  0  0  0  0
    0.9928   -3.8300    4.7028 C   0  0  0  0  0  0  0  0  0  0  0  0
    1.0158   -5.1506    3.9630 C   0  0  0  0  0  0  0  0  0  0  0  0
    2.2309   -5.4591    3.0833 C   0  0  2  0  0  0  0  0  0  0  0  0
    1.9733   -6.8030    2.3230 C   0  0  2  0  0  0  0  0  0  0  0  0
    0.9737   -6.7408    1.1490 C   0  0  0  0  0  0  0  0  0  0  0  0
    1.4317   -7.7877    3.1828 O   0  0  0  0  0  0  0  0  0  0  0  0
    3.3452   -5.8106    3.9417 O   0  0  0  0  0  0  0  0  0  0  0  0
    4.1955   -4.8164    3.3406 C   0  0  2  0  0  0  0  0  0  0  0  0
    4.6891   -3.9237    4.3178 O   0  0  0  0  0  0  0  0  0  0  0  0
    4.9327   -2.5624    4.0141 C   0  0  1  0  0  0  0  0  0  0  0  0
    5.7121   -2.4322    2.6612 C   0  0  0  0  0  0  0  0  0  0  0  0
    5.0424   -1.9064    1.3703 C   0  0  1  0  0  0  0  0  0  0  0  0
    5.9298   -2.1837    0.1397 C   0  0  0  0  0  0  0  0  0  0  0  0
    5.7881   -1.1453   -0.8076 O   0  0  0  0  0  0  0  0  0  0  0  0
    3.7445   -2.4288    1.0521 O   0  0  0  0  0  0  0  0  0  0  0  0
    2.7831   -2.8162    2.0705 C   0  0  2  0  0  0  0  0  0  0  0  0
    2.7299   -1.6054    3.1231 C   0  0  2  0  0  0  0  0  0  0  0  0
    3.7238   -1.6034    4.3343 C   0  0  2  0  0  0  0  0  0  0  0  0
    3.1001   -4.3582    2.3716 C   0  0  2  0  0  0  0  0  0  0  0  0
    3.3626   -4.8010    1.0561 O   0  0  0  0  0  0  0  0  0  0  0  0
    1.5870    5.0549    4.8306 C   0  0  0  0  0  0  0  0  0  0  0  0
    1.1411    5.6406    3.4670 C   0  0  0  0  0  0  0  0  0  0  0  0
    2.9180    5.7455    5.2068 C   0  0  0  0  0  0  0  0  0  0  0  0
    1.8284    3.6451    4.6958 O   0  0  0  0  0  0  0  0  0  0  0  0
    6.6994    1.2684    6.2807 H   0  0  0  0  0  0  0  0  0  0  0  0
    5.5206    2.1484    5.3480 H   0  0  0  0  0  0  0  0  0  0  0  0
    6.7272    1.1190    4.5324 H   0  0  0  0  0  0  0  0  0  0  0  0
    5.0483   -0.1178    3.5490 H   0  0  0  0  0  0  0  0  0  0  0  0
    3.4981    1.8534    4.7088 H   0  0  0  0  0  0  0  0  0  0  0  0
    3.8950    1.5262    3.1128 H   0  0  0  0  0  0  0  0  0  0  0  0
    0.6333    1.8749    2.0436 H   0  0  0  0  0  0  0  0  0  0  0  0
    2.2202    1.4205    1.4497 H   0  0  0  0  0  0  0  0  0  0  0  0
    2.0489    2.8281    2.4599 H   0  0  0  0  0  0  0  0  0  0  0  0
    1.2073   -0.5101    2.1232 H   0  0  0  0  0  0  0  0  0  0  0  0
   -0.5283   -1.3238    3.2948 H   0  0  0  0  0  0  0  0  0  0  0  0
    0.2817   -1.3556    4.8457 H   0  0  0  0  0  0  0  0  0  0  0  0
   -0.8524    1.0459    3.5183 H   0  0  0  0  0  0  0  0  0  0  0  0
   -1.0338    0.4848    5.1806 H   0  0  0  0  0  0  0  0  0  0  0  0
    1.2818    0.6832    5.5737 H   0  0  0  0  0  0  0  0  0  0  0  0
   -0.7351    3.3898    3.8498 H   0  0  0  0  0  0  0  0  0  0  0  0
   -1.3879    2.8284    5.3553 H   0  0  0  0  0  0  0  0  0  0  0  0
    0.6071    7.1308    5.4568 H   0  0  0  0  0  0  0  0  0  0  0  0
    1.7501    4.8720    7.6539 H   0  0  0  0  0  0  0  0  0  0  0  0
   -0.9478    4.2788    7.9157 H   0  0  0  0  0  0  0  0  0  0  0  0
    0.1885    2.1316    8.3462 H   0  0  0  0  0  0  0  0  0  0  0  0
    2.7176    1.6392    6.5601 H   0  0  0  0  0  0  0  0  0  0  0  0
    3.4510    3.5186    6.1152 H   0  0  0  0  0  0  0  0  0  0  0  0
    4.2593    3.0281    9.4751 H   0  0  0  0  0  0  0  0  0  0  0  0
    3.3082    2.2715   10.7247 H   0  0  0  0  0  0  0  0  0  0  0  0
    2.6145    3.5838    9.7827 H   0  0  0  0  0  0  0  0  0  0  0  0
    2.9819    0.4859   11.1973 H   0  0  0  0  0  0  0  0  0  0  0  0
   -0.5614   -0.4025    8.3317 H   0  0  0  0  0  0  0  0  0  0  0  0
   -0.0970   -2.0165    7.7051 H   0  0  0  0  0  0  0  0  0  0  0  0
    0.7988   -0.5689    7.2040 H   0  0  0  0  0  0  0  0  0  0  0  0
    5.1933    0.7205    8.7419 H   0  0  0  0  0  0  0  0  0  0  0  0
    4.7812   -1.6828    7.0231 H   0  0  0  0  0  0  0  0  0  0  0  0
    3.3904   -2.2793    7.8794 H   0  0  0  0  0  0  0  0  0  0  0  0
    2.0950   -1.3800    5.7363 H   0  0  0  0  0  0  0  0  0  0  0  0
    0.0482   -3.6993    5.2386 H   0  0  0  0  0  0  0  0  0  0  0  0
    1.0339   -3.0880    3.9320 H   0  0  0  0  0  0  0  0  0  0  0  0
    0.8167   -5.9474    4.6808 H   0  0  0  0  0  0  0  0  0  0  0  0
    0.1708   -5.1129    3.2921 H   0  0  0  0  0  0  0  0  0  0  0  0
    2.9142   -7.1967    1.9372 H   0  0  0  0  0  0  0  0  0  0  0  0
    1.2368   -5.9827    0.4091 H   0  0  0  0  0  0  0  0  0  0  0  0
   -0.0443   -6.5501    1.4986 H   0  0  0  0  0  0  0  0  0  0  0  0
    0.9542   -7.7015    0.6234 H   0  0  0  0  0  0  0  0  0  0  0  0
    1.4516   -8.6273    2.7485 H   0  0  0  0  0  0  0  0  0  0  0  0
    5.0195   -5.2960    2.8180 H   0  0  0  0  0  0  0  0  0  0  0  0
    5.6725   -2.3277    4.7802 H   0  0  0  0  0  0  0  0  0  0  0  0
    6.5100   -1.7101    2.8213 H   0  0  0  0  0  0  0  0  0  0  0  0
    6.2163   -3.3754    2.4554 H   0  0  0  0  0  0  0  0  0  0  0  0
    4.9793   -0.8217    1.4576 H   0  0  0  0  0  0  0  0  0  0  0  0
    6.9854   -2.2192    0.4154 H   0  0  0  0  0  0  0  0  0  0  0  0
    5.6842   -3.1473   -0.3123 H   0  0  0  0  0  0  0  0  0  0  0  0
    4.8614   -1.0307   -0.9722 H   0  0  0  0  0  0  0  0  0  0  0  0
    1.8324   -2.7944    1.5436 H   0  0  0  0  0  0  0  0  0  0  0  0
    3.2075   -0.8918    2.4687 H   0  0  0  0  0  0  0  0  0  0  0  0
    4.0777   -4.2610    0.7425 H   0  0  0  0  0  0  0  0  0  0  0  0
    0.9879    6.7156    3.5384 H   0  0  0  0  0  0  0  0  0  0  0  0
    0.2208    5.2092    3.0805 H   0  0  0  0  0  0  0  0  0  0  0  0
    1.9045    5.4751    2.7049 H   0  0  0  0  0  0  0  0  0  0  0  0
    2.8451    6.8268    5.0776 H   0  0  0  0  0  0  0  0  0  0  0  0
    3.7239    5.3976    4.5550 H   0  0  0  0  0  0  0  0  0  0  0  0
    3.2304    5.5813    6.2362 H   0  0  0  0  0  0  0  0  0  0  0  0
  1  2  1  0
  1 61  1  0
  1 62  1  0
  1 63  1  0
  2  3  1  0
 54  3  1  1
  3  4  1  0
  3 64  1  6
  4  5  1  0
  4 65  1  0
  4 66  1  0
  5 10  1  0
  5  6  1  6
  5  7  1  0
  6 67  1  0
  6 68  1  0
  6 69  1  0
  7 53  1  0
  7  8  1  0
  7 70  1  6
  8  9  1  0
  8 71  1  0
  8 72  1  0
  9 10  1  0
  9 73  1  0
  9 74  1  0
 10 11  1  0
 10 75  1  1
 11 18  1  0
 11 60  1  6
 11 12  1  0
 12 13  1  0
 12 76  1  0
 12 77  1  0
 13 14  1  0
 14 15  1  1
 14 16  1  0
 14 57  1  0
 15 78  1  0
 16 17  1  0
 16 18  1  0
 16 79  1  1
 17 80  1  0
 18 19  1  1
 18 20  1  0
 19 81  1  0
 20 21  1  0
 20 22  1  0
 20 82  1  6
 21 83  1  0
 22 30  1  0
 22 23  1  1
 22 24  1  0
 23 84  1  0
 23 85  1  0
 23 86  1  0
 24 25  1  0
 25 26  1  1
 25 27  1  0
 25 30  1  0
 26 87  1  0
 27 28  1  0
 27 29  2  0
 28 88  1  0
 28 89  1  0
 28 90  1  0
 30 31  1  1
 30 32  1  0
 31 91  1  0
 32 33  1  0
 33 34  1  0
 33 92  1  0
 33 93  1  0
 34 54  1  0
 34 35  1  0
 34 94  1  6
 35 36  2  0
 35 37  1  6
 37 38  1  0
 37 95  1  0
 37 96  1  0
 38 39  1  0
 38 97  1  0
 38 98  1  0
 39 55  1  0
 39 40  1  0
 39 43  1  1
 40 41  1  0
 40 42  1  0
 40 99  1  6
 41100  1  0
 41101  1  0
 41102  1  0
 42103  1  0
 43 44  1  0
 44 55  1  0
 44 45  1  0
 44104  1  6
 45 46  1  0
 46 54  1  0
 46 47  1  0
 46105  1  1
 47 48  1  0
 47106  1  0
 47107  1  0
 48 49  1  0
 48 51  1  0
 48108  1  1
 49 50  1  0
 49109  1  0
 49110  1  0
 50111  1  0
 51 52  1  0
 52 53  1  0
 52 55  1  0
 52112  1  6
 53 54  1  0
 53113  1  6
 55 56  1  6
 56114  1  0
 57 58  1  0
 57 59  1  0
 57 60  1  0
 58115  1  0
 58116  1  0
 58117  1  0
 59118  1  0
 59119  1  0
 59120  1  0
M  END
>  <i_m_ct_stereo_status>  (74) 
1

>  <s_m_source_file>  (74) 
/var/tmp/pbs.5075288.sched01/tmpq0rgj53d/65gxdktgdh.sdf

>  <i_m_source_file_index>  (74) 
12

>  <i_lp_mmshare_version>  (74) 
48012

>  <i_f3d_flags>  (74) 
0

>  <s_epik_input>  (74) 
W0NIMl0xT1tDQF0oW09IXSkoQyhPMikoW0NIM10pW0NIM10pW0NAQEhdKFtPSF0pW0NAXTMoW09IXSlbQ0BASF0oW09IXSlbQ0BAXShbQ0gzXSkoT1tDQEBdNChbT0hdKUMoPU8pW0NIM10pW0NAXTQoW09IXSlPW0NIMl1bQ0BASF0oW0NAXTUoW0NAQEhdKFtDSDJdNilPW0NIM10pW0NAQEhdN1tDQEhdKFtDQEBdNihbQ0gzXSlbQ0BIXThbQ0BdMTIzKVtDSDJdW0NIMl04KVtTK10oW08tXSlbQ0gyXVtDSDJdW0NAQF05KFtDQEhdKFtDSDNdKVtPSF0pW0NAXTEoW09IXSlbQ0BIXShPOSlPW0NASF01W0NIMl1bQ0BASF0oW0NIMl1bT0hdKU9bQ0BASF0xNw==

>  <s_epik_cmdline>  (74) 
J2VwaWtfcHl0aG9uJywgJy1waHQnLCAnMi4wJywgJy1waCcsICc3LjAnLCAnLXRuJywgJzgnLCAnLW1hJywgJzIwMCcsICctaW1hZScsICc8aW5maWxlLm1hZT4nLCAnLW9tYWUnLCAnPG91dGZpbGUubWFlPic=

>  <r_lp_tautomer_probability>  (74) 
1

>  <r_epik_Ionization_Penalty>  (74) 
0.000109046

>  <r_epik_Ionization_Penalty_Charging>  (74) 
0

>  <r_epik_Ionization_Penalty_Neutral>  (74) 
0.000109046

>  <r_epik_State_Penalty>  (74) 
-0

>  <r_epik_Charging_Adjusted_Penalty>  (74) 
0

>  <i_epik_Tot_Q>  (74) 
0

>  <i_epik_Tot_abs_Q>  (74) 
2

>  <s_epik_Chemistry_Notes>  (74) 
This compound contains an acetal/aminal-like group ( X-CH(R)-Y where X, Y are N, S, or O) that may be acid/base labile, releasing an aldehyde.

>  <s_lp_Force_Field>  (74) 
OPLS3e

>  <r_lp_Energy>  (74) 
191.172

>  <b_lp_Chiralities_Consistent>  (74) 
1

>  <s_lp_Variant>  (74) 
16:0-1

>  <s_i_glide_gridfile>  (74) 
pfpi4k_grid

>  <i_i_glide_lignum>  (74) 
12

>  <i_i_glide_rotatable_bonds>  (74) 
13

>  <r_i_docking_score>  (74) 
-3.29134

>  <r_i_glide_ligand_efficiency>  (74) 
-0.0548557

>  <r_i_glide_ligand_efficiency_sa>  (74) 
-0.214753

>  <r_i_glide_ligand_efficiency_ln>  (74) 
-0.646077

>  <r_i_glide_gscore>  (74) 
-3.29134

>  <r_i_glide_lipo>  (74) 
-0.242998

>  <r_i_glide_hbond>  (74) 
0

>  <r_i_glide_metal>  (74) 
-0

>  <r_i_glide_rewards>  (74) 
-1.00077

>  <r_i_glide_evdw>  (74) 
-27.0848

>  <r_i_glide_ecoul>  (74) 
-4.87779

>  <r_i_glide_erotb>  (74) 
0.0571927

>  <r_i_glide_esite>  (74) 
-0.0188568

>  <r_i_glide_emodel>  (74) 
-48.0006

>  <r_i_glide_energy>  (74) 
-31.9626

>  <r_i_glide_einternal>  (74) 
3.1325

>  <r_i_glide_intrahb_reward>  (74) 
-1

>  <i_i_glide_confnum>  (74) 
5

>  <i_i_glide_posenum>  (74) 
32

>  <r_i_glide_eff_state_penalty>  (74) 
0

>  <ligand_id>  (74) 
16

>  <original_smiles>  (74) 
COC1CC2(C)C3CCC2C24COC(O)(C(O)C2(O)C(O)C2(C)OC(O)(C(C)=O)C2(O)OCC2[S+]([O-])CCC5(C(C)O)OC6OC7CC(CO)OC(C3C172)C65O)C(C)(C)O4

>  <smiles>  (74) 
[H]OC([H])([H])C1([H])OC2([H])C3([H])C4([H])C([H])([H])C([H])([H])C5([H])C67OC(C([H])([H])[H])(C([H])([H])[H])C(O[H])(OC6([H])[H])C([H])(O[H])C7(O[H])C([H])(O[H])C6(C([H])([H])[H])OC(O[H])(C(=O)C([H])([H])[H])C6(O[H])OC([H])([H])C6([H])S(=O)C([H])([H])C([H])([H])C7(C([H])(O[H])C([H])([H])[H])OC([H])(OC([H])(C1([H])[H])C63C([H])(OC([H])([H])[H])C([H])([H])C45C([H])([H])[H])C27O[H]

$$$$
19:0:0
     RDKit          3D

151160  0  0  1  0  0  0  0  0999 V2000
    6.6906   -3.1943    7.7657 C   0  0  0  0  0  0  0  0  0  0  0  0
    5.3332   -2.9879    7.3463 O   0  0  0  0  0  0  0  0  0  0  0  0
    4.3019   -3.7095    7.9483 C   0  0  0  0  0  0  0  0  0  0  0  0
    4.6283   -5.0794    7.8641 O   0  0  0  0  0  0  0  0  0  0  0  0
    4.8869   -5.6648    6.5891 C   0  0  0  0  0  0  0  0  0  0  0  0
    4.3556   -3.3713    9.4878 C   0  0  0  0  0  0  0  0  0  0  0  0
    4.6900   -4.2256   10.2976 O   0  0  0  0  0  0  0  0  0  0  0  0
    4.1656   -1.9680    9.8705 C   0  0  0  0  0  0  0  0  0  0  0  0
    2.9902   -1.2819    9.8615 C   0  0  0  0  0  0  0  0  0  0  0  0
    1.6403   -2.0413   10.0644 C   0  0  0  0  0  0  0  0  0  0  0  0
    1.7555   -3.3424   10.9411 C   0  0  0  0  0  0  0  0  0  0  0  0
    0.6095   -1.3098   10.9927 C   0  0  0  0  0  0  0  0  0  0  0  0
    1.1520   -2.3603    8.6323 C   0  0  2  0  0  0  0  0  0  0  0  0
    0.8804   -3.7503    8.4792 O   0  0  0  0  0  0  0  0  0  0  0  0
    1.7234   -4.4200    7.5372 C   0  0  0  0  0  0  0  0  0  0  0  0
    2.0179   -5.7840    8.2084 C   0  0  0  0  0  0  0  0  0  0  0  0
    0.7903   -4.7419    6.3353 C   0  0  0  0  0  0  0  0  0  0  0  0
    2.9052   -3.3997    7.1749 C   0  0  2  0  0  0  0  0  0  0  0  0
    3.1384   -3.3997    5.7808 O   0  0  0  0  0  0  0  0  0  0  0  0
    2.1434   -2.0384    7.4645 C   0  0  2  0  0  0  0  0  0  0  0  0
    2.3395   -0.5253    6.8733 C   0  0  1  0  0  0  0  0  0  0  0  0
    0.7740    0.3666    6.8926 S   0  0  0  0  0  0  0  0  0  0  0  0
   -0.3682   -0.6397    6.7290 O   0  0  0  0  0  0  0  0  0  0  0  0
    0.5103    1.0976    8.5171 C   0  0  2  0  0  0  0  0  0  0  0  0
   -0.6147    2.2302    8.3363 C   0  0  1  0  0  0  0  0  0  0  0  0
   -1.7284    1.6221    9.2316 C   0  0  0  0  0  0  0  0  0  0  0  0
   -0.3925    3.6309    9.0622 C   0  0  1  0  0  0  0  0  0  0  0  0
   -0.7179    3.7748   10.5772 C   0  0  0  0  0  0  0  0  0  0  0  0
    0.8959    4.1543    9.0178 O   0  0  0  0  0  0  0  0  0  0  0  0
   -1.2643    4.5286    8.2473 C   0  0  0  0  0  0  0  0  0  0  0  0
   -1.7332    3.9704    7.1366 C   0  0  0  0  0  0  0  0  0  0  0  0
   -1.3193    2.5404    6.8405 C   0  0  2  0  0  0  0  0  0  0  0  0
   -2.5797    1.8542    6.8488 O   0  0  0  0  0  0  0  0  0  0  0  0
   -0.7638    2.4441    5.2298 C   0  0  2  0  0  0  0  0  0  0  0  0
   -1.9646    3.0071    4.6388 O   0  0  0  0  0  0  0  0  0  0  0  0
   -0.8870    1.0209    4.4935 C   0  0  0  0  0  0  0  0  0  0  0  0
   -1.9687    0.4594    4.6643 O   0  0  0  0  0  0  0  0  0  0  0  0
    0.0667    0.2294    3.4953 C   0  0  0  0  0  0  0  0  0  0  0  0
   -0.1759   -1.3003    3.7225 C   0  0  0  0  0  0  0  0  0  0  0  0
   -0.5733    0.4713    2.0811 C   0  0  0  0  0  0  0  0  0  0  0  0
    1.6611    0.3842    3.4050 C   0  0  2  0  0  0  0  0  0  0  0  0
    2.7152   -0.8283    3.5882 C   0  0  1  0  0  0  0  0  0  0  0  0
    2.9555   -1.4292    2.2998 O   0  0  0  0  0  0  0  0  0  0  0  0
    2.7966   -2.7476    2.0599 C   0  0  0  0  0  0  0  0  0  0  0  0
    3.0148   -3.1047    0.5953 C   0  0  0  0  0  0  0  0  0  0  0  0
    2.4915   -3.6090    2.8816 O   0  0  0  0  0  0  0  0  0  0  0  0
    4.1558   -0.6496    4.2492 C   0  0  1  0  0  0  0  0  0  0  0  0
    5.0052    0.0894    3.3899 O   0  0  0  0  0  0  0  0  0  0  0  0
    4.4714   -0.3119    5.7941 C   0  0  0  0  0  0  0  0  0  0  0  0
    3.5403    0.5339    6.7914 C   0  0  1  0  0  0  0  0  0  0  0  0
    3.3488    1.9595    5.9389 C   0  0  1  0  0  0  0  0  0  0  0  0
    4.7867    2.5337    5.6185 C   0  0  0  0  0  0  0  0  0  0  0  0
    3.2258    1.8860    4.5253 O   0  0  0  0  0  0  0  0  0  0  0  0
    2.2446    1.8012    3.5593 C   0  0  1  0  0  0  0  0  0  0  0  0
    2.9953    1.9807    2.3902 O   0  0  0  0  0  0  0  0  0  0  0  0
    1.2782    2.9895    3.5046 C   0  0  0  0  0  0  0  0  0  0  0  0
    0.4408    3.4518    4.7234 C   0  0  1  0  0  0  0  0  0  0  0  0
   -0.2163    4.7082    4.0372 C   0  0  0  0  0  0  0  0  0  0  0  0
    1.4242    4.0414    5.8205 C   0  0  1  0  0  0  0  0  0  0  0  0
    2.4958    3.1432    6.5466 C   0  0  2  0  0  0  0  0  0  0  0  0
    3.4215    4.1030    7.0527 O   0  0  0  0  0  0  0  0  0  0  0  0
    3.0058    5.4367    6.9553 C   0  0  1  0  0  0  0  0  0  0  0  0
    4.2492    6.3472    6.9776 C   0  0  0  0  0  0  0  0  0  0  0  0
    2.0538    5.4982    5.7524 C   0  0  1  0  0  0  0  0  0  0  0  0
    2.8459    5.7090    4.6021 O   0  0  0  0  0  0  0  0  0  0  0  0
    1.1620    6.7675    6.0200 C   0  0  0  0  0  0  0  0  0  0  0  0
    0.4427    7.3372    4.9375 O   0  0  0  0  0  0  0  0  0  0  0  0
    4.0786    0.7843    8.3544 C   0  0  0  0  0  0  0  0  0  0  0  0
    5.5472    0.2679    8.4229 C   0  0  0  0  0  0  0  0  0  0  0  0
    4.4466    2.2589    8.8159 C   0  0  0  0  0  0  0  0  0  0  0  0
    3.0475    0.2689    9.5519 C   0  0  2  0  0  0  0  0  0  0  0  0
    3.5587    0.7318   10.7950 O   0  0  0  0  0  0  0  0  0  0  0  0
    1.6948    1.1417    9.5586 C   0  0  0  0  0  0  0  0  0  0  0  0
    7.3547   -2.6766    7.0712 H   0  0  0  0  0  0  0  0  0  0  0  0
    6.9874   -4.2448    7.7622 H   0  0  0  0  0  0  0  0  0  0  0  0
    6.9028   -2.7861    8.7569 H   0  0  0  0  0  0  0  0  0  0  0  0
    5.3514   -6.6401    6.7362 H   0  0  0  0  0  0  0  0  0  0  0  0
    5.5652   -5.0700    5.9749 H   0  0  0  0  0  0  0  0  0  0  0  0
    3.9742   -5.8322    6.0189 H   0  0  0  0  0  0  0  0  0  0  0  0
    5.0933   -1.4589    9.9529 H   0  0  0  0  0  0  0  0  0  0  0  0
    0.7903   -3.7655   11.2174 H   0  0  0  0  0  0  0  0  0  0  0  0
    2.2911   -3.1476   11.8703 H   0  0  0  0  0  0  0  0  0  0  0  0
    2.2160   -4.1989   10.4760 H   0  0  0  0  0  0  0  0  0  0  0  0
   -0.1114   -1.9672   11.4748 H   0  0  0  0  0  0  0  0  0  0  0  0
   -0.0741   -0.6203   10.5428 H   0  0  0  0  0  0  0  0  0  0  0  0
    1.1191   -0.7974   11.8073 H   0  0  0  0  0  0  0  0  0  0  0  0
    0.1750   -1.9142    8.5048 H   0  0  0  0  0  0  0  0  0  0  0  0
    2.4702   -6.4986    7.5218 H   0  0  0  0  0  0  0  0  0  0  0  0
    1.0903   -6.2448    8.5544 H   0  0  0  0  0  0  0  0  0  0  0  0
    2.6579   -5.7196    9.0822 H   0  0  0  0  0  0  0  0  0  0  0  0
    1.3192   -5.3156    5.5723 H   0  0  0  0  0  0  0  0  0  0  0  0
    0.3777   -3.8607    5.8462 H   0  0  0  0  0  0  0  0  0  0  0  0
   -0.0590   -5.3477    6.6542 H   0  0  0  0  0  0  0  0  0  0  0  0
    3.8731   -2.8230    5.6182 H   0  0  0  0  0  0  0  0  0  0  0  0
    1.3829   -2.2161    6.7136 H   0  0  0  0  0  0  0  0  0  0  0  0
    2.1850   -0.7166    5.8441 H   0  0  0  0  0  0  0  0  0  0  0  0
   -0.0004    0.2016    8.8146 H   0  0  0  0  0  0  0  0  0  0  0  0
   -2.6482    2.1999    9.3113 H   0  0  0  0  0  0  0  0  0  0  0  0
   -1.3847    1.3585   10.2264 H   0  0  0  0  0  0  0  0  0  0  0  0
   -1.9612    0.6861    8.7411 H   0  0  0  0  0  0  0  0  0  0  0  0
   -1.7638    3.6096   10.8306 H   0  0  0  0  0  0  0  0  0  0  0  0
   -0.4876    4.7795   10.9154 H   0  0  0  0  0  0  0  0  0  0  0  0
   -0.1133    3.0900   11.1616 H   0  0  0  0  0  0  0  0  0  0  0  0
    1.2124    4.0816    8.1200 H   0  0  0  0  0  0  0  0  0  0  0  0
   -1.5186    5.5305    8.5696 H   0  0  0  0  0  0  0  0  0  0  0  0
   -2.3811    4.4704    6.4620 H   0  0  0  0  0  0  0  0  0  0  0  0
   -3.0907    2.1467    6.1031 H   0  0  0  0  0  0  0  0  0  0  0  0
   -2.5984    2.2969    4.5267 H   0  0  0  0  0  0  0  0  0  0  0  0
    0.2592   -1.9021    2.9201 H   0  0  0  0  0  0  0  0  0  0  0  0
   -1.2257   -1.5884    3.7464 H   0  0  0  0  0  0  0  0  0  0  0  0
    0.2372   -1.6736    4.6552 H   0  0  0  0  0  0  0  0  0  0  0  0
   -0.1716   -0.2284    1.3416 H   0  0  0  0  0  0  0  0  0  0  0  0
   -0.4080    1.4538    1.6493 H   0  0  0  0  0  0  0  0  0  0  0  0
   -1.6503    0.3403    2.0902 H   0  0  0  0  0  0  0  0  0  0  0  0
    1.6501    0.3095    2.3123 H   0  0  0  0  0  0  0  0  0  0  0  0
    2.2307   -1.6095    4.1522 H   0  0  0  0  0  0  0  0  0  0  0  0
    3.9895   -2.7481    0.2626 H   0  0  0  0  0  0  0  0  0  0  0  0
    2.2457   -2.6444   -0.0274 H   0  0  0  0  0  0  0  0  0  0  0  0
    2.9725   -4.1862    0.4460 H   0  0  0  0  0  0  0  0  0  0  0  0
    4.5827   -1.6490    4.1445 H   0  0  0  0  0  0  0  0  0  0  0  0
    5.9053   -0.0674    3.6613 H   0  0  0  0  0  0  0  0  0  0  0  0
    4.5499   -1.2740    6.2466 H   0  0  0  0  0  0  0  0  0  0  0  0
    5.5074    0.0236    5.8414 H   0  0  0  0  0  0  0  0  0  0  0  0
    5.5146    2.6338    6.3965 H   0  0  0  0  0  0  0  0  0  0  0  0
    4.7359    3.5082    5.1300 H   0  0  0  0  0  0  0  0  0  0  0  0
    5.3506    1.9023    4.9486 H   0  0  0  0  0  0  0  0  0  0  0  0
    3.8407    1.5913    2.5183 H   0  0  0  0  0  0  0  0  0  0  0  0
    1.9118    3.8303    3.1904 H   0  0  0  0  0  0  0  0  0  0  0  0
    0.6256    2.8635    2.6433 H   0  0  0  0  0  0  0  0  0  0  0  0
    0.5070    5.3917    3.6057 H   0  0  0  0  0  0  0  0  0  0  0  0
   -0.8343    5.2594    4.7391 H   0  0  0  0  0  0  0  0  0  0  0  0
   -0.8441    4.4598    3.1693 H   0  0  0  0  0  0  0  0  0  0  0  0
    0.7184    4.2148    6.6029 H   0  0  0  0  0  0  0  0  0  0  0  0
    2.0334    2.7198    7.4128 H   0  0  0  0  0  0  0  0  0  0  0  0
    2.4545    5.6425    7.8669 H   0  0  0  0  0  0  0  0  0  0  0  0
    3.9810    7.4012    6.9304 H   0  0  0  0  0  0  0  0  0  0  0  0
    4.9260    6.1252    6.1543 H   0  0  0  0  0  0  0  0  0  0  0  0
    4.8065    6.2005    7.9020 H   0  0  0  0  0  0  0  0  0  0  0  0
    2.2903    5.6276    3.8354 H   0  0  0  0  0  0  0  0  0  0  0  0
    0.4483    6.5619    6.8162 H   0  0  0  0  0  0  0  0  0  0  0  0
    1.8053    7.5680    6.3901 H   0  0  0  0  0  0  0  0  0  0  0  0
    1.0331    7.5553    4.2203 H   0  0  0  0  0  0  0  0  0  0  0  0
    5.9759    0.3467    9.4223 H   0  0  0  0  0  0  0  0  0  0  0  0
    6.2150    0.8527    7.7888 H   0  0  0  0  0  0  0  0  0  0  0  0
    5.6673   -0.7485    8.0857 H   0  0  0  0  0  0  0  0  0  0  0  0
    4.9654    2.2888    9.7743 H   0  0  0  0  0  0  0  0  0  0  0  0
    3.6287    2.9397    8.9741 H   0  0  0  0  0  0  0  0  0  0  0  0
    5.1747    2.8003    8.2478 H   0  0  0  0  0  0  0  0  0  0  0  0
    4.3857    0.2919   10.9559 H   0  0  0  0  0  0  0  0  0  0  0  0
    1.9684    2.1702    9.6555 H   0  0  0  0  0  0  0  0  0  0  0  0
    1.2287    1.0531   10.5329 H   0  0  0  0  0  0  0  0  0  0  0  0
  1  2  1  0
  1 74  1  0
  1 75  1  0
  1 76  1  0
  2  3  1  0
  3 18  1  0
  3  4  1  0
  3  6  1  0
  4  5  1  0
  5 77  1  0
  5 78  1  0
  5 79  1  0
  6  7  2  0
  6  8  1  0
  8  9  2  3
  8 80  1  0
  9 71  1  0
  9 10  1  0
 10 11  1  0
 10 12  1  0
 10 13  1  0
 11 81  1  0
 11 82  1  0
 11 83  1  0
 12 84  1  0
 12 85  1  0
 12 86  1  0
 13 20  1  0
 13 14  1  0
 13 87  1  6
 14 15  1  0
 15 16  1  0
 15 17  1  0
 15 18  1  0
 16 88  1  0
 16 89  1  0
 16 90  1  0
 17 91  1  0
 17 92  1  0
 17 93  1  0
 18 19  1  6
 18 20  1  0
 19 94  1  0
 20 21  1  0
 20 95  1  6
 21 50  1  0
 21 22  1  0
 21 96  1  6
 22 23  2  0
 22 24  1  1
 24 73  1  0
 24 25  1  0
 24 97  1  1
 25 32  1  0
 25 26  1  1
 25 27  1  0
 26 98  1  0
 26 99  1  0
 26100  1  0
 27 28  1  0
 27 29  1  1
 27 30  1  0
 28101  1  0
 28102  1  0
 28103  1  0
 29104  1  0
 30 31  2  0
 30105  1  0
 31 32  1  0
 31106  1  0
 32 33  1  6
 32 34  1  0
 33107  1  0
 34 57  1  0
 34 35  1  6
 34 36  1  0
 35108  1  0
 36 37  2  0
 36 38  1  0
 38 39  1  0
 38 40  1  0
 38 41  1  0
 39109  1  0
 39110  1  0
 39111  1  0
 40112  1  0
 40113  1  0
 40114  1  0
 41 54  1  0
 41 42  1  0
 41115  1  6
 42 43  1  0
 42 47  1  0
 42116  1  1
 43 44  1  0
 44 45  1  0
 44 46  2  0
 45117  1  0
 45118  1  0
 45119  1  0
 47 48  1  0
 47 49  1  0
 47120  1  1
 48121  1  0
 50 49  1  6
 49122  1  0
 49123  1  0
 50 51  1  0
 50 68  1  0
 51 60  1  0
 51 52  1  6
 51 53  1  0
 52124  1  0
 52125  1  0
 52126  1  0
 53 54  1  0
 54 55  1  6
 54 56  1  0
 55127  1  0
 56 57  1  0
 56128  1  0
 56129  1  0
 57 58  1  6
 57 59  1  0
 58130  1  0
 58131  1  0
 58132  1  0
 59 64  1  0
 59 60  1  0
 59133  1  1
 60 61  1  0
 60134  1  1
 61 62  1  0
 62 63  1  0
 62 64  1  0
 62135  1  1
 63136  1  0
 63137  1  0
 63138  1  0
 64 65  1  6
 64 66  1  0
 65139  1  0
 66 67  1  0
 66140  1  0
 66141  1  0
 67142  1  0
 68 69  1  0
 68 70  1  0
 68 71  1  0
 69143  1  0
 69144  1  0
 69145  1  0
 70146  1  0
 70147  1  0
 70148  1  0
 71 72  1  1
 71 73  1  0
 72149  1  0
 73150  1  0
 73151  1  0
M  END
>  <i_m_ct_stereo_status>  (75) 
1

>  <s_m_source_file>  (75) 
/var/tmp/pbs.5075288.sched01/tmpq0rgj53d/65gxdktgdh.sdf

>  <i_m_source_file_index>  (75) 
17

>  <i_lp_mmshare_version>  (75) 
48012

>  <i_f3d_flags>  (75) 
0

>  <s_epik_input>  (75) 
TzFDKFtDSDNdKShbQ0gzXSlbQ0BdMihbT0hdKUMoT1tDSDNdKShPW0NIM10pQyg9TykvW0NIXT1DKFxDKFtDSDNdKShbQ0gzXSlbQ0BIXTFbQ0BIXTJbQ0BASF0zW0NAQF00NTYpW0NAQF0oW09IXSkoQzYoW0NIM10pW0NIM10pW0NIMl1bQ0BIXShbUytdM1tPLV0pW0NAXTcoW0NIM10pW0NAQF0oW09IXSkoW0NIXT1bQ0hdW0NAXTcoW0NIM10pW09IXSlbQ0BAXTgoW09IXSlbQ0BAXTkoW0NIM10pW0NASF0xW0NASF0oT1tDQEBIXShbQ0gzXSlbQ0BdMShbT0hdKVtDSDJdW09IXSlbQ0BdNShbQ0gzXSlPW0NAXShbT0hdKShbQ0gyXTkpW0NASF0oQyhDOD1PKShbQ0gzXSlbQ0gzXSlbQ0BIXShbQ0BASF0oW09IXSlbQ0gyXTQpT0MoPU8pW0NIM10=

>  <s_epik_cmdline>  (75) 
J2VwaWtfcHl0aG9uJywgJy1waHQnLCAnMi4wJywgJy1waCcsICc3LjAnLCAnLXRuJywgJzgnLCAnLW1hJywgJzIwMCcsICctaW1hZScsICc8aW5maWxlLm1hZT4nLCAnLW9tYWUnLCAnPG91dGZpbGUubWFlPic=

>  <r_lp_tautomer_probability>  (75) 
1

>  <r_epik_Ionization_Penalty>  (75) 
1.51163e-05

>  <r_epik_Ionization_Penalty_Charging>  (75) 
0

>  <r_epik_Ionization_Penalty_Neutral>  (75) 
1.51163e-05

>  <r_epik_State_Penalty>  (75) 
-0

>  <r_epik_Charging_Adjusted_Penalty>  (75) 
0

>  <i_epik_Tot_Q>  (75) 
0

>  <i_epik_Tot_abs_Q>  (75) 
2

>  <s_epik_Chemistry_Notes>  (75) 
This compound has an ester and may undergo hydrolysis at high or low pH.

>  <s_lp_Force_Field>  (75) 
OPLS3e

>  <r_lp_Energy>  (75) 
430.204

>  <b_lp_Chiralities_Consistent>  (75) 
1

>  <s_lp_Variant>  (75) 
19:0-1

>  <s_i_glide_gridfile>  (75) 
pfpi4k_grid

>  <i_i_glide_lignum>  (75) 
17

>  <i_i_glide_rotatable_bonds>  (75) 
14

>  <r_i_docking_score>  (75) 
-2.588

>  <r_i_glide_ligand_efficiency>  (75) 
-0.0354521

>  <r_i_glide_ligand_efficiency_sa>  (75) 
-0.148166

>  <r_i_glide_ligand_efficiency_ln>  (75) 
-0.489182

>  <r_i_glide_gscore>  (75) 
-2.588

>  <r_i_glide_lipo>  (75) 
-0.0713254

>  <r_i_glide_hbond>  (75) 
0

>  <r_i_glide_metal>  (75) 
-0

>  <r_i_glide_rewards>  (75) 
-0.5

>  <r_i_glide_evdw>  (75) 
-21.3804

>  <r_i_glide_ecoul>  (75) 
-6.28161

>  <r_i_glide_erotb>  (75) 
0.0404881

>  <r_i_glide_esite>  (75) 
-0.0459008

>  <r_i_glide_emodel>  (75) 
-31.7534

>  <r_i_glide_energy>  (75) 
-27.662

>  <r_i_glide_einternal>  (75) 
10.0513

>  <r_i_glide_intrahb_reward>  (75) 
-0.5

>  <i_i_glide_confnum>  (75) 
2

>  <i_i_glide_posenum>  (75) 
9

>  <r_i_glide_eff_state_penalty>  (75) 
0

>  <ligand_id>  (75) 
19

>  <original_smiles>  (75) 
COC1(OC)C(=O)C=C2C(C)(C)C3OC(C)(C)C1(O)C3C1[S+]([O-])C3C4(C)C(C)(O)C=CC4(O)C4(O)C(=O)C(C)(C)C5C(OC(C)=O)C(O)CC1(C1(C)OC5(O)CC4(C)C4C1OC(C)C4(O)CO)C(C)(C)C2(O)C3

>  <smiles>  (75) 
[H]OC([H])([H])C1(O[H])C([H])(C([H])([H])[H])OC2([H])C1([H])C1(C([H])([H])[H])C([H])([H])C3(O[H])OC2(C([H])([H])[H])C24C([H])([H])C([H])(O[H])C([H])(OC(=O)C([H])([H])[H])C3([H])C(C([H])([H])[H])(C([H])([H])[H])C(=O)C1(O[H])C1(O[H])C([H])=C([H])C(O[H])(C([H])([H])[H])C1(C([H])([H])[H])C1([H])S(=O)C2([H])C2([H])C3([H])OC(C([H])([H])[H])(C([H])([H])[H])C2(O[H])C(OC([H])([H])[H])(OC([H])([H])[H])C(=O)C([H])=C(C(O[H])(C1([H])[H])C4(C([H])([H])[H])C([H])([H])[H])C3(C([H])([H])[H])C([H])([H])[H]

$$$$
19:0:1
     RDKit          3D

151160  0  0  1  0  0  0  0  0999 V2000
    5.8669   -5.3182    9.5158 C   0  0  0  0  0  0  0  0  0  0  0  0
    4.6156   -4.7448    9.1107 O   0  0  0  0  0  0  0  0  0  0  0  0
    3.4437   -5.0972    9.7923 C   0  0  0  0  0  0  0  0  0  0  0  0
    3.3464   -6.5072    9.7869 O   0  0  0  0  0  0  0  0  0  0  0  0
    3.3624   -7.2054    8.5450 C   0  0  0  0  0  0  0  0  0  0  0  0
    3.6692   -4.7086   11.3067 C   0  0  0  0  0  0  0  0  0  0  0  0
    3.7804   -5.5981   12.1601 O   0  0  0  0  0  0  0  0  0  0  0  0
    3.9280   -3.3009   11.6083 C   0  0  0  0  0  0  0  0  0  0  0  0
    3.0143   -2.3009   11.6035 C   0  0  0  0  0  0  0  0  0  0  0  0
    1.5121   -2.6129   11.8938 C   0  0  0  0  0  0  0  0  0  0  0  0
    1.2795   -3.8453   12.8447 C   0  0  0  0  0  0  0  0  0  0  0  0
    0.7900   -1.5650   12.8108 C   0  0  0  0  0  0  0  0  0  0  0  0
    0.8761   -2.8448   10.5014 C   0  0  2  0  0  0  0  0  0  0  0  0
    0.1999   -4.0975   10.4431 O   0  0  0  0  0  0  0  0  0  0  0  0
    0.7565   -5.0326    9.5163 C   0  0  0  0  0  0  0  0  0  0  0  0
    0.6701   -6.3861   10.2633 C   0  0  0  0  0  0  0  0  0  0  0  0
   -0.2891   -5.1198    8.3729 C   0  0  0  0  0  0  0  0  0  0  0  0
    2.1608   -4.4223    9.0489 C   0  0  2  0  0  0  0  0  0  0  0  0
    2.3189   -4.5626    7.6503 O   0  0  0  0  0  0  0  0  0  0  0  0
    1.8606   -2.8885    9.2856 C   0  0  2  0  0  0  0  0  0  0  0  0
    2.4606   -1.5299    8.5956 C   0  0  1  0  0  0  0  0  0  0  0  0
    1.2265   -0.2131    8.5983 S   0  0  0  0  0  0  0  0  0  0  0  0
   -0.1572   -0.8706    8.5286 O   0  0  0  0  0  0  0  0  0  0  0  0
    1.2493    0.6347   10.1922 C   0  0  2  0  0  0  0  0  0  0  0  0
    0.4667    2.0291    9.9884 C   0  0  1  0  0  0  0  0  0  0  0  0
   -0.7565    1.7956   10.9645 C   0  0  0  0  0  0  0  0  0  0  0  0
    1.1566    3.3382   10.5904 C   0  0  1  0  0  0  0  0  0  0  0  0
    0.9869    3.6491   12.1051 C   0  0  0  0  0  0  0  0  0  0  0  0
    2.5505    3.4450   10.4814 O   0  0  0  0  0  0  0  0  0  0  0  0
    0.5597    4.4338    9.7650 C   0  0  0  0  0  0  0  0  0  0  0  0
   -0.1031    4.0113    8.7012 C   0  0  0  0  0  0  0  0  0  0  0  0
   -0.1548    2.4978    8.4929 C   0  0  2  0  0  0  0  0  0  0  0  0
   -1.5601    2.2152    8.5595 O   0  0  0  0  0  0  0  0  0  0  0  0
    0.2852    2.1387    6.8815 C   0  0  2  0  0  0  0  0  0  0  0  0
   -0.6966    3.0125    6.2640 O   0  0  0  0  0  0  0  0  0  0  0  0
   -0.3159    0.7928    6.2302 C   0  0  0  0  0  0  0  0  0  0  0  0
   -1.5123    0.5947    6.4644 O   0  0  0  0  0  0  0  0  0  0  0  0
    0.3121   -0.2950    5.2513 C   0  0  0  0  0  0  0  0  0  0  0  0
   -0.3898   -1.6749    5.5479 C   0  0  0  0  0  0  0  0  0  0  0  0
   -0.3122    0.0238    3.8516 C   0  0  0  0  0  0  0  0  0  0  0  0
    1.8866   -0.6259    5.0894 C   0  0  2  0  0  0  0  0  0  0  0  0
    2.5421   -2.0978    5.3291 C   0  0  1  0  0  0  0  0  0  0  0  0
    2.5578   -2.8473    4.0868 O   0  0  0  0  0  0  0  0  0  0  0  0
    1.7270   -3.8770    3.8482 C   0  0  0  0  0  0  0  0  0  0  0  0
    1.9525   -4.5159    2.4779 C   0  0  0  0  0  0  0  0  0  0  0  0
    0.8402   -4.2584    4.6296 O   0  0  0  0  0  0  0  0  0  0  0  0
    4.0010   -2.3169    5.9183 C   0  0  1  0  0  0  0  0  0  0  0  0
    4.9542   -1.9019    4.9560 O   0  0  0  0  0  0  0  0  0  0  0  0
    4.5013   -2.0135    7.4147 C   0  0  0  0  0  0  0  0  0  0  0  0
    3.9216   -0.8860    8.3897 C   0  0  1  0  0  0  0  0  0  0  0  0
    4.1215    0.4857    7.4409 C   0  0  1  0  0  0  0  0  0  0  0  0
    5.6507    0.5991    7.0134 C   0  0  0  0  0  0  0  0  0  0  0  0
    3.8903    0.3901    6.0314 O   0  0  0  0  0  0  0  0  0  0  0  0
    2.8802    0.5584    5.1110 C   0  0  1  0  0  0  0  0  0  0  0  0
    3.5514    0.4629    3.8846 O   0  0  0  0  0  0  0  0  0  0  0  0
    2.3209    1.9644    5.0371 C   0  0  0  0  0  0  0  0  0  0  0  0
    1.7185    2.7158    6.2561 C   0  0  1  0  0  0  0  0  0  0  0  0
    1.4407    4.0844    5.5191 C   0  0  0  0  0  0  0  0  0  0  0  0
    2.8849    3.0275    7.2943 C   0  0  1  0  0  0  0  0  0  0  0  0
    3.6853    1.8919    8.0264 C   0  0  2  0  0  0  0  0  0  0  0  0
    4.8779    2.5581    8.4441 O   0  0  0  0  0  0  0  0  0  0  0  0
    4.8650    3.9442    8.2892 C   0  0  1  0  0  0  0  0  0  0  0  0
    6.3161    4.4536    8.2003 C   0  0  0  0  0  0  0  0  0  0  0  0
    3.9176    4.2072    7.1202 C   0  0  1  0  0  0  0  0  0  0  0  0
    4.6657    4.1146    5.9171 O   0  0  0  0  0  0  0  0  0  0  0  0
    3.4331    5.6929    7.3350 C   0  0  0  0  0  0  0  0  0  0  0  0
    3.0736    6.4136    6.1757 O   0  0  0  0  0  0  0  0  0  0  0  0
    4.5813   -0.7267    9.9242 C   0  0  0  0  0  0  0  0  0  0  0  0
    5.8319   -1.6538    9.9770 C   0  0  0  0  0  0  0  0  0  0  0  0
    5.3971    0.5886   10.2801 C   0  0  0  0  0  0  0  0  0  0  0  0
    3.4988   -0.8456   11.1851 C   0  0  2  0  0  0  0  0  0  0  0  0
    4.1926   -0.5017   12.3816 O   0  0  0  0  0  0  0  0  0  0  0  0
    2.4628    0.3844   11.1872 C   0  0  0  0  0  0  0  0  0  0  0  0
    6.6136   -5.0580    8.7688 H   0  0  0  0  0  0  0  0  0  0  0  0
    5.8415   -6.4048    9.5796 H   0  0  0  0  0  0  0  0  0  0  0  0
    6.2326   -4.9303   10.4661 H   0  0  0  0  0  0  0  0  0  0  0  0
    3.5216   -8.2645    8.7387 H   0  0  0  0  0  0  0  0  0  0  0  0
    4.1578   -6.8681    7.8811 H   0  0  0  0  0  0  0  0  0  0  0  0
    2.4157   -7.1139    8.0184 H   0  0  0  0  0  0  0  0  0  0  0  0
    4.9659   -3.0832   11.6376 H   0  0  0  0  0  0  0  0  0  0  0  0
    0.2470   -3.9470   13.1750 H   0  0  0  0  0  0  0  0  0  0  0  0
    1.8950   -3.7671   13.7396 H   0  0  0  0  0  0  0  0  0  0  0  0
    1.4434   -4.8206   12.4185 H   0  0  0  0  0  0  0  0  0  0  0  0
   -0.0696   -1.9547   13.3513 H   0  0  0  0  0  0  0  0  0  0  0  0
    0.3151   -0.7268   12.3446 H   0  0  0  0  0  0  0  0  0  0  0  0
    1.4713   -1.1912   13.5732 H   0  0  0  0  0  0  0  0  0  0  0  0
    0.0673   -2.1358   10.3840 H   0  0  0  0  0  0  0  0  0  0  0  0
    0.8532   -7.2341    9.6061 H   0  0  0  0  0  0  0  0  0  0  0  0
   -0.3288   -6.5236   10.6774 H   0  0  0  0  0  0  0  0  0  0  0  0
    1.3460   -6.4708   11.1064 H   0  0  0  0  0  0  0  0  0  0  0  0
    0.0090   -5.8631    7.6309 H   0  0  0  0  0  0  0  0  0  0  0  0
   -0.4424   -4.1797    7.8434 H   0  0  0  0  0  0  0  0  0  0  0  0
   -1.2625   -5.4242    8.7564 H   0  0  0  0  0  0  0  0  0  0  0  0
    3.2029   -4.2924    7.4366 H   0  0  0  0  0  0  0  0  0  0  0  0
    1.0480   -2.8724    8.5781 H   0  0  0  0  0  0  0  0  0  0  0  0
    2.2099   -1.7333    7.5879 H   0  0  0  0  0  0  0  0  0  0  0  0
    0.5019   -0.0426   10.5695 H   0  0  0  0  0  0  0  0  0  0  0  0
   -1.4024    2.6669   11.0642 H   0  0  0  0  0  0  0  0  0  0  0  0
   -0.4241    1.5292   11.9665 H   0  0  0  0  0  0  0  0  0  0  0  0
   -1.3874    0.9633   10.6626 H   0  0  0  0  0  0  0  0  0  0  0  0
   -0.0483    3.8217   12.4222 H   0  0  0  0  0  0  0  0  0  0  0  0
    1.5278    4.5589   12.3814 H   0  0  0  0  0  0  0  0  0  0  0  0
    1.3977    2.8472   12.7241 H   0  0  0  0  0  0  0  0  0  0  0  0
    2.7927    3.2400    9.5966 H   0  0  0  0  0  0  0  0  0  0  0  0
    0.6582    5.4708   10.0350 H   0  0  0  0  0  0  0  0  0  0  0  0
   -0.6167    4.6865    8.0354 H   0  0  0  0  0  0  0  0  0  0  0  0
   -1.8829    2.5301    9.3880 H   0  0  0  0  0  0  0  0  0  0  0  0
   -0.5899    2.9546    5.3251 H   0  0  0  0  0  0  0  0  0  0  0  0
   -0.2355   -2.4072    4.7463 H   0  0  0  0  0  0  0  0  0  0  0  0
   -1.4780   -1.5854    5.6846 H   0  0  0  0  0  0  0  0  0  0  0  0
   -0.0246   -2.1085    6.4817 H   0  0  0  0  0  0  0  0  0  0  0  0
   -0.1778   -0.8176    3.1660 H   0  0  0  0  0  0  0  0  0  0  0  0
    0.1260    0.8747    3.3396 H   0  0  0  0  0  0  0  0  0  0  0  0
   -1.3835    0.2032    3.9024 H   0  0  0  0  0  0  0  0  0  0  0  0
    1.7946   -0.7718    4.0053 H   0  0  0  0  0  0  0  0  0  0  0  0
    1.8682   -2.6725    5.9602 H   0  0  0  0  0  0  0  0  0  0  0  0
    2.9676   -4.9065    2.4196 H   0  0  0  0  0  0  0  0  0  0  0  0
    1.8147   -3.7904    1.6700 H   0  0  0  0  0  0  0  0  0  0  0  0
    1.2650   -5.3332    2.3013 H   0  0  0  0  0  0  0  0  0  0  0  0
    4.1090   -3.3971    5.8623 H   0  0  0  0  0  0  0  0  0  0  0  0
    4.8059   -2.3980    4.1604 H   0  0  0  0  0  0  0  0  0  0  0  0
    4.3203   -2.9265    7.9304 H   0  0  0  0  0  0  0  0  0  0  0  0
    5.5868   -1.9842    7.3911 H   0  0  0  0  0  0  0  0  0  0  0  0
    6.4023    0.4815    7.7726 H   0  0  0  0  0  0  0  0  0  0  0  0
    5.8611    1.5464    6.5175 H   0  0  0  0  0  0  0  0  0  0  0  0
    5.9785   -0.1404    6.2907 H   0  0  0  0  0  0  0  0  0  0  0  0
    3.9796   -0.3723    3.8637 H   0  0  0  0  0  0  0  0  0  0  0  0
    3.1589    2.5656    4.6703 H   0  0  0  0  0  0  0  0  0  0  0  0
    1.6147    2.0106    4.2111 H   0  0  0  0  0  0  0  0  0  0  0  0
    2.3208    4.4693    5.0240 H   0  0  0  0  0  0  0  0  0  0  0  0
    1.0519    4.8245    6.2082 H   0  0  0  0  0  0  0  0  0  0  0  0
    0.7331    4.0019    4.6921 H   0  0  0  0  0  0  0  0  0  0  0  0
    2.3013    3.4452    8.0841 H   0  0  0  0  0  0  0  0  0  0  0  0
    3.1553    1.6693    8.9293 H   0  0  0  0  0  0  0  0  0  0  0  0
    4.4402    4.3576    9.1929 H   0  0  0  0  0  0  0  0  0  0  0  0
    6.3717    5.5401    8.0957 H   0  0  0  0  0  0  0  0  0  0  0  0
    6.8647    3.9984    7.3717 H   0  0  0  0  0  0  0  0  0  0  0  0
    6.8533    4.1961    9.1141 H   0  0  0  0  0  0  0  0  0  0  0  0
    5.2913    4.8253    5.9151 H   0  0  0  0  0  0  0  0  0  0  0  0
    2.6276    5.7507    8.0703 H   0  0  0  0  0  0  0  0  0  0  0  0
    4.2489    6.2991    7.7397 H   0  0  0  0  0  0  0  0  0  0  0  0
    2.3648    5.9595    5.7396 H   0  0  0  0  0  0  0  0  0  0  0  0
    6.3158   -1.6562   10.9555 H   0  0  0  0  0  0  0  0  0  0  0  0
    6.6086   -1.3268    9.2847 H   0  0  0  0  0  0  0  0  0  0  0  0
    5.6286   -2.6768    9.7012 H   0  0  0  0  0  0  0  0  0  0  0  0
    5.9480    0.5045   11.2185 H   0  0  0  0  0  0  0  0  0  0  0  0
    4.8234    1.4855   10.4304 H   0  0  0  0  0  0  0  0  0  0  0  0
    6.2165    0.8513    9.6420 H   0  0  0  0  0  0  0  0  0  0  0  0
    4.8300   -1.1783   12.5632 H   0  0  0  0  0  0  0  0  0  0  0  0
    3.0364    1.2867   11.2059 H   0  0  0  0  0  0  0  0  0  0  0  0
    2.0550    0.4819   12.1850 H   0  0  0  0  0  0  0  0  0  0  0  0
  1  2  1  0
  1 74  1  0
  1 75  1  0
  1 76  1  0
  2  3  1  0
  3 18  1  0
  3  4  1  0
  3  6  1  0
  4  5  1  0
  5 77  1  0
  5 78  1  0
  5 79  1  0
  6  7  2  0
  6  8  1  0
  8  9  2  3
  8 80  1  0
  9 71  1  0
  9 10  1  0
 10 11  1  0
 10 12  1  0
 10 13  1  0
 11 81  1  0
 11 82  1  0
 11 83  1  0
 12 84  1  0
 12 85  1  0
 12 86  1  0
 13 20  1  0
 13 14  1  0
 13 87  1  6
 14 15  1  0
 15 16  1  0
 15 17  1  0
 15 18  1  0
 16 88  1  0
 16 89  1  0
 16 90  1  0
 17 91  1  0
 17 92  1  0
 17 93  1  0
 18 19  1  6
 18 20  1  0
 19 94  1  0
 20 21  1  0
 20 95  1  6
 21 50  1  0
 21 22  1  0
 21 96  1  6
 22 23  2  0
 22 24  1  1
 24 73  1  0
 24 25  1  0
 24 97  1  1
 25 32  1  0
 25 26  1  1
 25 27  1  0
 26 98  1  0
 26 99  1  0
 26100  1  0
 27 28  1  0
 27 29  1  1
 27 30  1  0
 28101  1  0
 28102  1  0
 28103  1  0
 29104  1  0
 30 31  2  0
 30105  1  0
 31 32  1  0
 31106  1  0
 32 33  1  1
 32 34  1  0
 33107  1  0
 34 57  1  0
 34 35  1  6
 34 36  1  0
 35108  1  0
 36 37  2  0
 36 38  1  0
 38 39  1  0
 38 40  1  0
 38 41  1  0
 39109  1  0
 39110  1  0
 39111  1  0
 40112  1  0
 40113  1  0
 40114  1  0
 41 54  1  0
 41 42  1  0
 41115  1  6
 42 43  1  0
 42 47  1  0
 42116  1  1
 43 44  1  0
 44 45  1  0
 44 46  2  0
 45117  1  0
 45118  1  0
 45119  1  0
 47 48  1  0
 47 49  1  0
 47120  1  1
 48121  1  0
 50 49  1  6
 49122  1  0
 49123  1  0
 50 51  1  0
 50 68  1  0
 51 60  1  0
 51 52  1  6
 51 53  1  0
 52124  1  0
 52125  1  0
 52126  1  0
 53 54  1  0
 54 55  1  6
 54 56  1  0
 55127  1  0
 56 57  1  0
 56128  1  0
 56129  1  0
 57 58  1  6
 57 59  1  0
 58130  1  0
 58131  1  0
 58132  1  0
 59 64  1  0
 59 60  1  0
 59133  1  1
 60 61  1  0
 60134  1  1
 61 62  1  0
 62 63  1  0
 62 64  1  0
 62135  1  1
 63136  1  0
 63137  1  0
 63138  1  0
 64 65  1  6
 64 66  1  0
 65139  1  0
 66 67  1  0
 66140  1  0
 66141  1  0
 67142  1  0
 68 69  1  0
 68 70  1  0
 68 71  1  0
 69143  1  0
 69144  1  0
 69145  1  0
 70146  1  0
 70147  1  0
 70148  1  0
 71 72  1  1
 71 73  1  0
 72149  1  0
 73150  1  0
 73151  1  0
M  END
>  <i_m_ct_stereo_status>  (76) 
1

>  <s_m_source_file>  (76) 
/var/tmp/pbs.5075288.sched01/tmpq0rgj53d/65gxdktgdh.sdf

>  <i_m_source_file_index>  (76) 
17

>  <i_lp_mmshare_version>  (76) 
48012

>  <i_f3d_flags>  (76) 
0

>  <s_epik_input>  (76) 
TzFDKFtDSDNdKShbQ0gzXSlbQ0BdMihbT0hdKUMoT1tDSDNdKShPW0NIM10pQyg9TykvW0NIXT1DKFxDKFtDSDNdKShbQ0gzXSlbQ0BIXTFbQ0BIXTJbQ0BASF0zW0NAQF00NTYpW0NAQF0oW09IXSkoQzYoW0NIM10pW0NIM10pW0NIMl1bQ0BIXShbUytdM1tPLV0pW0NAXTcoW0NIM10pW0NAQF0oW09IXSkoW0NIXT1bQ0hdW0NAXTcoW0NIM10pW09IXSlbQ0BAXTgoW09IXSlbQ0BAXTkoW0NIM10pW0NASF0xW0NASF0oT1tDQEBIXShbQ0gzXSlbQ0BdMShbT0hdKVtDSDJdW09IXSlbQ0BdNShbQ0gzXSlPW0NAXShbT0hdKShbQ0gyXTkpW0NASF0oQyhDOD1PKShbQ0gzXSlbQ0gzXSlbQ0BIXShbQ0BASF0oW09IXSlbQ0gyXTQpT0MoPU8pW0NIM10=

>  <s_epik_cmdline>  (76) 
J2VwaWtfcHl0aG9uJywgJy1waHQnLCAnMi4wJywgJy1waCcsICc3LjAnLCAnLXRuJywgJzgnLCAnLW1hJywgJzIwMCcsICctaW1hZScsICc8aW5maWxlLm1hZT4nLCAnLW9tYWUnLCAnPG91dGZpbGUubWFlPic=

>  <r_lp_tautomer_probability>  (76) 
1

>  <r_epik_Ionization_Penalty>  (76) 
1.51163e-05

>  <r_epik_Ionization_Penalty_Charging>  (76) 
0

>  <r_epik_Ionization_Penalty_Neutral>  (76) 
1.51163e-05

>  <r_epik_State_Penalty>  (76) 
-0

>  <r_epik_Charging_Adjusted_Penalty>  (76) 
0

>  <i_epik_Tot_Q>  (76) 
0

>  <i_epik_Tot_abs_Q>  (76) 
2

>  <s_epik_Chemistry_Notes>  (76) 
This compound has an ester and may undergo hydrolysis at high or low pH.

>  <s_lp_Force_Field>  (76) 
OPLS3e

>  <r_lp_Energy>  (76) 
430.204

>  <b_lp_Chiralities_Consistent>  (76) 
1

>  <s_lp_Variant>  (76) 
19:0-1

>  <s_i_glide_gridfile>  (76) 
pfpi4k_grid

>  <i_i_glide_lignum>  (76) 
17

>  <i_i_glide_rotatable_bonds>  (76) 
14

>  <r_i_docking_score>  (76) 
-2.5062

>  <r_i_glide_ligand_efficiency>  (76) 
-0.0343315

>  <r_i_glide_ligand_efficiency_sa>  (76) 
-0.143483

>  <r_i_glide_ligand_efficiency_ln>  (76) 
-0.473721

>  <r_i_glide_gscore>  (76) 
-2.5062

>  <r_i_glide_lipo>  (76) 
-0.0294467

>  <r_i_glide_hbond>  (76) 
-0.194955

>  <r_i_glide_metal>  (76) 
-0

>  <r_i_glide_rewards>  (76) 
-0.00527118

>  <r_i_glide_evdw>  (76) 
-24.8266

>  <r_i_glide_ecoul>  (76) 
-7.00812

>  <r_i_glide_erotb>  (76) 
0.0404881

>  <r_i_glide_esite>  (76) 
-0.0244691

>  <r_i_glide_emodel>  (76) 
-31.0621

>  <r_i_glide_energy>  (76) 
-31.8347

>  <r_i_glide_einternal>  (76) 
9.52167

>  <r_i_glide_intrahb_reward>  (76) 
-0

>  <i_i_glide_confnum>  (76) 
2

>  <i_i_glide_posenum>  (76) 
21

>  <r_i_glide_eff_state_penalty>  (76) 
0

>  <ligand_id>  (76) 
19

>  <original_smiles>  (76) 
COC1(OC)C(=O)C=C2C(C)(C)C3OC(C)(C)C1(O)C3C1[S+]([O-])C3C4(C)C(C)(O)C=CC4(O)C4(O)C(=O)C(C)(C)C5C(OC(C)=O)C(O)CC1(C1(C)OC5(O)CC4(C)C4C1OC(C)C4(O)CO)C(C)(C)C2(O)C3

>  <smiles>  (76) 
[H]OC([H])([H])C1(O[H])C([H])(C([H])([H])[H])OC2([H])C1([H])C1(C([H])([H])[H])C([H])([H])C3(O[H])OC2(C([H])([H])[H])C24C([H])([H])C([H])(O[H])C([H])(OC(=O)C([H])([H])[H])C3([H])C(C([H])([H])[H])(C([H])([H])[H])C(=O)C1(O[H])C1(O[H])C([H])=C([H])C(O[H])(C([H])([H])[H])C1(C([H])([H])[H])C1([H])S(=O)C2([H])C2([H])C3([H])OC(C([H])([H])[H])(C([H])([H])[H])C2(O[H])C(OC([H])([H])[H])(OC([H])([H])[H])C(=O)C([H])=C(C(O[H])(C1([H])[H])C4(C([H])([H])[H])C([H])([H])[H])C3(C([H])([H])[H])C([H])([H])[H]

$$$$
19:0:2
     RDKit          3D

151160  0  0  1  0  0  0  0  0999 V2000
    7.0513   -4.2877    7.3045 C   0  0  0  0  0  0  0  0  0  0  0  0
    5.6626   -3.9277    7.1709 O   0  0  0  0  0  0  0  0  0  0  0  0
    4.6981   -4.6311    7.8872 C   0  0  0  0  0  0  0  0  0  0  0  0
    4.8659   -5.9992    7.5988 O   0  0  0  0  0  0  0  0  0  0  0  0
    4.8472   -6.4423    6.2391 C   0  0  0  0  0  0  0  0  0  0  0  0
    5.0759   -4.4697    9.3970 C   0  0  0  0  0  0  0  0  0  0  0  0
    5.4477   -5.4515   10.0370 O   0  0  0  0  0  0  0  0  0  0  0  0
    5.0959   -3.1205    9.9682 C   0  0  0  0  0  0  0  0  0  0  0  0
    4.0068   -2.3462   10.2360 C   0  0  0  0  0  0  0  0  0  0  0  0
    2.6538   -3.0144   10.6223 C   0  0  0  0  0  0  0  0  0  0  0  0
    2.7953   -4.4133   11.3227 C   0  0  0  0  0  0  0  0  0  0  0  0
    1.8955   -2.3194   11.8055 C   0  0  0  0  0  0  0  0  0  0  0  0
    1.8831   -3.1208    9.2923 C   0  0  2  0  0  0  0  0  0  0  0  0
    1.4543   -4.4556    9.0558 O   0  0  0  0  0  0  0  0  0  0  0  0
    2.0358   -5.0669    7.9019 C   0  0  0  0  0  0  0  0  0  0  0  0
    2.3027   -6.5254    8.3557 C   0  0  0  0  0  0  0  0  0  0  0  0
    0.8701   -5.1702    6.8794 C   0  0  0  0  0  0  0  0  0  0  0  0
    3.2308   -4.1151    7.4273 C   0  0  2  0  0  0  0  0  0  0  0  0
    3.1937   -3.9622    6.0200 O   0  0  0  0  0  0  0  0  0  0  0  0
    2.6829   -2.7416    7.9957 C   0  0  2  0  0  0  0  0  0  0  0  0
    2.9152   -1.1899    7.5285 C   0  0  1  0  0  0  0  0  0  0  0  0
    1.4715   -0.1929    7.9456 S   0  0  0  0  0  0  0  0  0  0  0  0
    0.2299   -1.0829    7.8872 O   0  0  0  0  0  0  0  0  0  0  0  0
    1.5583    0.3584    9.6567 C   0  0  2  0  0  0  0  0  0  0  0  0
    0.5106    1.5727    9.8062 C   0  0  1  0  0  0  0  0  0  0  0  0
   -0.4907    0.9085   10.8319 C   0  0  0  0  0  0  0  0  0  0  0  0
    1.0204    2.8628   10.6096 C   0  0  1  0  0  0  0  0  0  0  0  0
    1.0144    2.8587   12.1623 C   0  0  0  0  0  0  0  0  0  0  0  0
    2.3349    3.2787   10.3716 O   0  0  0  0  0  0  0  0  0  0  0  0
    0.1354    3.9418   10.0720 C   0  0  0  0  0  0  0  0  0  0  0  0
   -0.5839    3.5854    9.0144 C   0  0  0  0  0  0  0  0  0  0  0  0
   -0.3869    2.1616    8.4984 C   0  0  2  0  0  0  0  0  0  0  0  0
   -1.6832    1.6041    8.6592 O   0  0  0  0  0  0  0  0  0  0  0  0
   -0.1307    2.1880    6.8133 C   0  0  2  0  0  0  0  0  0  0  0  0
   -1.3226    2.9256    6.5070 O   0  0  0  0  0  0  0  0  0  0  0  0
   -0.5403    0.8653    5.9838 C   0  0  0  0  0  0  0  0  0  0  0  0
   -1.6387    0.3758    6.2697 O   0  0  0  0  0  0  0  0  0  0  0  0
    0.1250    0.1243    4.7396 C   0  0  0  0  0  0  0  0  0  0  0  0
   -0.2294   -1.3922    4.8391 C   0  0  0  0  0  0  0  0  0  0  0  0
   -0.7356    0.5541    3.5052 C   0  0  0  0  0  0  0  0  0  0  0  0
    1.6774    0.1584    4.3581 C   0  0  2  0  0  0  0  0  0  0  0  0
    2.6416   -1.1274    4.2246 C   0  0  1  0  0  0  0  0  0  0  0  0
    2.6633   -1.5744    2.8572 O   0  0  0  0  0  0  0  0  0  0  0  0
    2.4778   -2.8622    2.5066 C   0  0  0  0  0  0  0  0  0  0  0  0
    2.6299   -3.0881    1.0103 C   0  0  0  0  0  0  0  0  0  0  0  0
    2.2319   -3.7981    3.2631 O   0  0  0  0  0  0  0  0  0  0  0  0
    4.1891   -1.1371    4.6084 C   0  0  1  0  0  0  0  0  0  0  0  0
    4.9118   -0.3742    3.6626 O   0  0  0  0  0  0  0  0  0  0  0  0
    4.8234   -1.0104    6.0836 C   0  0  0  0  0  0  0  0  0  0  0  0
    4.1795   -0.2188    7.3152 C   0  0  1  0  0  0  0  0  0  0  0  0
    3.9866    1.3026    6.6446 C   0  0  1  0  0  0  0  0  0  0  0  0
    5.3879    1.8062    6.0958 C   0  0  0  0  0  0  0  0  0  0  0  0
    3.5883    1.4204    5.2779 O   0  0  0  0  0  0  0  0  0  0  0  0
    2.4165    1.5097    4.5312 C   0  0  1  0  0  0  0  0  0  0  0  0
    2.8804    1.7981    3.2362 O   0  0  0  0  0  0  0  0  0  0  0  0
    1.6082    2.7814    4.7975 C   0  0  0  0  0  0  0  0  0  0  0  0
    1.0687    3.1426    6.1943 C   0  0  1  0  0  0  0  0  0  0  0  0
    0.4353    4.5212    5.7783 C   0  0  0  0  0  0  0  0  0  0  0  0
    2.2939    3.5119    7.1400 C   0  0  1  0  0  0  0  0  0  0  0  0
    3.3856    2.4600    7.5373 C   0  0  2  0  0  0  0  0  0  0  0  0
    4.4779    3.2709    7.9626 O   0  0  0  0  0  0  0  0  0  0  0  0
    4.1953    4.6356    8.0847 C   0  0  1  0  0  0  0  0  0  0  0  0
    5.4988    5.4464    7.9538 C   0  0  0  0  0  0  0  0  0  0  0  0
    3.0477    4.9057    7.1014 C   0  0  1  0  0  0  0  0  0  0  0  0
    3.6294    5.1696    5.8429 O   0  0  0  0  0  0  0  0  0  0  0  0
    2.3435    6.1917    7.6712 C   0  0  0  0  0  0  0  0  0  0  0  0
    1.7071    7.0351    6.7434 O   0  0  0  0  0  0  0  0  0  0  0  0
    5.0112   -0.2112    8.7705 C   0  0  0  0  0  0  0  0  0  0  0  0
    6.4079   -0.8454    8.5006 C   0  0  0  0  0  0  0  0  0  0  0  0
    5.6135    1.1612    9.2972 C   0  0  0  0  0  0  0  0  0  0  0  0
    4.1681   -0.7774   10.0868 C   0  0  2  0  0  0  0  0  0  0  0  0
    4.9457   -0.5049   11.2440 O   0  0  0  0  0  0  0  0  0  0  0  0
    2.9278    0.1911   10.4406 C   0  0  0  0  0  0  0  0  0  0  0  0
    7.6217   -3.7486    6.5478 H   0  0  0  0  0  0  0  0  0  0  0  0
    7.2353   -5.3544    7.1453 H   0  0  0  0  0  0  0  0  0  0  0  0
    7.4781   -4.0094    8.2726 H   0  0  0  0  0  0  0  0  0  0  0  0
    5.2206   -7.4666    6.2027 H   0  0  0  0  0  0  0  0  0  0  0  0
    5.4800   -5.8414    5.5890 H   0  0  0  0  0  0  0  0  0  0  0  0
    3.8410   -6.4569    5.8268 H   0  0  0  0  0  0  0  0  0  0  0  0
    6.0669   -2.6946    9.9149 H   0  0  0  0  0  0  0  0  0  0  0  0
    1.8563   -4.7867   11.7316 H   0  0  0  0  0  0  0  0  0  0  0  0
    3.5061   -4.3696   12.1462 H   0  0  0  0  0  0  0  0  0  0  0  0
    3.0747   -5.2423   10.6963 H   0  0  0  0  0  0  0  0  0  0  0  0
    1.2105   -2.9710   12.3425 H   0  0  0  0  0  0  0  0  0  0  0  0
    1.2150   -1.5282   11.5698 H   0  0  0  0  0  0  0  0  0  0  0  0
    2.5965   -1.9529   12.5522 H   0  0  0  0  0  0  0  0  0  0  0  0
    0.9490   -2.5923    9.4014 H   0  0  0  0  0  0  0  0  0  0  0  0
    2.5492   -7.1829    7.5221 H   0  0  0  0  0  0  0  0  0  0  0  0
    1.4101   -6.9472    8.8220 H   0  0  0  0  0  0  0  0  0  0  0  0
    3.0939   -6.6225    9.0947 H   0  0  0  0  0  0  0  0  0  0  0  0
    1.1911   -5.6892    5.9733 H   0  0  0  0  0  0  0  0  0  0  0  0
    0.4666   -4.2065    6.5720 H   0  0  0  0  0  0  0  0  0  0  0  0
    0.0359   -5.7435    7.2891 H   0  0  0  0  0  0  0  0  0  0  0  0
    3.9814   -3.4986    5.7764 H   0  0  0  0  0  0  0  0  0  0  0  0
    1.7819   -2.7715    7.3948 H   0  0  0  0  0  0  0  0  0  0  0  0
    2.5597   -1.2640    6.5360 H   0  0  0  0  0  0  0  0  0  0  0  0
    1.0225   -0.5162    9.9560 H   0  0  0  0  0  0  0  0  0  0  0  0
   -1.2821    1.5810   11.1743 H   0  0  0  0  0  0  0  0  0  0  0  0
    0.0158    0.5568   11.7320 H   0  0  0  0  0  0  0  0  0  0  0  0
   -0.9839    0.0177   10.4346 H   0  0  0  0  0  0  0  0  0  0  0  0
    0.0245    2.7540   12.6006 H   0  0  0  0  0  0  0  0  0  0  0  0
    1.4134    3.7942   12.5460 H   0  0  0  0  0  0  0  0  0  0  0  0
    1.6513    2.0680   12.5489 H   0  0  0  0  0  0  0  0  0  0  0  0
    2.4835    3.3308    9.4343 H   0  0  0  0  0  0  0  0  0  0  0  0
    0.0616    4.9103   10.5479 H   0  0  0  0  0  0  0  0  0  0  0  0
   -1.3090    4.2497    8.5680 H   0  0  0  0  0  0  0  0  0  0  0  0
   -1.9907    1.8048    9.5359 H   0  0  0  0  0  0  0  0  0  0  0  0
   -1.3491    3.0559    5.5701 H   0  0  0  0  0  0  0  0  0  0  0  0
    0.0220   -1.9235    3.9194 H   0  0  0  0  0  0  0  0  0  0  0  0
   -1.2855   -1.5941    4.9966 H   0  0  0  0  0  0  0  0  0  0  0  0
    0.2971   -1.8924    5.6473 H   0  0  0  0  0  0  0  0  0  0  0  0
   -0.5754   -0.1017    2.6495 H   0  0  0  0  0  0  0  0  0  0  0  0
   -0.5447    1.5591    3.1441 H   0  0  0  0  0  0  0  0  0  0  0  0
   -1.7961    0.5051    3.7201 H   0  0  0  0  0  0  0  0  0  0  0  0
    1.4724    0.2024    3.2863 H   0  0  0  0  0  0  0  0  0  0  0  0
    2.1824   -1.9404    4.7676 H   0  0  0  0  0  0  0  0  0  0  0  0
    3.5766   -2.6673    0.6735 H   0  0  0  0  0  0  0  0  0  0  0  0
    1.8222   -2.6012    0.4643 H   0  0  0  0  0  0  0  0  0  0  0  0
    2.6262   -4.1537    0.7689 H   0  0  0  0  0  0  0  0  0  0  0  0
    4.4991   -2.1489    4.3402 H   0  0  0  0  0  0  0  0  0  0  0  0
    4.6862   -0.7076    2.7966 H   0  0  0  0  0  0  0  0  0  0  0  0
    4.8837   -2.0253    6.4118 H   0  0  0  0  0  0  0  0  0  0  0  0
    5.8737   -0.7568    5.9528 H   0  0  0  0  0  0  0  0  0  0  0  0
    6.2509    1.7159    6.7272 H   0  0  0  0  0  0  0  0  0  0  0  0
    5.3494    2.8478    5.7808 H   0  0  0  0  0  0  0  0  0  0  0  0
    5.7420    1.2929    5.2082 H   0  0  0  0  0  0  0  0  0  0  0  0
    3.4772    1.1101    2.9863 H   0  0  0  0  0  0  0  0  0  0  0  0
    2.2766    3.5888    4.4705 H   0  0  0  0  0  0  0  0  0  0  0  0
    0.7986    2.8155    4.0668 H   0  0  0  0  0  0  0  0  0  0  0  0
    1.1415    5.1483    5.2435 H   0  0  0  0  0  0  0  0  0  0  0  0
    0.0281    5.0555    6.6350 H   0  0  0  0  0  0  0  0  0  0  0  0
   -0.3621    4.4587    5.0302 H   0  0  0  0  0  0  0  0  0  0  0  0
    1.7624    3.6562    8.0536 H   0  0  0  0  0  0  0  0  0  0  0  0
    3.0431    1.9764    8.4300 H   0  0  0  0  0  0  0  0  0  0  0  0
    3.8290    4.7816    9.0965 H   0  0  0  0  0  0  0  0  0  0  0  0
    5.3324    6.5175    8.0681 H   0  0  0  0  0  0  0  0  0  0  0  0
    5.9930    5.2681    7.0006 H   0  0  0  0  0  0  0  0  0  0  0  0
    6.1963    5.1434    8.7344 H   0  0  0  0  0  0  0  0  0  0  0  0
    4.1392    5.9667    5.9114 H   0  0  0  0  0  0  0  0  0  0  0  0
    1.6459    5.9408    8.4680 H   0  0  0  0  0  0  0  0  0  0  0  0
    3.0805    6.8621    8.1101 H   0  0  0  0  0  0  0  0  0  0  0  0
    1.1132    6.5132    6.2316 H   0  0  0  0  0  0  0  0  0  0  0  0
    7.0173   -0.9213    9.4011 H   0  0  0  0  0  0  0  0  0  0  0  0
    7.0045   -0.2479    7.8124 H   0  0  0  0  0  0  0  0  0  0  0  0
    6.3609   -1.8224    8.0479 H   0  0  0  0  0  0  0  0  0  0  0  0
    6.2981    1.0322   10.1347 H   0  0  0  0  0  0  0  0  0  0  0  0
    4.9112    1.8805    9.6824 H   0  0  0  0  0  0  0  0  0  0  0  0
    6.2708    1.7025    8.6436 H   0  0  0  0  0  0  0  0  0  0  0  0
    5.7256   -1.0379   11.2021 H   0  0  0  0  0  0  0  0  0  0  0  0
    3.3229    1.1730   10.5853 H   0  0  0  0  0  0  0  0  0  0  0  0
    2.6597    0.0274   11.4760 H   0  0  0  0  0  0  0  0  0  0  0  0
  1  2  1  0
  1 74  1  0
  1 75  1  0
  1 76  1  0
  2  3  1  0
  3 18  1  0
  3  4  1  0
  3  6  1  0
  4  5  1  0
  5 77  1  0
  5 78  1  0
  5 79  1  0
  6  7  2  0
  6  8  1  0
  8  9  2  3
  8 80  1  0
  9 71  1  0
  9 10  1  0
 10 11  1  0
 10 12  1  0
 10 13  1  0
 11 81  1  0
 11 82  1  0
 11 83  1  0
 12 84  1  0
 12 85  1  0
 12 86  1  0
 13 20  1  0
 13 14  1  0
 13 87  1  1
 14 15  1  0
 15 16  1  0
 15 17  1  0
 15 18  1  0
 16 88  1  0
 16 89  1  0
 16 90  1  0
 17 91  1  0
 17 92  1  0
 17 93  1  0
 18 19  1  6
 18 20  1  0
 19 94  1  0
 20 21  1  0
 20 95  1  6
 21 50  1  0
 21 22  1  0
 21 96  1  6
 22 23  2  0
 22 24  1  1
 24 73  1  0
 24 25  1  0
 24 97  1  1
 25 32  1  0
 25 26  1  1
 25 27  1  0
 26 98  1  0
 26 99  1  0
 26100  1  0
 27 28  1  0
 27 29  1  1
 27 30  1  0
 28101  1  0
 28102  1  0
 28103  1  0
 29104  1  0
 30 31  2  0
 30105  1  0
 31 32  1  0
 31106  1  0
 32 33  1  6
 32 34  1  0
 33107  1  0
 34 57  1  0
 34 35  1  6
 34 36  1  0
 35108  1  0
 36 37  2  0
 36 38  1  0
 38 39  1  0
 38 40  1  0
 38 41  1  0
 39109  1  0
 39110  1  0
 39111  1  0
 40112  1  0
 40113  1  0
 40114  1  0
 41 54  1  0
 41 42  1  0
 41115  1  6
 42 43  1  0
 42 47  1  0
 42116  1  1
 43 44  1  0
 44 45  1  0
 44 46  2  0
 45117  1  0
 45118  1  0
 45119  1  0
 47 48  1  0
 47 49  1  0
 47120  1  6
 48121  1  0
 50 49  1  6
 49122  1  0
 49123  1  0
 50 51  1  0
 50 68  1  0
 51 60  1  0
 51 52  1  6
 51 53  1  0
 52124  1  0
 52125  1  0
 52126  1  0
 53 54  1  0
 54 55  1  6
 54 56  1  0
 55127  1  0
 56 57  1  0
 56128  1  0
 56129  1  0
 57 58  1  6
 57 59  1  0
 58130  1  0
 58131  1  0
 58132  1  0
 59 64  1  0
 59 60  1  0
 59133  1  1
 60 61  1  0
 60134  1  1
 61 62  1  0
 62 63  1  0
 62 64  1  0
 62135  1  1
 63136  1  0
 63137  1  0
 63138  1  0
 64 65  1  6
 64 66  1  0
 65139  1  0
 66 67  1  0
 66140  1  0
 66141  1  0
 67142  1  0
 68 69  1  0
 68 70  1  0
 68 71  1  0
 69143  1  0
 69144  1  0
 69145  1  0
 70146  1  0
 70147  1  0
 70148  1  0
 71 72  1  1
 71 73  1  0
 72149  1  0
 73150  1  0
 73151  1  0
M  END
>  <i_m_ct_stereo_status>  (77) 
1

>  <s_m_source_file>  (77) 
/var/tmp/pbs.5075288.sched01/tmpq0rgj53d/65gxdktgdh.sdf

>  <i_m_source_file_index>  (77) 
17

>  <i_lp_mmshare_version>  (77) 
48012

>  <i_f3d_flags>  (77) 
0

>  <s_epik_input>  (77) 
TzFDKFtDSDNdKShbQ0gzXSlbQ0BdMihbT0hdKUMoT1tDSDNdKShPW0NIM10pQyg9TykvW0NIXT1DKFxDKFtDSDNdKShbQ0gzXSlbQ0BIXTFbQ0BIXTJbQ0BASF0zW0NAQF00NTYpW0NAQF0oW09IXSkoQzYoW0NIM10pW0NIM10pW0NIMl1bQ0BIXShbUytdM1tPLV0pW0NAXTcoW0NIM10pW0NAQF0oW09IXSkoW0NIXT1bQ0hdW0NAXTcoW0NIM10pW09IXSlbQ0BAXTgoW09IXSlbQ0BAXTkoW0NIM10pW0NASF0xW0NASF0oT1tDQEBIXShbQ0gzXSlbQ0BdMShbT0hdKVtDSDJdW09IXSlbQ0BdNShbQ0gzXSlPW0NAXShbT0hdKShbQ0gyXTkpW0NASF0oQyhDOD1PKShbQ0gzXSlbQ0gzXSlbQ0BIXShbQ0BASF0oW09IXSlbQ0gyXTQpT0MoPU8pW0NIM10=

>  <s_epik_cmdline>  (77) 
J2VwaWtfcHl0aG9uJywgJy1waHQnLCAnMi4wJywgJy1waCcsICc3LjAnLCAnLXRuJywgJzgnLCAnLW1hJywgJzIwMCcsICctaW1hZScsICc8aW5maWxlLm1hZT4nLCAnLW9tYWUnLCAnPG91dGZpbGUubWFlPic=

>  <r_lp_tautomer_probability>  (77) 
1

>  <r_epik_Ionization_Penalty>  (77) 
1.51163e-05

>  <r_epik_Ionization_Penalty_Charging>  (77) 
0

>  <r_epik_Ionization_Penalty_Neutral>  (77) 
1.51163e-05

>  <r_epik_State_Penalty>  (77) 
-0

>  <r_epik_Charging_Adjusted_Penalty>  (77) 
0

>  <i_epik_Tot_Q>  (77) 
0

>  <i_epik_Tot_abs_Q>  (77) 
2

>  <s_epik_Chemistry_Notes>  (77) 
This compound has an ester and may undergo hydrolysis at high or low pH.

>  <s_lp_Force_Field>  (77) 
OPLS3e

>  <r_lp_Energy>  (77) 
430.204

>  <b_lp_Chiralities_Consistent>  (77) 
1

>  <s_lp_Variant>  (77) 
19:0-1

>  <s_i_glide_gridfile>  (77) 
pfpi4k_grid

>  <i_i_glide_lignum>  (77) 
17

>  <i_i_glide_rotatable_bonds>  (77) 
14

>  <r_i_docking_score>  (77) 
-2.47384

>  <r_i_glide_ligand_efficiency>  (77) 
-0.0338882

>  <r_i_glide_ligand_efficiency_sa>  (77) 
-0.14163

>  <r_i_glide_ligand_efficiency_ln>  (77) 
-0.467604

>  <r_i_glide_gscore>  (77) 
-2.47384

>  <r_i_glide_lipo>  (77) 
-0.034273

>  <r_i_glide_hbond>  (77) 
-0.145498

>  <r_i_glide_metal>  (77) 
-0

>  <r_i_glide_rewards>  (77) 
0

>  <r_i_glide_evdw>  (77) 
-26.5038

>  <r_i_glide_ecoul>  (77) 
-6.52773

>  <r_i_glide_erotb>  (77) 
0.0404881

>  <r_i_glide_esite>  (77) 
-0.030207

>  <r_i_glide_emodel>  (77) 
-33.0067

>  <r_i_glide_energy>  (77) 
-33.0315

>  <r_i_glide_einternal>  (77) 
9.74027

>  <r_i_glide_intrahb_reward>  (77) 
-0

>  <i_i_glide_confnum>  (77) 
5

>  <i_i_glide_posenum>  (77) 
27

>  <r_i_glide_eff_state_penalty>  (77) 
0

>  <ligand_id>  (77) 
19

>  <original_smiles>  (77) 
COC1(OC)C(=O)C=C2C(C)(C)C3OC(C)(C)C1(O)C3C1[S+]([O-])C3C4(C)C(C)(O)C=CC4(O)C4(O)C(=O)C(C)(C)C5C(OC(C)=O)C(O)CC1(C1(C)OC5(O)CC4(C)C4C1OC(C)C4(O)CO)C(C)(C)C2(O)C3

>  <smiles>  (77) 
[H]OC([H])([H])C1(O[H])C([H])(C([H])([H])[H])OC2([H])C1([H])C1(C([H])([H])[H])C([H])([H])C3(O[H])OC2(C([H])([H])[H])C24C([H])([H])C([H])(O[H])C([H])(OC(=O)C([H])([H])[H])C3([H])C(C([H])([H])[H])(C([H])([H])[H])C(=O)C1(O[H])C1(O[H])C([H])=C([H])C(O[H])(C([H])([H])[H])C1(C([H])([H])[H])C1([H])S(=O)C2([H])C2([H])C3([H])OC(C([H])([H])[H])(C([H])([H])[H])C2(O[H])C(OC([H])([H])[H])(OC([H])([H])[H])C(=O)C([H])=C(C(O[H])(C1([H])[H])C4(C([H])([H])[H])C([H])([H])[H])C3(C([H])([H])[H])C([H])([H])[H]

$$$$
19:1:0
     RDKit          3D

151160  0  0  1  0  0  0  0  0999 V2000
    1.2595    6.2743    6.9836 C   0  0  0  0  0  0  0  0  0  0  0  0
    1.7283    5.1352    6.2358 O   0  0  0  0  0  0  0  0  0  0  0  0
    0.8476    4.3870    5.4274 C   0  0  0  0  0  0  0  0  0  0  0  0
   -0.0603    5.3014    4.8203 O   0  0  0  0  0  0  0  0  0  0  0  0
    0.3889    6.3261    3.9290 C   0  0  0  0  0  0  0  0  0  0  0  0
    1.7850    3.7930    4.3017 C   0  0  0  0  0  0  0  0  0  0  0  0
    2.6964    4.4800    3.8416 O   0  0  0  0  0  0  0  0  0  0  0  0
    1.4174    2.5485    3.7053 C   0  0  0  0  0  0  0  0  0  0  0  0
    1.6381    1.3076    4.2191 C   0  0  0  0  0  0  0  0  0  0  0  0
    0.3353    0.4744    4.1856 C   0  0  0  0  0  0  0  0  0  0  0  0
   -0.7187    0.8375    3.0691 C   0  0  0  0  0  0  0  0  0  0  0  0
    0.4863   -1.0192    3.7566 C   0  0  0  0  0  0  0  0  0  0  0  0
   -0.2374    0.8285    5.6007 C   0  0  2  0  0  0  0  0  0  0  0  0
   -1.4772    1.5154    5.4760 O   0  0  0  0  0  0  0  0  0  0  0  0
   -1.4597    2.8955    5.8531 C   0  0  0  0  0  0  0  0  0  0  0  0
   -2.1069    3.5867    4.6388 C   0  0  0  0  0  0  0  0  0  0  0  0
   -2.5383    2.9255    6.9777 C   0  0  0  0  0  0  0  0  0  0  0  0
    0.0133    3.2922    6.3537 C   0  0  2  0  0  0  0  0  0  0  0  0
   -0.1304    3.8090    7.6675 O   0  0  0  0  0  0  0  0  0  0  0  0
    0.5639    1.8168    6.5753 C   0  0  2  0  0  0  0  0  0  0  0  0
    1.8092    1.3137    7.5023 C   0  0  1  0  0  0  0  0  0  0  0  0
    1.5961   -0.4029    7.9856 S   0  0  0  0  0  0  0  0  0  0  0  0
    0.0867   -0.6584    8.1411 O   0  0  0  0  0  0  0  0  0  0  0  0
    2.1190   -1.4833    6.6429 C   0  0  2  0  0  0  0  0  0  0  0  0
    2.3824   -2.9579    7.2601 C   0  0  1  0  0  0  0  0  0  0  0  0
    1.2618   -3.7491    6.4759 C   0  0  0  0  0  0  0  0  0  0  0  0
    3.7244   -3.7016    6.8037 C   0  0  1  0  0  0  0  0  0  0  0  0
    3.7712   -4.4385    5.4353 C   0  0  0  0  0  0  0  0  0  0  0  0
    4.8935   -2.9323    6.6911 O   0  0  0  0  0  0  0  0  0  0  0  0
    3.9592   -4.6607    7.9227 C   0  0  0  0  0  0  0  0  0  0  0  0
    3.1882   -4.4570    8.9817 C   0  0  0  0  0  0  0  0  0  0  0  0
    2.2030   -3.2917    8.8943 C   0  0  2  0  0  0  0  0  0  0  0  0
    0.9587   -3.9704    9.0247 O   0  0  0  0  0  0  0  0  0  0  0  0
    2.3372   -2.3319   10.2924 C   0  0  2  0  0  0  0  0  0  0  0  0
    2.0742   -3.4197   11.2023 O   0  0  0  0  0  0  0  0  0  0  0  0
    1.0470   -1.4616   10.7116 C   0  0  0  0  0  0  0  0  0  0  0  0
   -0.0330   -2.0571   10.5959 O   0  0  0  0  0  0  0  0  0  0  0  0
    0.8812   -0.0139   11.3551 C   0  0  0  0  0  0  0  0  0  0  0  0
   -0.4908    0.5736   10.9096 C   0  0  0  0  0  0  0  0  0  0  0  0
    0.5750   -0.3013   12.8587 C   0  0  0  0  0  0  0  0  0  0  0  0
    1.9270    1.1904   11.1902 C   0  0  2  0  0  0  0  0  0  0  0  0
    1.5681    2.6272   10.5512 C   0  0  1  0  0  0  0  0  0  0  0  0
    1.1189    3.4739   11.6291 O   0  0  0  0  0  0  0  0  0  0  0  0
    0.0212    4.2482   11.5283 C   0  0  0  0  0  0  0  0  0  0  0  0
   -0.3109    4.9552   12.8352 C   0  0  0  0  0  0  0  0  0  0  0  0
   -0.6671    4.4079   10.5263 O   0  0  0  0  0  0  0  0  0  0  0  0
    2.5942    3.5079    9.7022 C   0  0  1  0  0  0  0  0  0  0  0  0
    3.6282    3.9756   10.5411 O   0  0  0  0  0  0  0  0  0  0  0  0
    3.1597    3.1636    8.2382 C   0  0  0  0  0  0  0  0  0  0  0  0
    3.3583    1.7125    7.6106 C   0  0  1  0  0  0  0  0  0  0  0  0
    4.3554    1.0146    8.7604 C   0  0  1  0  0  0  0  0  0  0  0  0
    5.6606    1.9001    8.9534 C   0  0  0  0  0  0  0  0  0  0  0  0
    4.1376    1.3415   10.1350 O   0  0  0  0  0  0  0  0  0  0  0  0
    3.4447    0.8565   11.2343 C   0  0  1  0  0  0  0  0  0  0  0  0
    3.9421    1.6490   12.2819 O   0  0  0  0  0  0  0  0  0  0  0  0
    3.8616   -0.5397   11.6896 C   0  0  0  0  0  0  0  0  0  0  0  0
    3.8324   -1.7832   10.7648 C   0  0  1  0  0  0  0  0  0  0  0  0
    4.4497   -2.8128   11.7879 C   0  0  0  0  0  0  0  0  0  0  0  0
    4.9422   -1.5969    9.6317 C   0  0  1  0  0  0  0  0  0  0  0  0
    4.8340   -0.4757    8.5545 C   0  0  2  0  0  0  0  0  0  0  0  0
    6.1479   -0.4286    8.0022 O   0  0  0  0  0  0  0  0  0  0  0  0
    7.0582   -1.3723    8.5034 C   0  0  1  0  0  0  0  0  0  0  0  0
    8.4598   -0.7356    8.4472 C   0  0  0  0  0  0  0  0  0  0  0  0
    6.4879   -1.8213    9.8561 C   0  0  1  0  0  0  0  0  0  0  0  0
    6.9995   -0.9761   10.8618 O   0  0  0  0  0  0  0  0  0  0  0  0
    6.9712   -3.2904   10.1455 C   0  0  0  0  0  0  0  0  0  0  0  0
    8.3586   -3.4514    9.9712 O   0  0  0  0  0  0  0  0  0  0  0  0
    3.9054    1.6095    6.0423 C   0  0  0  0  0  0  0  0  0  0  0  0
    4.3532    3.0197    5.5929 C   0  0  0  0  0  0  0  0  0  0  0  0
    5.3661    1.0073    5.8030 C   0  0  0  0  0  0  0  0  0  0  0  0
    2.9352    0.7337    4.9957 C   0  0  2  0  0  0  0  0  0  0  0  0
    3.7173    0.5408    3.8304 O   0  0  0  0  0  0  0  0  0  0  0  0
    2.9238   -0.8183    5.4495 C   0  0  0  0  0  0  0  0  0  0  0  0
    1.7855    6.3366    7.9428 H   0  0  0  0  0  0  0  0  0  0  0  0
    0.1816    6.2542    7.1817 H   0  0  0  0  0  0  0  0  0  0  0  0
    1.4865    7.2223    6.4829 H   0  0  0  0  0  0  0  0  0  0  0  0
   -0.4673    6.9577    3.7161 H   0  0  0  0  0  0  0  0  0  0  0  0
    0.7378    5.9656    2.9654 H   0  0  0  0  0  0  0  0  0  0  0  0
    1.1669    6.9631    4.3435 H   0  0  0  0  0  0  0  0  0  0  0  0
    0.5679    2.7708    3.0879 H   0  0  0  0  0  0  0  0  0  0  0  0
   -1.6135    0.2171    3.1321 H   0  0  0  0  0  0  0  0  0  0  0  0
   -0.2869    0.7091    2.0793 H   0  0  0  0  0  0  0  0  0  0  0  0
   -1.1526    1.8218    3.0839 H   0  0  0  0  0  0  0  0  0  0  0  0
   -0.3935   -1.4295    3.2835 H   0  0  0  0  0  0  0  0  0  0  0  0
    0.5975   -1.7740    4.5021 H   0  0  0  0  0  0  0  0  0  0  0  0
    1.2748   -1.1304    3.0164 H   0  0  0  0  0  0  0  0  0  0  0  0
   -0.5505   -0.0979    6.0681 H   0  0  0  0  0  0  0  0  0  0  0  0
   -2.5240    4.5470    4.9121 H   0  0  0  0  0  0  0  0  0  0  0  0
   -2.9469    2.9987    4.2631 H   0  0  0  0  0  0  0  0  0  0  0  0
   -1.4342    3.7413    3.7983 H   0  0  0  0  0  0  0  0  0  0  0  0
   -2.7025    3.9423    7.3414 H   0  0  0  0  0  0  0  0  0  0  0  0
   -2.2616    2.3130    7.8412 H   0  0  0  0  0  0  0  0  0  0  0  0
   -3.5014    2.5569    6.6230 H   0  0  0  0  0  0  0  0  0  0  0  0
    0.7235    4.0805    7.9691 H   0  0  0  0  0  0  0  0  0  0  0  0
   -0.1361    1.5762    7.3740 H   0  0  0  0  0  0  0  0  0  0  0  0
    1.4455    1.6325    8.4405 H   0  0  0  0  0  0  0  0  0  0  0  0
    1.1060   -1.4919    6.3050 H   0  0  0  0  0  0  0  0  0  0  0  0
    1.2873   -4.8224    6.6843 H   0  0  0  0  0  0  0  0  0  0  0  0
    1.3606   -3.6406    5.3951 H   0  0  0  0  0  0  0  0  0  0  0  0
    0.2549   -3.4081    6.7105 H   0  0  0  0  0  0  0  0  0  0  0  0
    3.0603   -5.2591    5.3456 H   0  0  0  0  0  0  0  0  0  0  0  0
    4.7525   -4.8755    5.2724 H   0  0  0  0  0  0  0  0  0  0  0  0
    3.5999   -3.7396    4.6173 H   0  0  0  0  0  0  0  0  0  0  0  0
    5.0085   -2.4326    7.4889 H   0  0  0  0  0  0  0  0  0  0  0  0
    4.6642   -5.4793    7.8512 H   0  0  0  0  0  0  0  0  0  0  0  0
    3.2084   -5.1129    9.8421 H   0  0  0  0  0  0  0  0  0  0  0  0
    0.8787   -4.1906    9.9507 H   0  0  0  0  0  0  0  0  0  0  0  0
    2.0761   -3.0764   12.0893 H   0  0  0  0  0  0  0  0  0  0  0  0
   -0.7827    1.4456   11.4976 H   0  0  0  0  0  0  0  0  0  0  0  0
   -1.2939   -0.1286   11.1020 H   0  0  0  0  0  0  0  0  0  0  0  0
   -0.5369    0.8590    9.8620 H   0  0  0  0  0  0  0  0  0  0  0  0
    0.1857    0.5738   13.3823 H   0  0  0  0  0  0  0  0  0  0  0  0
    1.4244   -0.6587   13.4248 H   0  0  0  0  0  0  0  0  0  0  0  0
   -0.2012   -1.0517   12.9696 H   0  0  0  0  0  0  0  0  0  0  0  0
    1.7959    1.5027   12.2282 H   0  0  0  0  0  0  0  0  0  0  0  0
    0.6800    2.5261    9.9378 H   0  0  0  0  0  0  0  0  0  0  0  0
    0.5492    5.5203   13.1955 H   0  0  0  0  0  0  0  0  0  0  0  0
   -0.5989    4.2276   13.5976 H   0  0  0  0  0  0  0  0  0  0  0  0
   -1.1452    5.6491   12.6926 H   0  0  0  0  0  0  0  0  0  0  0  0
    2.0422    4.4277    9.5142 H   0  0  0  0  0  0  0  0  0  0  0  0
    4.2677    3.2676   10.6330 H   0  0  0  0  0  0  0  0  0  0  0  0
    2.4330    3.6107    7.6022 H   0  0  0  0  0  0  0  0  0  0  0  0
    4.0417    3.7804    8.0749 H   0  0  0  0  0  0  0  0  0  0  0  0
    6.2192    2.1865    8.0855 H   0  0  0  0  0  0  0  0  0  0  0  0
    6.3763    1.4105    9.6109 H   0  0  0  0  0  0  0  0  0  0  0  0
    5.4954    2.8640    9.4153 H   0  0  0  0  0  0  0  0  0  0  0  0
    3.5749    2.5141   12.2024 H   0  0  0  0  0  0  0  0  0  0  0  0
    4.8984   -0.4089   12.0332 H   0  0  0  0  0  0  0  0  0  0  0  0
    3.3297   -0.7598   12.6197 H   0  0  0  0  0  0  0  0  0  0  0  0
    5.3951   -2.4900   12.2041 H   0  0  0  0  0  0  0  0  0  0  0  0
    4.5858   -3.7990   11.3489 H   0  0  0  0  0  0  0  0  0  0  0  0
    3.8564   -2.9490   12.6982 H   0  0  0  0  0  0  0  0  0  0  0  0
    4.7491   -2.4756    9.0645 H   0  0  0  0  0  0  0  0  0  0  0  0
    4.2278   -0.8589    7.7608 H   0  0  0  0  0  0  0  0  0  0  0  0
    7.0428   -2.2113    7.8205 H   0  0  0  0  0  0  0  0  0  0  0  0
    9.2495   -1.4227    8.7489 H   0  0  0  0  0  0  0  0  0  0  0  0
    8.5335    0.1594    9.0686 H   0  0  0  0  0  0  0  0  0  0  0  0
    8.6709   -0.4333    7.4260 H   0  0  0  0  0  0  0  0  0  0  0  0
    6.6230   -1.2506   11.6923 H   0  0  0  0  0  0  0  0  0  0  0  0
    6.8046   -3.6267   11.1622 H   0  0  0  0  0  0  0  0  0  0  0  0
    6.4778   -4.0068    9.4936 H   0  0  0  0  0  0  0  0  0  0  0  0
    8.8070   -2.8913   10.5980 H   0  0  0  0  0  0  0  0  0  0  0  0
    4.4971    3.0460    4.5167 H   0  0  0  0  0  0  0  0  0  0  0  0
    5.2959    3.3538    6.0274 H   0  0  0  0  0  0  0  0  0  0  0  0
    3.7065    3.8231    5.8977 H   0  0  0  0  0  0  0  0  0  0  0  0
    5.7332    1.1791    4.7886 H   0  0  0  0  0  0  0  0  0  0  0  0
    5.4941   -0.0508    5.9073 H   0  0  0  0  0  0  0  0  0  0  0  0
    6.1849    1.4534    6.3291 H   0  0  0  0  0  0  0  0  0  0  0  0
    3.8204    1.3801    3.4039 H   0  0  0  0  0  0  0  0  0  0  0  0
    3.9275   -1.1321    5.5850 H   0  0  0  0  0  0  0  0  0  0  0  0
    2.7386   -1.4389    4.5849 H   0  0  0  0  0  0  0  0  0  0  0  0
  1  2  1  0
  1 74  1  0
  1 75  1  0
  1 76  1  0
  2  3  1  0
  3 18  1  0
  3  4  1  0
  3  6  1  0
  4  5  1  0
  5 77  1  0
  5 78  1  0
  5 79  1  0
  6  7  2  0
  6  8  1  0
  8  9  2  3
  8 80  1  0
  9 71  1  0
  9 10  1  0
 10 11  1  0
 10 12  1  0
 10 13  1  0
 11 81  1  0
 11 82  1  0
 11 83  1  0
 12 84  1  0
 12 85  1  0
 12 86  1  0
 13 20  1  0
 13 14  1  0
 13 87  1  1
 14 15  1  0
 15 16  1  0
 15 17  1  0
 15 18  1  0
 16 88  1  0
 16 89  1  0
 16 90  1  0
 17 91  1  0
 17 92  1  0
 17 93  1  0
 18 19  1  1
 18 20  1  0
 19 94  1  0
 20 21  1  0
 20 95  1  1
 21 50  1  0
 21 22  1  0
 21 96  1  1
 22 23  2  0
 22 24  1  6
 24 73  1  0
 24 25  1  0
 24 97  1  6
 25 32  1  0
 25 26  1  6
 25 27  1  0
 26 98  1  0
 26 99  1  0
 26100  1  0
 27 28  1  0
 27 29  1  6
 27 30  1  0
 28101  1  0
 28102  1  0
 28103  1  0
 29104  1  0
 30 31  2  0
 30105  1  0
 31 32  1  0
 31106  1  0
 32 33  1  6
 32 34  1  0
 33107  1  0
 34 57  1  0
 34 35  1  1
 34 36  1  0
 35108  1  0
 36 37  2  0
 36 38  1  0
 38 39  1  0
 38 40  1  0
 38 41  1  0
 39109  1  0
 39110  1  0
 39111  1  0
 40112  1  0
 40113  1  0
 40114  1  0
 41 54  1  0
 41 42  1  0
 41115  1  1
 42 43  1  0
 42 47  1  0
 42116  1  6
 43 44  1  0
 44 45  1  0
 44 46  2  0
 45117  1  0
 45118  1  0
 45119  1  0
 47 48  1  0
 47 49  1  0
 47120  1  6
 48121  1  0
 50 49  1  1
 49122  1  0
 49123  1  0
 50 51  1  0
 50 68  1  0
 51 60  1  0
 51 52  1  6
 51 53  1  0
 52124  1  0
 52125  1  0
 52126  1  0
 53 54  1  0
 54 55  1  1
 54 56  1  0
 55127  1  0
 56 57  1  0
 56128  1  0
 56129  1  0
 57 58  1  1
 57 59  1  0
 58130  1  0
 58131  1  0
 58132  1  0
 59 64  1  0
 59 60  1  0
 59133  1  6
 60 61  1  0
 60134  1  6
 61 62  1  0
 62 63  1  0
 62 64  1  0
 62135  1  6
 63136  1  0
 63137  1  0
 63138  1  0
 64 65  1  1
 64 66  1  0
 65139  1  0
 66 67  1  0
 66140  1  0
 66141  1  0
 67142  1  0
 68 69  1  0
 68 70  1  0
 68 71  1  0
 69143  1  0
 69144  1  0
 69145  1  0
 70146  1  0
 70147  1  0
 70148  1  0
 71 72  1  6
 71 73  1  0
 72149  1  0
 73150  1  0
 73151  1  0
M  END
>  <i_m_ct_stereo_status>  (78) 
1

>  <s_m_source_file>  (78) 
/var/tmp/pbs.5075288.sched01/tmpq0rgj53d/65gxdktgdh.sdf

>  <i_m_source_file_index>  (78) 
18

>  <i_lp_mmshare_version>  (78) 
48012

>  <i_f3d_flags>  (78) 
0

>  <s_epik_input>  (78) 
TzFDKFtDSDNdKShbQ0gzXSlbQ0BdMihbT0hdKUMoT1tDSDNdKShPW0NIM10pQyg9TykvW0NIXT1DKFxDKFtDSDNdKShbQ0gzXSlbQ0BIXTFbQ0BIXTJbQ0BASF0zW0NAQF00NTYpW0NAQF0oW09IXSkoQzYoW0NIM10pW0NIM10pW0NIMl1bQ0BIXShbUytdM1tPLV0pW0NAXTcoW0NIM10pW0NAQF0oW09IXSkoW0NIXT1bQ0hdW0NAXTcoW0NIM10pW09IXSlbQ0BAXTgoW09IXSlbQ0BAXTkoW0NIM10pW0NASF0xW0NASF0oT1tDQEBIXShbQ0gzXSlbQ0BdMShbT0hdKVtDSDJdW09IXSlbQ0BdNShbQ0gzXSlPW0NAXShbT0hdKShbQ0gyXTkpW0NASF0oQyhDOD1PKShbQ0gzXSlbQ0gzXSlbQ0BIXShbQ0BASF0oW09IXSlbQ0gyXTQpT0MoPU8pW0NIM10=

>  <s_epik_cmdline>  (78) 
J2VwaWtfcHl0aG9uJywgJy1waHQnLCAnMi4wJywgJy1waCcsICc3LjAnLCAnLXRuJywgJzgnLCAnLW1hJywgJzIwMCcsICctaW1hZScsICc8aW5maWxlLm1hZT4nLCAnLW9tYWUnLCAnPG91dGZpbGUubWFlPic=

>  <r_lp_tautomer_probability>  (78) 
1

>  <r_epik_Ionization_Penalty>  (78) 
1.51163e-05

>  <r_epik_Ionization_Penalty_Charging>  (78) 
0

>  <r_epik_Ionization_Penalty_Neutral>  (78) 
1.51163e-05

>  <r_epik_State_Penalty>  (78) 
-0

>  <r_epik_Charging_Adjusted_Penalty>  (78) 
0

>  <i_epik_Tot_Q>  (78) 
0

>  <i_epik_Tot_abs_Q>  (78) 
2

>  <s_epik_Chemistry_Notes>  (78) 
This compound has an ester and may undergo hydrolysis at high or low pH.

>  <s_lp_Force_Field>  (78) 
OPLS3e

>  <r_lp_Energy>  (78) 
361.223

>  <b_lp_Chiralities_Consistent>  (78) 
1

>  <s_lp_Variant>  (78) 
19:0-2

>  <s_i_glide_gridfile>  (78) 
pfpi4k_grid

>  <i_i_glide_lignum>  (78) 
18

>  <i_i_glide_rotatable_bonds>  (78) 
14

>  <r_i_docking_score>  (78) 
-3.27754

>  <r_i_glide_ligand_efficiency>  (78) 
-0.0448978

>  <r_i_glide_ligand_efficiency_sa>  (78) 
-0.187643

>  <r_i_glide_ligand_efficiency_ln>  (78) 
-0.619519

>  <r_i_glide_gscore>  (78) 
-3.27754

>  <r_i_glide_lipo>  (78) 
-0.31105

>  <r_i_glide_hbond>  (78) 
-0.00659732

>  <r_i_glide_metal>  (78) 
-0

>  <r_i_glide_rewards>  (78) 
-0.5

>  <r_i_glide_evdw>  (78) 
-27.585

>  <r_i_glide_ecoul>  (78) 
-7.19197

>  <r_i_glide_erotb>  (78) 
0.0404881

>  <r_i_glide_esite>  (78) 
-0.0423357

>  <r_i_glide_emodel>  (78) 
-39.977

>  <r_i_glide_energy>  (78) 
-34.7769

>  <r_i_glide_einternal>  (78) 
12.0017

>  <r_i_glide_intrahb_reward>  (78) 
-0.5

>  <i_i_glide_confnum>  (78) 
4

>  <i_i_glide_posenum>  (78) 
20

>  <r_i_glide_eff_state_penalty>  (78) 
0

>  <ligand_id>  (78) 
19

>  <original_smiles>  (78) 
COC1(OC)C(=O)C=C2C(C)(C)C3OC(C)(C)C1(O)C3C1[S+]([O-])C3C4(C)C(C)(O)C=CC4(O)C4(O)C(=O)C(C)(C)C5C(OC(C)=O)C(O)CC1(C1(C)OC5(O)CC4(C)C4C1OC(C)C4(O)CO)C(C)(C)C2(O)C3

>  <smiles>  (78) 
[H]OC([H])([H])C1(O[H])C([H])(C([H])([H])[H])OC2([H])C1([H])C1(C([H])([H])[H])C([H])([H])C3(O[H])OC2(C([H])([H])[H])C24C([H])([H])C([H])(O[H])C([H])(OC(=O)C([H])([H])[H])C3([H])C(C([H])([H])[H])(C([H])([H])[H])C(=O)C1(O[H])C1(O[H])C([H])=C([H])C(O[H])(C([H])([H])[H])C1(C([H])([H])[H])C1([H])S(=O)C2([H])C2([H])C3([H])OC(C([H])([H])[H])(C([H])([H])[H])C2(O[H])C(OC([H])([H])[H])(OC([H])([H])[H])C(=O)C([H])=C(C(O[H])(C1([H])[H])C4(C([H])([H])[H])C([H])([H])[H])C3(C([H])([H])[H])C([H])([H])[H]

$$$$
19:1:1
     RDKit          3D

151160  0  0  1  0  0  0  0  0999 V2000
    3.7006    4.2164    4.2388 C   0  0  0  0  0  0  0  0  0  0  0  0
    3.3085    3.2217    5.1973 O   0  0  0  0  0  0  0  0  0  0  0  0
    1.9597    3.0504    5.5838 C   0  0  0  0  0  0  0  0  0  0  0  0
    1.4725    4.3404    5.8619 O   0  0  0  0  0  0  0  0  0  0  0  0
    2.2048    5.1790    6.7627 C   0  0  0  0  0  0  0  0  0  0  0  0
    1.1521    2.6012    4.3054 C   0  0  0  0  0  0  0  0  0  0  0  0
    1.3429    3.1423    3.2220 O   0  0  0  0  0  0  0  0  0  0  0  0
    0.0295    1.7187    4.4799 C   0  0  0  0  0  0  0  0  0  0  0  0
    0.0487    0.3929    4.7840 C   0  0  0  0  0  0  0  0  0  0  0  0
   -0.8492    0.0815    6.0023 C   0  0  0  0  0  0  0  0  0  0  0  0
   -2.0303    1.0989    6.2344 C   0  0  0  0  0  0  0  0  0  0  0  0
   -1.7789   -1.1774    5.8692 C   0  0  0  0  0  0  0  0  0  0  0  0
    0.2099    0.1785    7.1543 C   0  0  2  0  0  0  0  0  0  0  0  0
   -0.1248    1.2529    8.0203 O   0  0  0  0  0  0  0  0  0  0  0  0
    0.7306    2.3982    7.9638 C   0  0  0  0  0  0  0  0  0  0  0  0
   -0.2500    3.5855    7.7884 C   0  0  0  0  0  0  0  0  0  0  0  0
    1.2296    2.4660    9.4259 C   0  0  0  0  0  0  0  0  0  0  0  0
    1.9096    2.0961    6.9217 C   0  0  2  0  0  0  0  0  0  0  0  0
    3.1565    2.2384    7.5701 O   0  0  0  0  0  0  0  0  0  0  0  0
    1.7189    0.5196    6.7981 C   0  0  2  0  0  0  0  0  0  0  0  0
    2.7573   -0.6082    6.2673 C   0  0  1  0  0  0  0  0  0  0  0  0
    2.3871   -2.2270    6.9664 S   0  0  0  0  0  0  0  0  0  0  0  0
    1.7884   -1.9883    8.3570 O   0  0  0  0  0  0  0  0  0  0  0  0
    1.0433   -2.9813    6.0192 C   0  0  2  0  0  0  0  0  0  0  0  0
    1.0297   -4.5693    6.3481 C   0  0  1  0  0  0  0  0  0  0  0  0
   -0.3921   -4.6772    7.0315 C   0  0  0  0  0  0  0  0  0  0  0  0
    0.9341   -5.6011    5.1150 C   0  0  1  0  0  0  0  0  0  0  0  0
   -0.4368   -5.9595    4.5254 C   0  0  0  0  0  0  0  0  0  0  0  0
    1.5966   -5.2480    3.9299 O   0  0  0  0  0  0  0  0  0  0  0  0
    1.5509   -6.8438    5.6334 C   0  0  0  0  0  0  0  0  0  0  0  0
    2.1687   -6.6833    6.7907 C   0  0  0  0  0  0  0  0  0  0  0  0
    2.1527   -5.2733    7.3768 C   0  0  2  0  0  0  0  0  0  0  0  0
    1.4830   -5.4830    8.6197 O   0  0  0  0  0  0  0  0  0  0  0  0
    3.7393   -4.8398    7.8098 C   0  0  2  0  0  0  0  0  0  0  0  0
    3.9429   -5.9796    8.6747 O   0  0  0  0  0  0  0  0  0  0  0  0
    3.9109   -3.7515    8.9955 C   0  0  0  0  0  0  0  0  0  0  0  0
    3.1515   -3.9204    9.9630 O   0  0  0  0  0  0  0  0  0  0  0  0
    4.9359   -2.5597    9.2267 C   0  0  0  0  0  0  0  0  0  0  0  0
    4.2544   -1.4349   10.0704 C   0  0  0  0  0  0  0  0  0  0  0  0
    5.9454   -3.1502   10.2786 C   0  0  0  0  0  0  0  0  0  0  0  0
    5.7075   -1.7894    8.0493 C   0  0  2  0  0  0  0  0  0  0  0  0
    5.6662   -0.1921    7.7799 C   0  0  1  0  0  0  0  0  0  0  0  0
    6.7600    0.4564    8.4658 O   0  0  0  0  0  0  0  0  0  0  0  0
    6.5737    1.5693    9.1857 C   0  0  0  0  0  0  0  0  0  0  0  0
    7.8814    2.3062    9.4288 C   0  0  0  0  0  0  0  0  0  0  0  0
    5.5050    2.0099    9.5812 O   0  0  0  0  0  0  0  0  0  0  0  0
    5.7530    0.4693    6.3270 C   0  0  1  0  0  0  0  0  0  0  0  0
    7.0539    0.3180    5.7798 O   0  0  0  0  0  0  0  0  0  0  0  0
    4.6450    0.3937    5.1739 C   0  0  0  0  0  0  0  0  0  0  0  0
    3.6144   -0.7919    4.9381 C   0  0  1  0  0  0  0  0  0  0  0  0
    4.6545   -2.0863    4.7820 C   0  0  1  0  0  0  0  0  0  0  0  0
    5.5919   -1.7784    3.5356 C   0  0  0  0  0  0  0  0  0  0  0  0
    5.8254   -2.1208    5.6257 O   0  0  0  0  0  0  0  0  0  0  0  0
    6.2437   -2.6194    6.8596 C   0  0  1  0  0  0  0  0  0  0  0  0
    7.6178   -2.3449    6.8892 O   0  0  0  0  0  0  0  0  0  0  0  0
    6.2341   -4.1457    6.9505 C   0  0  0  0  0  0  0  0  0  0  0  0
    4.9647   -4.9965    6.6897 C   0  0  1  0  0  0  0  0  0  0  0  0
    5.6328   -6.4251    6.8502 C   0  0  0  0  0  0  0  0  0  0  0  0
    4.5713   -4.8863    5.1514 C   0  0  1  0  0  0  0  0  0  0  0  0
    4.0854   -3.5420    4.5157 C   0  0  2  0  0  0  0  0  0  0  0  0
    4.1616   -3.8171    3.1155 O   0  0  0  0  0  0  0  0  0  0  0  0
    4.5843   -5.1026    2.7473 C   0  0  1  0  0  0  0  0  0  0  0  0
    5.3734   -4.9843    1.4269 C   0  0  0  0  0  0  0  0  0  0  0  0
    5.2771   -5.6983    3.9846 C   0  0  1  0  0  0  0  0  0  0  0  0
    6.6785   -5.4702    3.9108 O   0  0  0  0  0  0  0  0  0  0  0  0
    5.0917   -7.2594    3.9579 C   0  0  0  0  0  0  0  0  0  0  0  0
    5.4992   -7.8285    2.7272 O   0  0  0  0  0  0  0  0  0  0  0  0
    2.5264   -0.6239    3.6876 C   0  0  0  0  0  0  0  0  0  0  0  0
    2.8973    0.6371    2.8526 C   0  0  0  0  0  0  0  0  0  0  0  0
    2.6523   -1.6064    2.4313 C   0  0  0  0  0  0  0  0  0  0  0  0
    0.9472   -0.7852    4.1581 C   0  0  2  0  0  0  0  0  0  0  0  0
    0.2501   -0.8239    2.9576 O   0  0  0  0  0  0  0  0  0  0  0  0
    0.6596   -2.3121    4.6237 C   0  0  0  0  0  0  0  0  0  0  0  0
    4.6924    4.5161    4.5457 H   0  0  0  0  0  0  0  0  0  0  0  0
    3.1076    5.1274    4.2289 H   0  0  0  0  0  0  0  0  0  0  0  0
    3.7538    3.8456    3.2147 H   0  0  0  0  0  0  0  0  0  0  0  0
    1.6236    6.0888    6.9087 H   0  0  0  0  0  0  0  0  0  0  0  0
    3.1868    5.4793    6.3997 H   0  0  0  0  0  0  0  0  0  0  0  0
    2.3483    4.7071    7.7323 H   0  0  0  0  0  0  0  0  0  0  0  0
   -0.7359    2.3725    4.8348 H   0  0  0  0  0  0  0  0  0  0  0  0
   -2.6713    0.8220    7.0773 H   0  0  0  0  0  0  0  0  0  0  0  0
   -2.5999    1.1430    5.3004 H   0  0  0  0  0  0  0  0  0  0  0  0
   -1.7523    2.1047    6.5367 H   0  0  0  0  0  0  0  0  0  0  0  0
   -2.7330   -1.0915    6.3709 H   0  0  0  0  0  0  0  0  0  0  0  0
   -1.4620   -2.1155    6.2772 H   0  0  0  0  0  0  0  0  0  0  0  0
   -2.0896   -1.3328    4.8353 H   0  0  0  0  0  0  0  0  0  0  0  0
    0.0744   -0.6895    7.7921 H   0  0  0  0  0  0  0  0  0  0  0  0
    0.1609    4.5253    8.1505 H   0  0  0  0  0  0  0  0  0  0  0  0
   -1.1521    3.4159    8.3846 H   0  0  0  0  0  0  0  0  0  0  0  0
   -0.5765    3.7450    6.7635 H   0  0  0  0  0  0  0  0  0  0  0  0
    1.8761    3.3309    9.5793 H   0  0  0  0  0  0  0  0  0  0  0  0
    1.7954    1.5754    9.7182 H   0  0  0  0  0  0  0  0  0  0  0  0
    0.3944    2.5612   10.1211 H   0  0  0  0  0  0  0  0  0  0  0  0
    3.8338    2.1278    6.9211 H   0  0  0  0  0  0  0  0  0  0  0  0
    1.9973    0.3283    7.8268 H   0  0  0  0  0  0  0  0  0  0  0  0
    3.5111   -0.4700    6.9915 H   0  0  0  0  0  0  0  0  0  0  0  0
    0.3423   -2.5487    6.7084 H   0  0  0  0  0  0  0  0  0  0  0  0
   -0.6551   -5.7001    7.2981 H   0  0  0  0  0  0  0  0  0  0  0  0
   -1.1855   -4.3057    6.3805 H   0  0  0  0  0  0  0  0  0  0  0  0
   -0.4645   -4.0868    7.9475 H   0  0  0  0  0  0  0  0  0  0  0  0
   -1.1837   -6.3656    5.2189 H   0  0  0  0  0  0  0  0  0  0  0  0
   -0.3653   -6.6531    3.6802 H   0  0  0  0  0  0  0  0  0  0  0  0
   -0.7739   -5.0297    4.1037 H   0  0  0  0  0  0  0  0  0  0  0  0
    2.5134   -5.1209    4.1224 H   0  0  0  0  0  0  0  0  0  0  0  0
    1.4249   -7.7911    5.1304 H   0  0  0  0  0  0  0  0  0  0  0  0
    2.5978   -7.5233    7.3278 H   0  0  0  0  0  0  0  0  0  0  0  0
    2.1306   -5.8713    9.2023 H   0  0  0  0  0  0  0  0  0  0  0  0
    4.8234   -5.9422    9.0246 H   0  0  0  0  0  0  0  0  0  0  0  0
    4.9991   -0.7344   10.4582 H   0  0  0  0  0  0  0  0  0  0  0  0
    3.7154   -1.8025   10.9452 H   0  0  0  0  0  0  0  0  0  0  0  0
    3.5433   -0.8573    9.4895 H   0  0  0  0  0  0  0  0  0  0  0  0
    6.5941   -2.3880   10.7223 H   0  0  0  0  0  0  0  0  0  0  0  0
    6.6106   -3.9147    9.8809 H   0  0  0  0  0  0  0  0  0  0  0  0
    5.4314   -3.6073   11.1243 H   0  0  0  0  0  0  0  0  0  0  0  0
    6.5687   -1.6899    8.7115 H   0  0  0  0  0  0  0  0  0  0  0  0
    4.7759    0.2137    8.2628 H   0  0  0  0  0  0  0  0  0  0  0  0
    8.3783    2.4554    8.4709 H   0  0  0  0  0  0  0  0  0  0  0  0
    8.5562    1.7228   10.0670 H   0  0  0  0  0  0  0  0  0  0  0  0
    7.7012    3.2894    9.8787 H   0  0  0  0  0  0  0  0  0  0  0  0
    5.7409    1.5351    6.5459 H   0  0  0  0  0  0  0  0  0  0  0  0
    7.1420    0.9331    5.0602 H   0  0  0  0  0  0  0  0  0  0  0  0
    4.0130    1.2138    5.4027 H   0  0  0  0  0  0  0  0  0  0  0  0
    5.1059    0.7267    4.2432 H   0  0  0  0  0  0  0  0  0  0  0  0
    5.2091   -1.4485    2.5817 H   0  0  0  0  0  0  0  0  0  0  0  0
    6.2308   -2.6165    3.3416 H   0  0  0  0  0  0  0  0  0  0  0  0
    6.2202   -0.9332    3.7045 H   0  0  0  0  0  0  0  0  0  0  0  0
    7.6861   -1.4061    6.8034 H   0  0  0  0  0  0  0  0  0  0  0  0
    6.9720   -4.4387    6.2014 H   0  0  0  0  0  0  0  0  0  0  0  0
    6.6875   -4.4516    7.8915 H   0  0  0  0  0  0  0  0  0  0  0  0
    6.4890   -6.5694    6.2003 H   0  0  0  0  0  0  0  0  0  0  0  0
    4.9191   -7.2293    6.6758 H   0  0  0  0  0  0  0  0  0  0  0  0
    6.0771   -6.5989    7.8323 H   0  0  0  0  0  0  0  0  0  0  0  0
    3.6679   -5.4503    5.1732 H   0  0  0  0  0  0  0  0  0  0  0  0
    3.0380   -3.4685    4.6881 H   0  0  0  0  0  0  0  0  0  0  0  0
    3.6801   -5.6586    2.5447 H   0  0  0  0  0  0  0  0  0  0  0  0
    5.6645   -5.9526    1.0199 H   0  0  0  0  0  0  0  0  0  0  0  0
    6.2786   -4.3773    1.5316 H   0  0  0  0  0  0  0  0  0  0  0  0
    4.7533   -4.5026    0.6715 H   0  0  0  0  0  0  0  0  0  0  0  0
    7.0744   -5.8276    4.6978 H   0  0  0  0  0  0  0  0  0  0  0  0
    5.7009   -7.7931    4.6841 H   0  0  0  0  0  0  0  0  0  0  0  0
    4.0593   -7.5478    4.1396 H   0  0  0  0  0  0  0  0  0  0  0  0
    6.4293   -7.6623    2.6244 H   0  0  0  0  0  0  0  0  0  0  0  0
    2.0947    0.9223    2.1716 H   0  0  0  0  0  0  0  0  0  0  0  0
    3.7783    0.4851    2.2260 H   0  0  0  0  0  0  0  0  0  0  0  0
    3.1920    1.4954    3.4271 H   0  0  0  0  0  0  0  0  0  0  0  0
    2.0581   -1.2887    1.5731 H   0  0  0  0  0  0  0  0  0  0  0  0
    2.3728   -2.6322    2.5539 H   0  0  0  0  0  0  0  0  0  0  0  0
    3.5453   -1.6520    1.8642 H   0  0  0  0  0  0  0  0  0  0  0  0
    0.5551   -0.1238    2.3987 H   0  0  0  0  0  0  0  0  0  0  0  0
    1.0446   -2.9726    3.8882 H   0  0  0  0  0  0  0  0  0  0  0  0
   -0.3786   -2.5510    4.4482 H   0  0  0  0  0  0  0  0  0  0  0  0
  1  2  1  0
  1 74  1  0
  1 75  1  0
  1 76  1  0
  2  3  1  0
  3 18  1  0
  3  4  1  0
  3  6  1  0
  4  5  1  0
  5 77  1  0
  5 78  1  0
  5 79  1  0
  6  7  2  0
  6  8  1  0
  8  9  2  3
  8 80  1  0
  9 71  1  0
  9 10  1  0
 10 11  1  0
 10 12  1  0
 10 13  1  0
 11 81  1  0
 11 82  1  0
 11 83  1  0
 12 84  1  0
 12 85  1  0
 12 86  1  0
 13 20  1  0
 13 14  1  0
 13 87  1  1
 14 15  1  0
 15 16  1  0
 15 17  1  0
 15 18  1  0
 16 88  1  0
 16 89  1  0
 16 90  1  0
 17 91  1  0
 17 92  1  0
 17 93  1  0
 18 19  1  1
 18 20  1  0
 19 94  1  0
 20 21  1  0
 20 95  1  1
 21 50  1  0
 21 22  1  0
 21 96  1  1
 22 23  2  0
 22 24  1  6
 24 73  1  0
 24 25  1  0
 24 97  1  1
 25 32  1  0
 25 26  1  1
 25 27  1  0
 26 98  1  0
 26 99  1  0
 26100  1  0
 27 28  1  0
 27 29  1  6
 27 30  1  0
 28101  1  0
 28102  1  0
 28103  1  0
 29104  1  0
 30 31  2  0
 30105  1  0
 31 32  1  0
 31106  1  0
 32 33  1  1
 32 34  1  0
 33107  1  0
 34 57  1  0
 34 35  1  1
 34 36  1  0
 35108  1  0
 36 37  2  0
 36 38  1  0
 38 39  1  0
 38 40  1  0
 38 41  1  0
 39109  1  0
 39110  1  0
 39111  1  0
 40112  1  0
 40113  1  0
 40114  1  0
 41 54  1  0
 41 42  1  0
 41115  1  1
 42 43  1  0
 42 47  1  0
 42116  1  1
 43 44  1  0
 44 45  1  0
 44 46  2  0
 45117  1  0
 45118  1  0
 45119  1  0
 47 48  1  0
 47 49  1  0
 47120  1  1
 48121  1  0
 50 49  1  6
 49122  1  0
 49123  1  0
 50 51  1  0
 50 68  1  0
 51 60  1  0
 51 52  1  6
 51 53  1  0
 52124  1  0
 52125  1  0
 52126  1  0
 53 54  1  0
 54 55  1  6
 54 56  1  0
 55127  1  0
 56 57  1  0
 56128  1  0
 56129  1  0
 57 58  1  6
 57 59  1  0
 58130  1  0
 58131  1  0
 58132  1  0
 59 64  1  0
 59 60  1  0
 59133  1  1
 60 61  1  0
 60134  1  1
 61 62  1  0
 62 63  1  0
 62 64  1  0
 62135  1  6
 63136  1  0
 63137  1  0
 63138  1  0
 64 65  1  6
 64 66  1  0
 65139  1  0
 66 67  1  0
 66140  1  0
 66141  1  0
 67142  1  0
 68 69  1  0
 68 70  1  0
 68 71  1  0
 69143  1  0
 69144  1  0
 69145  1  0
 70146  1  0
 70147  1  0
 70148  1  0
 71 72  1  6
 71 73  1  0
 72149  1  0
 73150  1  0
 73151  1  0
M  END
>  <i_m_ct_stereo_status>  (79) 
1

>  <s_m_source_file>  (79) 
/var/tmp/pbs.5075288.sched01/tmpq0rgj53d/65gxdktgdh.sdf

>  <i_m_source_file_index>  (79) 
18

>  <i_lp_mmshare_version>  (79) 
48012

>  <i_f3d_flags>  (79) 
0

>  <s_epik_input>  (79) 
TzFDKFtDSDNdKShbQ0gzXSlbQ0BdMihbT0hdKUMoT1tDSDNdKShPW0NIM10pQyg9TykvW0NIXT1DKFxDKFtDSDNdKShbQ0gzXSlbQ0BIXTFbQ0BIXTJbQ0BASF0zW0NAQF00NTYpW0NAQF0oW09IXSkoQzYoW0NIM10pW0NIM10pW0NIMl1bQ0BIXShbUytdM1tPLV0pW0NAXTcoW0NIM10pW0NAQF0oW09IXSkoW0NIXT1bQ0hdW0NAXTcoW0NIM10pW09IXSlbQ0BAXTgoW09IXSlbQ0BAXTkoW0NIM10pW0NASF0xW0NASF0oT1tDQEBIXShbQ0gzXSlbQ0BdMShbT0hdKVtDSDJdW09IXSlbQ0BdNShbQ0gzXSlPW0NAXShbT0hdKShbQ0gyXTkpW0NASF0oQyhDOD1PKShbQ0gzXSlbQ0gzXSlbQ0BIXShbQ0BASF0oW09IXSlbQ0gyXTQpT0MoPU8pW0NIM10=

>  <s_epik_cmdline>  (79) 
J2VwaWtfcHl0aG9uJywgJy1waHQnLCAnMi4wJywgJy1waCcsICc3LjAnLCAnLXRuJywgJzgnLCAnLW1hJywgJzIwMCcsICctaW1hZScsICc8aW5maWxlLm1hZT4nLCAnLW9tYWUnLCAnPG91dGZpbGUubWFlPic=

>  <r_lp_tautomer_probability>  (79) 
1

>  <r_epik_Ionization_Penalty>  (79) 
1.51163e-05

>  <r_epik_Ionization_Penalty_Charging>  (79) 
0

>  <r_epik_Ionization_Penalty_Neutral>  (79) 
1.51163e-05

>  <r_epik_State_Penalty>  (79) 
-0

>  <r_epik_Charging_Adjusted_Penalty>  (79) 
0

>  <i_epik_Tot_Q>  (79) 
0

>  <i_epik_Tot_abs_Q>  (79) 
2

>  <s_epik_Chemistry_Notes>  (79) 
This compound has an ester and may undergo hydrolysis at high or low pH.

>  <s_lp_Force_Field>  (79) 
OPLS3e

>  <r_lp_Energy>  (79) 
361.223

>  <b_lp_Chiralities_Consistent>  (79) 
1

>  <s_lp_Variant>  (79) 
19:0-2

>  <s_i_glide_gridfile>  (79) 
pfpi4k_grid

>  <i_i_glide_lignum>  (79) 
18

>  <i_i_glide_rotatable_bonds>  (79) 
14

>  <r_i_docking_score>  (79) 
-1.22195

>  <r_i_glide_ligand_efficiency>  (79) 
-0.0167391

>  <r_i_glide_ligand_efficiency_sa>  (79) 
-0.0699583

>  <r_i_glide_ligand_efficiency_ln>  (79) 
-0.230973

>  <r_i_glide_gscore>  (79) 
-1.22195

>  <r_i_glide_lipo>  (79) 
-0.250812

>  <r_i_glide_hbond>  (79) 
0

>  <r_i_glide_metal>  (79) 
-0

>  <r_i_glide_rewards>  (79) 
-0.5295

>  <r_i_glide_evdw>  (79) 
-14.4782

>  <r_i_glide_ecoul>  (79) 
1.72981

>  <r_i_glide_erotb>  (79) 
0.0404881

>  <r_i_glide_esite>  (79) 
-0.0176887

>  <r_i_glide_emodel>  (79) 
-12.4457

>  <r_i_glide_energy>  (79) 
-12.7484

>  <r_i_glide_einternal>  (79) 
9.49179

>  <r_i_glide_intrahb_reward>  (79) 
-0.5

>  <i_i_glide_confnum>  (79) 
4

>  <i_i_glide_posenum>  (79) 
38

>  <r_i_glide_eff_state_penalty>  (79) 
0

>  <ligand_id>  (79) 
19

>  <original_smiles>  (79) 
COC1(OC)C(=O)C=C2C(C)(C)C3OC(C)(C)C1(O)C3C1[S+]([O-])C3C4(C)C(C)(O)C=CC4(O)C4(O)C(=O)C(C)(C)C5C(OC(C)=O)C(O)CC1(C1(C)OC5(O)CC4(C)C4C1OC(C)C4(O)CO)C(C)(C)C2(O)C3

>  <smiles>  (79) 
[H]OC([H])([H])C1(O[H])C([H])(C([H])([H])[H])OC2([H])C1([H])C1(C([H])([H])[H])C([H])([H])C3(O[H])OC2(C([H])([H])[H])C24C([H])([H])C([H])(O[H])C([H])(OC(=O)C([H])([H])[H])C3([H])C(C([H])([H])[H])(C([H])([H])[H])C(=O)C1(O[H])C1(O[H])C([H])=C([H])C(O[H])(C([H])([H])[H])C1(C([H])([H])[H])C1([H])S(=O)C2([H])C2([H])C3([H])OC(C([H])([H])[H])(C([H])([H])[H])C2(O[H])C(OC([H])([H])[H])(OC([H])([H])[H])C(=O)C([H])=C(C(O[H])(C1([H])[H])C4(C([H])([H])[H])C([H])([H])[H])C3(C([H])([H])[H])C([H])([H])[H]

$$$$
20:0:0
     RDKit          3D

 61 66  0  0  1  0  0  0  0  0999 V2000
    0.5904  -11.8262    3.7860 C   0  0  0  0  0  0  0  0  0  0  0  0
    1.8832  -11.5135    4.4605 N   0  0  2  0  0  0  0  0  0  0  0  0
    1.7807  -10.3646    5.4135 C   0  0  0  0  0  0  0  0  0  0  0  0
    2.0890   -9.0335    4.7075 C   0  0  0  0  0  0  0  0  0  0  0  0
    3.4416   -9.0414    3.9049 C   0  0  2  0  0  0  0  0  0  0  0  0
    4.5725   -9.2929    4.9121 C   0  0  0  0  0  0  0  0  0  0  0  0
    4.9241  -10.6325    5.2499 C   0  0  0  0  0  0  0  0  0  0  0  0
    5.8254  -10.8477    6.2995 C   0  0  0  0  0  0  0  0  0  0  0  0
    6.3941   -9.7706    6.9946 C   0  0  0  0  0  0  0  0  0  0  0  0
    7.2539  -10.0260    8.0234 O   0  0  0  0  0  0  0  0  0  0  0  0
    6.0868   -8.4481    6.6151 C   0  0  0  0  0  0  0  0  0  0  0  0
    6.7031   -7.4053    7.2611 O   0  0  0  0  0  0  0  0  0  0  0  0
    5.1705   -8.1826    5.5758 C   0  0  0  0  0  0  0  0  0  0  0  0
    4.8966   -6.7655    5.0326 C   0  0  0  0  0  0  0  0  0  0  0  0
    3.7176   -6.5217    4.0377 C   0  0  1  0  0  0  0  0  0  0  0  0
    3.7458   -5.2177    3.3152 N   0  0  0  0  0  0  0  0  0  0  0  0
    5.0885   -4.7259    2.9536 C   0  0  0  0  0  0  0  0  0  0  0  0
    2.5756   -4.5296    3.1051 C   0  0  0  0  0  0  0  0  0  0  0  0
    1.4813   -4.9465    3.4815 O   0  0  0  0  0  0  0  0  0  0  0  0
    2.6039   -3.1621    2.4871 C   0  0  0  0  0  0  0  0  0  0  0  0
    3.3405   -2.8585    1.3196 C   0  0  0  0  0  0  0  0  0  0  0  0
    3.4200   -1.6354    0.7843 N   0  0  0  0  0  0  0  0  0  0  0  0
    2.6830   -0.6423    1.3443 C   0  0  0  0  0  0  0  0  0  0  0  0
    1.8365   -0.8499    2.4473 C   0  0  0  0  0  0  0  0  0  0  0  0
    0.7494    0.5610    3.1234 Br  0  0  0  0  0  0  0  0  0  0  0  0
    1.7961   -2.1295    3.0235 C   0  0  0  0  0  0  0  0  0  0  0  0
    3.6859   -7.7427    3.1106 C   0  0  2  0  0  0  0  0  0  0  0  0
    2.4766   -7.7850    1.6922 S   0  0  0  0  0  0  0  0  0  0  0  0
    1.1238   -7.2191    2.1187 O   0  0  0  0  0  0  0  0  0  0  0  0
    2.3115   -9.6417    1.7481 C   0  0  0  0  0  0  0  0  0  0  0  0
    3.3135  -10.1349    2.8254 C   0  0  1  0  0  0  0  0  0  0  0  0
    4.5248  -10.2514    2.0726 O   0  0  0  0  0  0  0  0  0  0  0  0
    3.0938  -11.4885    3.5553 C   0  0  1  0  0  0  0  0  0  0  0  0
    4.3399  -11.7831    4.4133 C   0  0  0  0  0  0  0  0  0  0  0  0
    0.1406  -10.9230    3.3787 H   0  0  0  0  0  0  0  0  0  0  0  0
   -0.0927  -12.2243    4.5319 H   0  0  0  0  0  0  0  0  0  0  0  0
    0.7078  -12.5668    2.9964 H   0  0  0  0  0  0  0  0  0  0  0  0
    0.7828  -10.3541    5.8510 H   0  0  0  0  0  0  0  0  0  0  0  0
    2.4609  -10.5380    6.2398 H   0  0  0  0  0  0  0  0  0  0  0  0
    1.2395   -8.7853    4.0692 H   0  0  0  0  0  0  0  0  0  0  0  0
    2.0865   -8.2869    5.5005 H   0  0  0  0  0  0  0  0  0  0  0  0
    6.0826  -11.8621    6.5711 H   0  0  0  0  0  0  0  0  0  0  0  0
    7.3510  -10.9512    8.1893 H   0  0  0  0  0  0  0  0  0  0  0  0
    6.4765   -6.5568    6.9110 H   0  0  0  0  0  0  0  0  0  0  0  0
    4.8002   -6.0668    5.8604 H   0  0  0  0  0  0  0  0  0  0  0  0
    5.8506   -6.5283    4.5598 H   0  0  0  0  0  0  0  0  0  0  0  0
    2.8260   -6.5235    4.6686 H   0  0  0  0  0  0  0  0  0  0  0  0
    5.1456   -3.8389    2.3417 H   0  0  0  0  0  0  0  0  0  0  0  0
    5.6071   -5.5236    2.4150 H   0  0  0  0  0  0  0  0  0  0  0  0
    5.6711   -4.5219    3.8607 H   0  0  0  0  0  0  0  0  0  0  0  0
    3.9374   -3.6385    0.8448 H   0  0  0  0  0  0  0  0  0  0  0  0
    2.7596    0.3339    0.8872 H   0  0  0  0  0  0  0  0  0  0  0  0
    1.1554   -2.3231    3.8735 H   0  0  0  0  0  0  0  0  0  0  0  0
    4.6679   -7.8134    2.6421 H   0  0  0  0  0  0  0  0  0  0  0  0
    1.2734   -9.8405    1.9857 H   0  0  0  0  0  0  0  0  0  0  0  0
    2.4956  -10.0426    0.7510 H   0  0  0  0  0  0  0  0  0  0  0  0
    4.4048  -10.9396    1.4166 H   0  0  0  0  0  0  0  0  0  0  0  0
    2.9752  -12.2922    2.8385 H   0  0  0  0  0  0  0  0  0  0  0  0
    5.1315  -12.1284    3.7554 H   0  0  0  0  0  0  0  0  0  0  0  0
    4.1347  -12.6245    5.0794 H   0  0  0  0  0  0  0  0  0  0  0  0
    2.0271  -12.3215    5.0680 H   0  0  0  0  0  0  0  0  0  0  0  0
  1  2  1  0
  1 35  1  0
  1 36  1  0
  1 37  1  0
  2 33  1  0
  2  3  1  0
  2 61  1  1
  3  4  1  0
  3 38  1  0
  3 39  1  0
  5  4  1  1
  4 40  1  0
  4 41  1  0
  5 27  1  0
  5 31  1  0
  5  6  1  0
  6 13  2  0
  6  7  1  0
  7 34  1  0
  7  8  2  0
  8  9  1  0
  8 42  1  0
  9 10  1  0
  9 11  2  0
 10 43  1  0
 11 12  1  0
 11 13  1  0
 12 44  1  0
 13 14  1  0
 14 15  1  0
 14 45  1  0
 14 46  1  0
 15 16  1  0
 15 27  1  0
 15 47  1  1
 16 17  1  0
 16 18  1  0
 17 48  1  0
 17 49  1  0
 17 50  1  0
 18 19  2  0
 18 20  1  0
 20 26  1  0
 20 21  2  0
 21 22  1  0
 21 51  1  0
 22 23  2  0
 23 24  1  0
 23 52  1  0
 24 25  1  0
 24 26  2  0
 26 53  1  0
 27 28  1  0
 27 54  1  6
 28 29  2  0
 28 30  1  1
 30 31  1  0
 30 55  1  0
 30 56  1  0
 31 32  1  6
 31 33  1  0
 32 57  1  0
 33 34  1  0
 33 58  1  6
 34 59  1  0
 34 60  1  0
M  CHG  1   2   1
M  END
>  <i_m_ct_stereo_status>  (80) 
1

>  <s_m_source_file>  (80) 
/var/tmp/pbs.5075288.sched01/tmpq0rgj53d/65gxdktgdh.sdf

>  <i_m_source_file_index>  (80) 
19

>  <i_lp_mmshare_version>  (80) 
48012

>  <i_f3d_flags>  (80) 
0

>  <s_epik_input>  (80) 
W0NIMl0xW0NIMl1OKFtDSDNdKVtDQEhdKFtDSDJdMilbQ0BAXTMoW09IXSlbQ0gyXVtTK10oW08tXSlbQ0BIXTRbQ0BASF0oW0NIMl1jNWMoW09IXSljKFtPSF0pW2NIXWMyYzVbQ0BdMTM0KU4oW0NIM10pQyg9TyljNltjSF1uW2NIXWMoQnIpW2NIXTY=

>  <s_epik_cmdline>  (80) 
J2VwaWtfcHl0aG9uJywgJy1waHQnLCAnMi4wJywgJy1waCcsICc3LjAnLCAnLXRuJywgJzgnLCAnLW1hJywgJzIwMCcsICctaW1hZScsICc8aW5maWxlLm1hZT4nLCAnLW9tYWUnLCAnPG91dGZpbGUubWFlPic=

>  <r_lp_tautomer_probability>  (80) 
1

>  <r_epik_Ionization_Penalty>  (80) 
0.0416603

>  <r_epik_Ionization_Penalty_Charging>  (80) 
0.0404946

>  <r_epik_Ionization_Penalty_Neutral>  (80) 
0.00116566

>  <r_epik_State_Penalty>  (80) 
0.0340882

>  <r_epik_Charging_Adjusted_Penalty>  (80) 
0.0745828

>  <i_epik_Tot_Q>  (80) 
1

>  <i_epik_Tot_abs_Q>  (80) 
3

>  <s_lp_Force_Field>  (80) 
OPLS3e

>  <r_lp_Energy>  (80) 
85.927

>  <b_lp_Chiralities_Consistent>  (80) 
1

>  <s_lp_Variant>  (80) 
20:0-1

>  <s_i_glide_gridfile>  (80) 
pfpi4k_grid

>  <i_i_glide_lignum>  (80) 
19

>  <i_i_glide_rotatable_bonds>  (80) 
6

>  <r_i_docking_score>  (80) 
-2.73869

>  <r_i_glide_ligand_efficiency>  (80) 
-0.0805496

>  <r_i_glide_ligand_efficiency_sa>  (80) 
-0.260949

>  <r_i_glide_ligand_efficiency_ln>  (80) 
-0.605053

>  <r_i_glide_gscore>  (80) 
-2.73869

>  <r_i_glide_lipo>  (80) 
-0.0458436

>  <r_i_glide_hbond>  (80) 
-0.16

>  <r_i_glide_metal>  (80) 
-0

>  <r_i_glide_rewards>  (80) 
0

>  <r_i_glide_evdw>  (80) 
-24.3521

>  <r_i_glide_ecoul>  (80) 
-9.88566

>  <r_i_glide_erotb>  (80) 
0.205969

>  <r_i_glide_esite>  (80) 
-0.0383591

>  <r_i_glide_emodel>  (80) 
-39.7323

>  <r_i_glide_energy>  (80) 
-34.2377

>  <r_i_glide_einternal>  (80) 
6.75639

>  <r_i_glide_intrahb_reward>  (80) 
-0

>  <i_i_glide_confnum>  (80) 
5

>  <i_i_glide_posenum>  (80) 
3

>  <r_i_glide_eff_state_penalty>  (80) 
0

>  <ligand_id>  (80) 
20

>  <original_smiles>  (80) 
CN1CCC23c4c5cc(O)c(O)c4CC(N(C)C(=O)c4cncc(Br)c4)C2[S+]([O-])CC3(O)C1C5

>  <smiles>  (80) 
[H]Oc1c([H])c2c3c(c1O[H])C([H])([H])C([H])(N(C(=O)c1c([H])nc([H])c(Br)c1[H])C([H])([H])[H])C1([H])S(=O)C([H])([H])C4(O[H])C31C([H])([H])C([H])([H])[N+]([H])(C([H])([H])[H])C4([H])C2([H])[H]

$$$$
20:0:1
     RDKit          3D

 61 66  0  0  1  0  0  0  0  0999 V2000
    5.4266   -6.8057    5.2320 C   0  0  0  0  0  0  0  0  0  0  0  0
    5.1428   -6.2974    3.8854 N   0  0  2  0  0  0  0  0  0  0  0  0
    5.6412   -4.9321    3.6566 C   0  0  0  0  0  0  0  0  0  0  0  0
    4.5832   -3.8730    3.9841 C   0  0  0  0  0  0  0  0  0  0  0  0
    3.2030   -4.1444    3.2804 C   0  0  2  0  0  0  0  0  0  0  0  0
    3.4352   -4.0521    1.7696 C   0  0  0  0  0  0  0  0  0  0  0  0
    3.8727   -5.2178    1.0653 C   0  0  0  0  0  0  0  0  0  0  0  0
    4.2719   -5.0720   -0.2702 C   0  0  0  0  0  0  0  0  0  0  0  0
    4.2155   -3.8247   -0.9161 C   0  0  0  0  0  0  0  0  0  0  0  0
    4.6013   -3.7510   -2.2267 O   0  0  0  0  0  0  0  0  0  0  0  0
    3.6985   -2.6911   -0.2369 C   0  0  0  0  0  0  0  0  0  0  0  0
    3.5544   -1.5123   -0.9117 O   0  0  0  0  0  0  0  0  0  0  0  0
    3.2899   -2.7776    1.1186 C   0  0  0  0  0  0  0  0  0  0  0  0
    2.6116   -1.6318    1.9182 C   0  0  0  0  0  0  0  0  0  0  0  0
    2.4568   -1.7341    3.4599 C   0  0  1  0  0  0  0  0  0  0  0  0
    1.5368   -0.6779    3.9690 N   0  0  0  0  0  0  0  0  0  0  0  0
    2.2870    0.5558    4.3037 C   0  0  0  0  0  0  0  0  0  0  0  0
    0.2083   -0.8285    4.2315 C   0  0  0  0  0  0  0  0  0  0  0  0
   -0.4490   -1.8533    4.0819 O   0  0  0  0  0  0  0  0  0  0  0  0
   -0.5567    0.3081    4.7951 C   0  0  0  0  0  0  0  0  0  0  0  0
   -1.1859    0.1701    6.0499 C   0  0  0  0  0  0  0  0  0  0  0  0
   -1.9528    1.1280    6.6008 N   0  0  0  0  0  0  0  0  0  0  0  0
   -2.1008    2.2754    5.9000 C   0  0  0  0  0  0  0  0  0  0  0  0
   -1.5376    2.4960    4.6187 C   0  0  0  0  0  0  0  0  0  0  0  0
   -1.7939    4.1340    3.6865 Br  0  0  0  0  0  0  0  0  0  0  0  0
   -0.7703    1.4722    4.0382 C   0  0  0  0  0  0  0  0  0  0  0  0
    2.0913   -3.1999    3.7126 C   0  0  2  0  0  0  0  0  0  0  0  0
    1.6944   -3.6500    5.4691 S   0  0  0  0  0  0  0  0  0  0  0  0
    2.6535   -2.9024    6.3973 O   0  0  0  0  0  0  0  0  0  0  0  0
    2.3137   -5.3942    5.2728 C   0  0  0  0  0  0  0  0  0  0  0  0
    2.7117   -5.5238    3.7701 C   0  0  1  0  0  0  0  0  0  0  0  0
    1.4897   -5.8887    3.1223 O   0  0  0  0  0  0  0  0  0  0  0  0
    3.7826   -6.5532    3.3555 C   0  0  1  0  0  0  0  0  0  0  0  0
    3.8372   -6.5653    1.8165 C   0  0  0  0  0  0  0  0  0  0  0  0
    5.1180   -6.1063    6.0016 H   0  0  0  0  0  0  0  0  0  0  0  0
    6.4947   -6.9429    5.3703 H   0  0  0  0  0  0  0  0  0  0  0  0
    4.9475   -7.7631    5.4249 H   0  0  0  0  0  0  0  0  0  0  0  0
    6.5265   -4.7635    4.2633 H   0  0  0  0  0  0  0  0  0  0  0  0
    5.9677   -4.8058    2.6286 H   0  0  0  0  0  0  0  0  0  0  0  0
    4.4764   -3.8333    5.0716 H   0  0  0  0  0  0  0  0  0  0  0  0
    5.0043   -2.9035    3.7066 H   0  0  0  0  0  0  0  0  0  0  0  0
    4.6068   -5.9471   -0.8111 H   0  0  0  0  0  0  0  0  0  0  0  0
    4.4914   -4.5923   -2.6407 H   0  0  0  0  0  0  0  0  0  0  0  0
    2.7346   -1.0696   -0.7237 H   0  0  0  0  0  0  0  0  0  0  0  0
    3.1797   -0.7317    1.6738 H   0  0  0  0  0  0  0  0  0  0  0  0
    1.6242   -1.5014    1.4610 H   0  0  0  0  0  0  0  0  0  0  0  0
    3.4292   -1.5011    3.8943 H   0  0  0  0  0  0  0  0  0  0  0  0
    1.7165    1.3942    4.6988 H   0  0  0  0  0  0  0  0  0  0  0  0
    2.8137    0.9359    3.4278 H   0  0  0  0  0  0  0  0  0  0  0  0
    3.0211    0.3503    5.0829 H   0  0  0  0  0  0  0  0  0  0  0  0
   -1.0739   -0.7370    6.6234 H   0  0  0  0  0  0  0  0  0  0  0  0
   -2.6879    3.0499    6.3725 H   0  0  0  0  0  0  0  0  0  0  0  0
   -0.3303    1.5757    3.0559 H   0  0  0  0  0  0  0  0  0  0  0  0
    1.2444   -3.4582    3.0869 H   0  0  0  0  0  0  0  0  0  0  0  0
    3.1248   -5.5322    5.9792 H   0  0  0  0  0  0  0  0  0  0  0  0
    1.5336   -6.1001    5.5625 H   0  0  0  0  0  0  0  0  0  0  0  0
    1.2325   -6.7513    3.4096 H   0  0  0  0  0  0  0  0  0  0  0  0
    3.4819   -7.5495    3.6641 H   0  0  0  0  0  0  0  0  0  0  0  0
    2.9682   -7.0970    1.4306 H   0  0  0  0  0  0  0  0  0  0  0  0
    4.6896   -7.1525    1.4729 H   0  0  0  0  0  0  0  0  0  0  0  0
    5.7372   -6.8718    3.3026 H   0  0  0  0  0  0  0  0  0  0  0  0
  1  2  1  0
  1 35  1  0
  1 36  1  0
  1 37  1  0
  2 33  1  0
  2  3  1  0
  2 61  1  6
  3  4  1  0
  3 38  1  0
  3 39  1  0
  5  4  1  1
  4 40  1  0
  4 41  1  0
  5 27  1  0
  5 31  1  0
  5  6  1  0
  6 13  2  0
  6  7  1  0
  7 34  1  0
  7  8  2  0
  8  9  1  0
  8 42  1  0
  9 10  1  0
  9 11  2  0
 10 43  1  0
 11 12  1  0
 11 13  1  0
 12 44  1  0
 13 14  1  0
 14 15  1  0
 14 45  1  0
 14 46  1  0
 15 16  1  0
 15 27  1  0
 15 47  1  1
 16 17  1  0
 16 18  1  0
 17 48  1  0
 17 49  1  0
 17 50  1  0
 18 19  2  0
 18 20  1  0
 20 26  1  0
 20 21  2  0
 21 22  1  0
 21 51  1  0
 22 23  2  0
 23 24  1  0
 23 52  1  0
 24 25  1  0
 24 26  2  0
 26 53  1  0
 27 28  1  0
 27 54  1  6
 28 29  2  0
 28 30  1  6
 30 31  1  0
 30 55  1  0
 30 56  1  0
 31 32  1  6
 31 33  1  0
 32 57  1  0
 33 34  1  0
 33 58  1  1
 34 59  1  0
 34 60  1  0
M  CHG  1   2   1
M  END
>  <i_m_ct_stereo_status>  (81) 
1

>  <s_m_source_file>  (81) 
/var/tmp/pbs.5075288.sched01/tmpq0rgj53d/65gxdktgdh.sdf

>  <i_m_source_file_index>  (81) 
19

>  <i_lp_mmshare_version>  (81) 
48012

>  <i_f3d_flags>  (81) 
0

>  <s_epik_input>  (81) 
W0NIMl0xW0NIMl1OKFtDSDNdKVtDQEhdKFtDSDJdMilbQ0BAXTMoW09IXSlbQ0gyXVtTK10oW08tXSlbQ0BIXTRbQ0BASF0oW0NIMl1jNWMoW09IXSljKFtPSF0pW2NIXWMyYzVbQ0BdMTM0KU4oW0NIM10pQyg9TyljNltjSF1uW2NIXWMoQnIpW2NIXTY=

>  <s_epik_cmdline>  (81) 
J2VwaWtfcHl0aG9uJywgJy1waHQnLCAnMi4wJywgJy1waCcsICc3LjAnLCAnLXRuJywgJzgnLCAnLW1hJywgJzIwMCcsICctaW1hZScsICc8aW5maWxlLm1hZT4nLCAnLW9tYWUnLCAnPG91dGZpbGUubWFlPic=

>  <r_lp_tautomer_probability>  (81) 
1

>  <r_epik_Ionization_Penalty>  (81) 
0.0416603

>  <r_epik_Ionization_Penalty_Charging>  (81) 
0.0404946

>  <r_epik_Ionization_Penalty_Neutral>  (81) 
0.00116566

>  <r_epik_State_Penalty>  (81) 
0.0340882

>  <r_epik_Charging_Adjusted_Penalty>  (81) 
0.0745828

>  <i_epik_Tot_Q>  (81) 
1

>  <i_epik_Tot_abs_Q>  (81) 
3

>  <s_lp_Force_Field>  (81) 
OPLS3e

>  <r_lp_Energy>  (81) 
85.927

>  <b_lp_Chiralities_Consistent>  (81) 
1

>  <s_lp_Variant>  (81) 
20:0-1

>  <s_i_glide_gridfile>  (81) 
pfpi4k_grid

>  <i_i_glide_lignum>  (81) 
19

>  <i_i_glide_rotatable_bonds>  (81) 
6

>  <r_i_docking_score>  (81) 
-2.44599

>  <r_i_glide_ligand_efficiency>  (81) 
-0.071941

>  <r_i_glide_ligand_efficiency_sa>  (81) 
-0.233061

>  <r_i_glide_ligand_efficiency_ln>  (81) 
-0.540389

>  <r_i_glide_gscore>  (81) 
-2.44599

>  <r_i_glide_lipo>  (81) 
-0.098534

>  <r_i_glide_hbond>  (81) 
-0.0829272

>  <r_i_glide_metal>  (81) 
-0

>  <r_i_glide_rewards>  (81) 
0

>  <r_i_glide_evdw>  (81) 
-25.4869

>  <r_i_glide_ecoul>  (81) 
-7.88242

>  <r_i_glide_erotb>  (81) 
0.205969

>  <r_i_glide_esite>  (81) 
-0.0137922

>  <r_i_glide_emodel>  (81) 
-37.4037

>  <r_i_glide_energy>  (81) 
-33.3694

>  <r_i_glide_einternal>  (81) 
6.32941

>  <r_i_glide_intrahb_reward>  (81) 
-0

>  <i_i_glide_confnum>  (81) 
3

>  <i_i_glide_posenum>  (81) 
2

>  <r_i_glide_eff_state_penalty>  (81) 
0

>  <ligand_id>  (81) 
20

>  <original_smiles>  (81) 
CN1CCC23c4c5cc(O)c(O)c4CC(N(C)C(=O)c4cncc(Br)c4)C2[S+]([O-])CC3(O)C1C5

>  <smiles>  (81) 
[H]Oc1c([H])c2c3c(c1O[H])C([H])([H])C([H])(N(C(=O)c1c([H])nc([H])c(Br)c1[H])C([H])([H])[H])C1([H])S(=O)C([H])([H])C4(O[H])C31C([H])([H])C([H])([H])[N+]([H])(C([H])([H])[H])C4([H])C2([H])[H]

$$$$
20:0:2
     RDKit          3D

 61 66  0  0  1  0  0  0  0  0999 V2000
    7.4173   -1.7537    0.4851 C   0  0  0  0  0  0  0  0  0  0  0  0
    6.0782   -1.2160    0.8095 N   0  0  2  0  0  0  0  0  0  0  0  0
    5.7645   -1.2213    2.2531 C   0  0  0  0  0  0  0  0  0  0  0  0
    5.0745   -2.5286    2.6798 C   0  0  0  0  0  0  0  0  0  0  0  0
    3.8182   -2.8825    1.8002 C   0  0  2  0  0  0  0  0  0  0  0  0
    2.8045   -1.7477    2.0095 C   0  0  0  0  0  0  0  0  0  0  0  0
    2.9196   -0.5741    1.2167 C   0  0  0  0  0  0  0  0  0  0  0  0
    2.1010    0.5347    1.5256 C   0  0  0  0  0  0  0  0  0  0  0  0
    1.1701    0.4663    2.5710 C   0  0  0  0  0  0  0  0  0  0  0  0
    0.3666    1.5508    2.8172 O   0  0  0  0  0  0  0  0  0  0  0  0
    1.0366   -0.7127    3.3271 C   0  0  0  0  0  0  0  0  0  0  0  0
    0.1012   -0.7481    4.3133 O   0  0  0  0  0  0  0  0  0  0  0  0
    1.8424   -1.8514    3.0617 C   0  0  0  0  0  0  0  0  0  0  0  0
    1.6630   -3.2149    3.7555 C   0  0  0  0  0  0  0  0  0  0  0  0
    2.7491   -4.3081    3.5743 C   0  0  1  0  0  0  0  0  0  0  0  0
    2.3314   -5.6435    4.0781 N   0  0  0  0  0  0  0  0  0  0  0  0
    3.0763   -5.9883    5.3124 C   0  0  0  0  0  0  0  0  0  0  0  0
    1.4260   -6.4442    3.4447 C   0  0  0  0  0  0  0  0  0  0  0  0
    0.8507   -6.1316    2.3984 O   0  0  0  0  0  0  0  0  0  0  0  0
    1.1193   -7.7966    4.0297 C   0  0  0  0  0  0  0  0  0  0  0  0
    1.2462   -8.9653    3.2465 C   0  0  0  0  0  0  0  0  0  0  0  0
    1.0062  -10.2071    3.7233 N   0  0  0  0  0  0  0  0  0  0  0  0
    0.6227  -10.3313    5.0093 C   0  0  0  0  0  0  0  0  0  0  0  0
    0.4268   -9.2245    5.8557 C   0  0  0  0  0  0  0  0  0  0  0  0
   -0.0586   -9.4251    7.6769 Br  0  0  0  0  0  0  0  0  0  0  0  0
    0.6458   -7.9352    5.3491 C   0  0  0  0  0  0  0  0  0  0  0  0
    3.1731   -4.2337    2.1072 C   0  0  2  0  0  0  0  0  0  0  0  0
    4.3777   -5.5152    1.5084 S   0  0  0  0  0  0  0  0  0  0  0  0
    5.4086   -5.7546    2.6125 O   0  0  0  0  0  0  0  0  0  0  0  0
    5.1502   -4.3520    0.2671 C   0  0  0  0  0  0  0  0  0  0  0  0
    4.3182   -3.0342    0.3503 C   0  0  1  0  0  0  0  0  0  0  0  0
    3.2337   -3.2834   -0.5399 O   0  0  0  0  0  0  0  0  0  0  0  0
    4.9557   -1.6803   -0.0584 C   0  0  1  0  0  0  0  0  0  0  0  0
    3.8382   -0.6253   -0.0117 C   0  0  0  0  0  0  0  0  0  0  0  0
    7.5805   -2.7228    0.9542 H   0  0  0  0  0  0  0  0  0  0  0  0
    8.1898   -1.0833    0.8686 H   0  0  0  0  0  0  0  0  0  0  0  0
    7.5706   -1.8608   -0.5909 H   0  0  0  0  0  0  0  0  0  0  0  0
    6.6690   -1.0500    2.8296 H   0  0  0  0  0  0  0  0  0  0  0  0
    5.1384   -0.3643    2.5053 H   0  0  0  0  0  0  0  0  0  0  0  0
    5.8142   -3.3326    2.6509 H   0  0  0  0  0  0  0  0  0  0  0  0
    4.8210   -2.4018    3.7298 H   0  0  0  0  0  0  0  0  0  0  0  0
    2.1580    1.4114    0.8976 H   0  0  0  0  0  0  0  0  0  0  0  0
    0.4593    2.2339    2.1664 H   0  0  0  0  0  0  0  0  0  0  0  0
   -0.3185    0.0990    4.3569 H   0  0  0  0  0  0  0  0  0  0  0  0
    1.5399   -3.0207    4.8208 H   0  0  0  0  0  0  0  0  0  0  0  0
    0.7036   -3.5970    3.3995 H   0  0  0  0  0  0  0  0  0  0  0  0
    3.5834   -4.0040    4.1992 H   0  0  0  0  0  0  0  0  0  0  0  0
    2.8683   -6.9396    5.7975 H   0  0  0  0  0  0  0  0  0  0  0  0
    2.9202   -5.2123    6.0679 H   0  0  0  0  0  0  0  0  0  0  0  0
    4.1417   -6.0352    5.0848 H   0  0  0  0  0  0  0  0  0  0  0  0
    1.5775   -8.9163    2.2165 H   0  0  0  0  0  0  0  0  0  0  0  0
    0.4447  -11.3327    5.3705 H   0  0  0  0  0  0  0  0  0  0  0  0
    0.5068   -7.0784    5.9893 H   0  0  0  0  0  0  0  0  0  0  0  0
    2.2915   -4.3254    1.4784 H   0  0  0  0  0  0  0  0  0  0  0  0
    6.1946   -4.2367    0.5352 H   0  0  0  0  0  0  0  0  0  0  0  0
    5.1377   -4.7985   -0.7300 H   0  0  0  0  0  0  0  0  0  0  0  0
    3.5541   -3.4237   -1.4165 H   0  0  0  0  0  0  0  0  0  0  0  0
    5.3237   -1.7267   -1.0842 H   0  0  0  0  0  0  0  0  0  0  0  0
    3.2056   -0.7528   -0.8899 H   0  0  0  0  0  0  0  0  0  0  0  0
    4.2715    0.3679   -0.1133 H   0  0  0  0  0  0  0  0  0  0  0  0
    6.1637   -0.2271    0.5894 H   0  0  0  0  0  0  0  0  0  0  0  0
  1  2  1  0
  1 35  1  0
  1 36  1  0
  1 37  1  0
  2 33  1  0
  2  3  1  0
  2 61  1  6
  3  4  1  0
  3 38  1  0
  3 39  1  0
  5  4  1  1
  4 40  1  0
  4 41  1  0
  5 27  1  0
  5 31  1  0
  5  6  1  0
  6 13  2  0
  6  7  1  0
  7 34  1  0
  7  8  2  0
  8  9  1  0
  8 42  1  0
  9 10  1  0
  9 11  2  0
 10 43  1  0
 11 12  1  0
 11 13  1  0
 12 44  1  0
 13 14  1  0
 14 15  1  0
 14 45  1  0
 14 46  1  0
 15 16  1  0
 15 27  1  0
 15 47  1  1
 16 17  1  0
 16 18  1  0
 17 48  1  0
 17 49  1  0
 17 50  1  0
 18 19  2  0
 18 20  1  0
 20 26  1  0
 20 21  2  0
 21 22  1  0
 21 51  1  0
 22 23  2  0
 23 24  1  0
 23 52  1  0
 24 25  1  0
 24 26  2  0
 26 53  1  0
 27 28  1  0
 27 54  1  6
 28 29  2  0
 28 30  1  6
 30 31  1  0
 30 55  1  0
 30 56  1  0
 31 32  1  6
 31 33  1  0
 32 57  1  0
 33 34  1  0
 33 58  1  6
 34 59  1  0
 34 60  1  0
M  CHG  1   2   1
M  END
>  <i_m_ct_stereo_status>  (82) 
1

>  <s_m_source_file>  (82) 
/var/tmp/pbs.5075288.sched01/tmpq0rgj53d/65gxdktgdh.sdf

>  <i_m_source_file_index>  (82) 
19

>  <i_lp_mmshare_version>  (82) 
48012

>  <i_f3d_flags>  (82) 
0

>  <s_epik_input>  (82) 
W0NIMl0xW0NIMl1OKFtDSDNdKVtDQEhdKFtDSDJdMilbQ0BAXTMoW09IXSlbQ0gyXVtTK10oW08tXSlbQ0BIXTRbQ0BASF0oW0NIMl1jNWMoW09IXSljKFtPSF0pW2NIXWMyYzVbQ0BdMTM0KU4oW0NIM10pQyg9TyljNltjSF1uW2NIXWMoQnIpW2NIXTY=

>  <s_epik_cmdline>  (82) 
J2VwaWtfcHl0aG9uJywgJy1waHQnLCAnMi4wJywgJy1waCcsICc3LjAnLCAnLXRuJywgJzgnLCAnLW1hJywgJzIwMCcsICctaW1hZScsICc8aW5maWxlLm1hZT4nLCAnLW9tYWUnLCAnPG91dGZpbGUubWFlPic=

>  <r_lp_tautomer_probability>  (82) 
1

>  <r_epik_Ionization_Penalty>  (82) 
0.0416603

>  <r_epik_Ionization_Penalty_Charging>  (82) 
0.0404946

>  <r_epik_Ionization_Penalty_Neutral>  (82) 
0.00116566

>  <r_epik_State_Penalty>  (82) 
0.0340882

>  <r_epik_Charging_Adjusted_Penalty>  (82) 
0.0745828

>  <i_epik_Tot_Q>  (82) 
1

>  <i_epik_Tot_abs_Q>  (82) 
3

>  <s_lp_Force_Field>  (82) 
OPLS3e

>  <r_lp_Energy>  (82) 
85.927

>  <b_lp_Chiralities_Consistent>  (82) 
1

>  <s_lp_Variant>  (82) 
20:0-1

>  <s_i_glide_gridfile>  (82) 
pfpi4k_grid

>  <i_i_glide_lignum>  (82) 
19

>  <i_i_glide_rotatable_bonds>  (82) 
6

>  <r_i_docking_score>  (82) 
-2.10993

>  <r_i_glide_ligand_efficiency>  (82) 
-0.0620569

>  <r_i_glide_ligand_efficiency_sa>  (82) 
-0.20104

>  <r_i_glide_ligand_efficiency_ln>  (82) 
-0.466144

>  <r_i_glide_gscore>  (82) 
-2.10993

>  <r_i_glide_lipo>  (82) 
-0.271522

>  <r_i_glide_hbond>  (82) 
-0.00651817

>  <r_i_glide_metal>  (82) 
-0

>  <r_i_glide_rewards>  (82) 
-0.0443895

>  <r_i_glide_evdw>  (82) 
-29.3817

>  <r_i_glide_ecoul>  (82) 
-3.39721

>  <r_i_glide_erotb>  (82) 
0.205969

>  <r_i_glide_esite>  (82) 
-0.0148072

>  <r_i_glide_emodel>  (82) 
-38.8567

>  <r_i_glide_energy>  (82) 
-32.7789

>  <r_i_glide_einternal>  (82) 
1.7901

>  <r_i_glide_intrahb_reward>  (82) 
-0

>  <i_i_glide_confnum>  (82) 
4

>  <i_i_glide_posenum>  (82) 
15

>  <r_i_glide_eff_state_penalty>  (82) 
0

>  <ligand_id>  (82) 
20

>  <original_smiles>  (82) 
CN1CCC23c4c5cc(O)c(O)c4CC(N(C)C(=O)c4cncc(Br)c4)C2[S+]([O-])CC3(O)C1C5

>  <smiles>  (82) 
[H]Oc1c([H])c2c3c(c1O[H])C([H])([H])C([H])(N(C(=O)c1c([H])nc([H])c(Br)c1[H])C([H])([H])[H])C1([H])S(=O)C([H])([H])C4(O[H])C31C([H])([H])C([H])([H])[N+]([H])(C([H])([H])[H])C4([H])C2([H])[H]

$$$$
20:1:0
     RDKit          3D

 60 65  0  0  1  0  0  0  0  0999 V2000
   -1.3094   -9.3222    2.4726 C   0  0  0  0  0  0  0  0  0  0  0  0
    0.0873   -9.2056    2.8750 N   0  0  0  0  0  0  0  0  0  0  0  0
    0.6786   -7.9687    2.3884 C   0  0  0  0  0  0  0  0  0  0  0  0
    2.1501   -7.8224    2.7896 C   0  0  0  0  0  0  0  0  0  0  0  0
    2.4286   -8.1059    4.3212 C   0  0  2  0  0  0  0  0  0  0  0  0
    1.8280   -6.9426    5.1261 C   0  0  0  0  0  0  0  0  0  0  0  0
    0.4487   -7.0091    5.4835 C   0  0  0  0  0  0  0  0  0  0  0  0
   -0.1298   -5.8990    6.1196 C   0  0  0  0  0  0  0  0  0  0  0  0
    0.6115   -4.7499    6.3801 C   0  0  0  0  0  0  0  0  0  0  0  0
    0.0168   -3.6733    6.9785 O   0  0  0  0  0  0  0  0  0  0  0  0
    1.9760   -4.6841    6.0536 C   0  0  0  0  0  0  0  0  0  0  0  0
    2.7029   -3.5659    6.3520 O   0  0  0  0  0  0  0  0  0  0  0  0
    2.6256   -5.7841    5.4474 C   0  0  0  0  0  0  0  0  0  0  0  0
    4.1528   -5.8429    5.2232 C   0  0  0  0  0  0  0  0  0  0  0  0
    4.6638   -6.9886    4.3364 C   0  0  1  0  0  0  0  0  0  0  0  0
    6.1280   -7.1538    4.2501 N   0  0  0  0  0  0  0  0  0  0  0  0
    6.7477   -7.7294    5.4772 C   0  0  0  0  0  0  0  0  0  0  0  0
    6.9159   -6.8281    3.1711 C   0  0  0  0  0  0  0  0  0  0  0  0
    8.1287   -6.9792    3.1750 O   0  0  0  0  0  0  0  0  0  0  0  0
    6.3049   -6.1919    1.9387 C   0  0  0  0  0  0  0  0  0  0  0  0
    5.1350   -6.7066    1.3355 C   0  0  0  0  0  0  0  0  0  0  0  0
    4.4861   -6.1005    0.3113 N   0  0  0  0  0  0  0  0  0  0  0  0
    5.0069   -5.0066   -0.2089 C   0  0  0  0  0  0  0  0  0  0  0  0
    6.2545   -4.4583    0.2132 C   0  0  0  0  0  0  0  0  0  0  0  0
    7.0292   -3.0077   -0.7216 Br  0  0  0  0  0  0  0  0  0  0  0  0
    6.9035   -5.0691    1.3216 C   0  0  0  0  0  0  0  0  0  0  0  0
    3.9014   -8.2732    4.6852 C   0  0  2  0  0  0  0  0  0  0  0  0
    4.4389   -9.8928    3.9173 S   0  0  0  0  0  0  0  0  0  0  0  0
    4.9001   -9.6712    2.4768 O   0  0  0  0  0  0  0  0  0  0  0  0
    2.6897  -10.5535    3.8983 C   0  0  0  0  0  0  0  0  0  0  0  0
    1.8257   -9.4919    4.6442 C   0  0  1  0  0  0  0  0  0  0  0  0
    1.9620   -9.8132    6.0314 O   0  0  0  0  0  0  0  0  0  0  0  0
    0.3191   -9.4079    4.3168 C   0  0  1  0  0  0  0  0  0  0  0  0
   -0.3150   -8.3099    5.2104 C   0  0  0  0  0  0  0  0  0  0  0  0
   -1.3948   -9.3460    1.3885 H   0  0  0  0  0  0  0  0  0  0  0  0
   -1.9325   -8.5037    2.8277 H   0  0  0  0  0  0  0  0  0  0  0  0
   -1.7521  -10.2424    2.8501 H   0  0  0  0  0  0  0  0  0  0  0  0
    0.6028   -7.9480    1.2967 H   0  0  0  0  0  0  0  0  0  0  0  0
    0.1146   -7.1019    2.7426 H   0  0  0  0  0  0  0  0  0  0  0  0
    2.6997   -8.5076    2.1488 H   0  0  0  0  0  0  0  0  0  0  0  0
    2.4563   -6.8244    2.4860 H   0  0  0  0  0  0  0  0  0  0  0  0
   -1.1729   -5.9233    6.4037 H   0  0  0  0  0  0  0  0  0  0  0  0
    0.6557   -3.0009    7.1186 H   0  0  0  0  0  0  0  0  0  0  0  0
    3.6041   -3.6426    6.0885 H   0  0  0  0  0  0  0  0  0  0  0  0
    4.4592   -4.9191    4.7178 H   0  0  0  0  0  0  0  0  0  0  0  0
    4.6440   -5.8339    6.2093 H   0  0  0  0  0  0  0  0  0  0  0  0
    4.2603   -6.5736    3.4366 H   0  0  0  0  0  0  0  0  0  0  0  0
    7.8110   -7.9978    5.3919 H   0  0  0  0  0  0  0  0  0  0  0  0
    6.2528   -8.6603    5.7567 H   0  0  0  0  0  0  0  0  0  0  0  0
    6.6378   -7.0538    6.3338 H   0  0  0  0  0  0  0  0  0  0  0  0
    4.6643   -7.6028    1.6880 H   0  0  0  0  0  0  0  0  0  0  0  0
    4.4629   -4.5782   -1.0487 H   0  0  0  0  0  0  0  0  0  0  0  0
    7.8407   -4.6686    1.6734 H   0  0  0  0  0  0  0  0  0  0  0  0
    3.9711   -8.4434    5.7702 H   0  0  0  0  0  0  0  0  0  0  0  0
    2.3802  -10.6932    2.8618 H   0  0  0  0  0  0  0  0  0  0  0  0
    2.6563  -11.5317    4.3764 H   0  0  0  0  0  0  0  0  0  0  0  0
    1.6639  -10.6953    6.2051 H   0  0  0  0  0  0  0  0  0  0  0  0
   -0.1394  -10.3612    4.5812 H   0  0  0  0  0  0  0  0  0  0  0  0
   -0.5190   -8.7649    6.1801 H   0  0  0  0  0  0  0  0  0  0  0  0
   -1.3016   -8.0401    4.8407 H   0  0  0  0  0  0  0  0  0  0  0  0
  1  2  1  0
  1 35  1  0
  1 36  1  0
  1 37  1  0
  2 33  1  0
  2  3  1  0
  3  4  1  0
  3 38  1  0
  3 39  1  0
  5  4  1  6
  4 40  1  0
  4 41  1  0
  5 27  1  0
  5 31  1  0
  5  6  1  0
  6 13  2  0
  6  7  1  0
  7 34  1  0
  7  8  2  0
  8  9  1  0
  8 42  1  0
  9 10  1  0
  9 11  2  0
 10 43  1  0
 11 12  1  0
 11 13  1  0
 12 44  1  0
 13 14  1  0
 14 15  1  0
 14 45  1  0
 14 46  1  0
 15 16  1  0
 15 27  1  0
 15 47  1  6
 16 17  1  0
 16 18  1  0
 17 48  1  0
 17 49  1  0
 17 50  1  0
 18 19  2  0
 18 20  1  0
 20 26  1  0
 20 21  2  0
 21 22  1  0
 21 51  1  0
 22 23  2  0
 23 24  1  0
 23 52  1  0
 24 25  1  0
 24 26  2  0
 26 53  1  0
 27 28  1  0
 27 54  1  1
 28 29  2  0
 28 30  1  6
 30 31  1  0
 30 55  1  0
 30 56  1  0
 31 32  1  1
 31 33  1  0
 32 57  1  0
 33 34  1  0
 33 58  1  1
 34 59  1  0
 34 60  1  0
M  END
>  <i_m_ct_stereo_status>  (83) 
1

>  <s_m_source_file>  (83) 
/var/tmp/pbs.5075288.sched01/tmpq0rgj53d/65gxdktgdh.sdf

>  <i_m_source_file_index>  (83) 
20

>  <i_lp_mmshare_version>  (83) 
48012

>  <i_f3d_flags>  (83) 
0

>  <s_epik_input>  (83) 
W0NIMl0xW0NIMl1OKFtDSDNdKVtDQEhdKFtDSDJdMilbQ0BAXTMoW09IXSlbQ0gyXVtTK10oW08tXSlbQ0BIXTRbQ0BASF0oW0NIMl1jNWMoW09IXSljKFtPSF0pW2NIXWMyYzVbQ0BdMTM0KU4oW0NIM10pQyg9TyljNltjSF1uW2NIXWMoQnIpW2NIXTY=

>  <s_epik_cmdline>  (83) 
J2VwaWtfcHl0aG9uJywgJy1waHQnLCAnMi4wJywgJy1waCcsICc3LjAnLCAnLXRuJywgJzgnLCAnLW1hJywgJzIwMCcsICctaW1hZScsICc8aW5maWxlLm1hZT4nLCAnLW9tYWUnLCAnPG91dGZpbGUubWFlPic=

>  <r_lp_tautomer_probability>  (83) 
1

>  <r_epik_Ionization_Penalty>  (83) 
1.60992

>  <r_epik_Ionization_Penalty_Charging>  (83) 
0

>  <r_epik_Ionization_Penalty_Neutral>  (83) 
1.60992

>  <r_epik_State_Penalty>  (83) 
1.70873

>  <r_epik_Charging_Adjusted_Penalty>  (83) 
1.70873

>  <i_epik_Tot_Q>  (83) 
0

>  <i_epik_Tot_abs_Q>  (83) 
2

>  <s_lp_Force_Field>  (83) 
OPLS3e

>  <r_lp_Energy>  (83) 
74.5496

>  <b_lp_Chiralities_Consistent>  (83) 
1

>  <s_lp_Variant>  (83) 
20:0-2

>  <s_i_glide_gridfile>  (83) 
pfpi4k_grid

>  <i_i_glide_lignum>  (83) 
20

>  <i_i_glide_rotatable_bonds>  (83) 
6

>  <r_i_docking_score>  (83) 
-2.28369

>  <r_i_glide_ligand_efficiency>  (83) 
-0.0671673

>  <r_i_glide_ligand_efficiency_sa>  (83) 
-0.217596

>  <r_i_glide_ligand_efficiency_ln>  (83) 
-0.504531

>  <r_i_glide_gscore>  (83) 
-2.28369

>  <r_i_glide_lipo>  (83) 
-0.622295

>  <r_i_glide_hbond>  (83) 
-0.0874814

>  <r_i_glide_metal>  (83) 
-0

>  <r_i_glide_rewards>  (83) 
-0.00788971

>  <r_i_glide_evdw>  (83) 
-29.2119

>  <r_i_glide_ecoul>  (83) 
-2.03058

>  <r_i_glide_erotb>  (83) 
0.206668

>  <r_i_glide_esite>  (83) 
-0.00750903

>  <r_i_glide_emodel>  (83) 
-31.9338

>  <r_i_glide_energy>  (83) 
-31.2425

>  <r_i_glide_einternal>  (83) 
5.39666

>  <r_i_glide_intrahb_reward>  (83) 
-0

>  <i_i_glide_confnum>  (83) 
3

>  <i_i_glide_posenum>  (83) 
23

>  <r_i_glide_eff_state_penalty>  (83) 
0

>  <ligand_id>  (83) 
20

>  <original_smiles>  (83) 
CN1CCC23c4c5cc(O)c(O)c4CC(N(C)C(=O)c4cncc(Br)c4)C2[S+]([O-])CC3(O)C1C5

>  <smiles>  (83) 
[H]Oc1c([H])c2c3c(c1O[H])C([H])([H])C([H])(N(C(=O)c1c([H])nc([H])c(Br)c1[H])C([H])([H])[H])C1([H])S(=O)C([H])([H])C4(O[H])C([H])(N(C([H])([H])[H])C([H])([H])C([H])([H])C314)C2([H])[H]

$$$$
20:1:1
     RDKit          3D

 60 65  0  0  1  0  0  0  0  0999 V2000
   -1.3761   -8.6956    2.3087 C   0  0  0  0  0  0  0  0  0  0  0  0
    0.0454   -8.3649    2.3284 N   0  0  0  0  0  0  0  0  0  0  0  0
    0.3136   -7.0324    1.8070 C   0  0  0  0  0  0  0  0  0  0  0  0
    1.8067   -6.6872    1.7929 C   0  0  0  0  0  0  0  0  0  0  0  0
    2.5349   -7.0114    3.1495 C   0  0  2  0  0  0  0  0  0  0  0  0
    2.0382   -6.0148    4.2061 C   0  0  0  0  0  0  0  0  0  0  0  0
    0.8408   -6.3040    4.9166 C   0  0  0  0  0  0  0  0  0  0  0  0
    0.3328   -5.3318    5.7970 C   0  0  0  0  0  0  0  0  0  0  0  0
    0.9753   -4.0929    5.9524 C   0  0  0  0  0  0  0  0  0  0  0  0
    0.4512   -3.1469    6.7938 O   0  0  0  0  0  0  0  0  0  0  0  0
    2.1750   -3.8297    5.2636 C   0  0  0  0  0  0  0  0  0  0  0  0
    2.7952   -2.6256    5.4622 O   0  0  0  0  0  0  0  0  0  0  0  0
    2.7433   -4.7882    4.3959 C   0  0  0  0  0  0  0  0  0  0  0  0
    4.1018   -4.5976    3.6907 C   0  0  0  0  0  0  0  0  0  0  0  0
    4.5156   -5.5919    2.5740 C   0  0  1  0  0  0  0  0  0  0  0  0
    5.9445   -5.4912    2.1773 N   0  0  0  0  0  0  0  0  0  0  0  0
    6.9173   -6.1958    3.0390 C   0  0  0  0  0  0  0  0  0  0  0  0
    6.3552   -4.8679    1.0345 C   0  0  0  0  0  0  0  0  0  0  0  0
    7.4665   -5.0439    0.5320 O   0  0  0  0  0  0  0  0  0  0  0  0
    5.4357   -3.8807    0.3639 C   0  0  0  0  0  0  0  0  0  0  0  0
    4.9954   -4.0851   -0.9603 C   0  0  0  0  0  0  0  0  0  0  0  0
    4.1611   -3.2345   -1.6053 N   0  0  0  0  0  0  0  0  0  0  0  0
    3.7038   -2.1556   -0.9323 C   0  0  0  0  0  0  0  0  0  0  0  0
    4.0974   -1.8560    0.3843 C   0  0  0  0  0  0  0  0  0  0  0  0
    3.4339   -0.3151    1.2827 Br  0  0  0  0  0  0  0  0  0  0  0  0
    5.0081   -2.7110    1.0247 C   0  0  0  0  0  0  0  0  0  0  0  0
    4.0593   -6.9701    3.0431 C   0  0  2  0  0  0  0  0  0  0  0  0
    4.5332   -8.4464    2.0094 S   0  0  0  0  0  0  0  0  0  0  0  0
    4.5086   -8.0466    0.5337 O   0  0  0  0  0  0  0  0  0  0  0  0
    2.9676   -9.3694    2.4399 C   0  0  0  0  0  0  0  0  0  0  0  0
    2.2376   -8.4871    3.4934 C   0  0  1  0  0  0  0  0  0  0  0  0
    2.8105   -8.8521    4.7460 O   0  0  0  0  0  0  0  0  0  0  0  0
    0.7072   -8.6153    3.6126 C   0  0  1  0  0  0  0  0  0  0  0  0
    0.2065   -7.6929    4.7546 C   0  0  0  0  0  0  0  0  0  0  0  0
   -1.7558   -8.6714    1.2898 H   0  0  0  0  0  0  0  0  0  0  0  0
   -1.9664   -7.9910    2.8902 H   0  0  0  0  0  0  0  0  0  0  0  0
   -1.5587   -9.6955    2.7022 H   0  0  0  0  0  0  0  0  0  0  0  0
   -0.0740   -6.9650    0.7892 H   0  0  0  0  0  0  0  0  0  0  0  0
   -0.2194   -6.2909    2.3978 H   0  0  0  0  0  0  0  0  0  0  0  0
    2.2539   -7.2298    0.9600 H   0  0  0  0  0  0  0  0  0  0  0  0
    1.8848   -5.6342    1.5255 H   0  0  0  0  0  0  0  0  0  0  0  0
   -0.5571   -5.5364    6.3654 H   0  0  0  0  0  0  0  0  0  0  0  0
    1.0452   -2.4080    6.8345 H   0  0  0  0  0  0  0  0  0  0  0  0
    3.5874   -2.5197    4.9568 H   0  0  0  0  0  0  0  0  0  0  0  0
    4.0981   -3.5800    3.3072 H   0  0  0  0  0  0  0  0  0  0  0  0
    4.8605   -4.6417    4.4777 H   0  0  0  0  0  0  0  0  0  0  0  0
    3.9371   -5.3527    1.6889 H   0  0  0  0  0  0  0  0  0  0  0  0
    7.9241   -6.2477    2.6126 H   0  0  0  0  0  0  0  0  0  0  0  0
    6.6423   -7.2336    3.2335 H   0  0  0  0  0  0  0  0  0  0  0  0
    7.0022   -5.7040    4.0113 H   0  0  0  0  0  0  0  0  0  0  0  0
    5.3110   -4.9461   -1.5294 H   0  0  0  0  0  0  0  0  0  0  0  0
    3.0149   -1.5127   -1.4622 H   0  0  0  0  0  0  0  0  0  0  0  0
    5.3648   -2.4771    2.0191 H   0  0  0  0  0  0  0  0  0  0  0  0
    4.4744   -7.1388    4.0340 H   0  0  0  0  0  0  0  0  0  0  0  0
    2.3842   -9.5028    1.5312 H   0  0  0  0  0  0  0  0  0  0  0  0
    3.2007  -10.3691    2.8089 H   0  0  0  0  0  0  0  0  0  0  0  0
    2.5916   -9.7551    4.9462 H   0  0  0  0  0  0  0  0  0  0  0  0
    0.4766   -9.6380    3.9009 H   0  0  0  0  0  0  0  0  0  0  0  0
    0.3716   -8.2094    5.6971 H   0  0  0  0  0  0  0  0  0  0  0  0
   -0.8732   -7.5468    4.6845 H   0  0  0  0  0  0  0  0  0  0  0  0
  1  2  1  0
  1 35  1  0
  1 36  1  0
  1 37  1  0
  2 33  1  0
  2  3  1  0
  3  4  1  0
  3 38  1  0
  3 39  1  0
  5  4  1  6
  4 40  1  0
  4 41  1  0
  5 27  1  0
  5 31  1  0
  5  6  1  0
  6 13  2  0
  6  7  1  0
  7 34  1  0
  7  8  2  0
  8  9  1  0
  8 42  1  0
  9 10  1  0
  9 11  2  0
 10 43  1  0
 11 12  1  0
 11 13  1  0
 12 44  1  0
 13 14  1  0
 14 15  1  0
 14 45  1  0
 14 46  1  0
 15 16  1  0
 15 27  1  0
 15 47  1  6
 16 17  1  0
 16 18  1  0
 17 48  1  0
 17 49  1  0
 17 50  1  0
 18 19  2  0
 18 20  1  0
 20 26  1  0
 20 21  2  0
 21 22  1  0
 21 51  1  0
 22 23  2  0
 23 24  1  0
 23 52  1  0
 24 25  1  0
 24 26  2  0
 26 53  1  0
 27 28  1  0
 27 54  1  1
 28 29  2  0
 28 30  1  6
 30 31  1  0
 30 55  1  0
 30 56  1  0
 31 32  1  1
 31 33  1  0
 32 57  1  0
 33 34  1  0
 33 58  1  1
 34 59  1  0
 34 60  1  0
M  END
>  <i_m_ct_stereo_status>  (84) 
1

>  <s_m_source_file>  (84) 
/var/tmp/pbs.5075288.sched01/tmpq0rgj53d/65gxdktgdh.sdf

>  <i_m_source_file_index>  (84) 
20

>  <i_lp_mmshare_version>  (84) 
48012

>  <i_f3d_flags>  (84) 
0

>  <s_epik_input>  (84) 
W0NIMl0xW0NIMl1OKFtDSDNdKVtDQEhdKFtDSDJdMilbQ0BAXTMoW09IXSlbQ0gyXVtTK10oW08tXSlbQ0BIXTRbQ0BASF0oW0NIMl1jNWMoW09IXSljKFtPSF0pW2NIXWMyYzVbQ0BdMTM0KU4oW0NIM10pQyg9TyljNltjSF1uW2NIXWMoQnIpW2NIXTY=

>  <s_epik_cmdline>  (84) 
J2VwaWtfcHl0aG9uJywgJy1waHQnLCAnMi4wJywgJy1waCcsICc3LjAnLCAnLXRuJywgJzgnLCAnLW1hJywgJzIwMCcsICctaW1hZScsICc8aW5maWxlLm1hZT4nLCAnLW9tYWUnLCAnPG91dGZpbGUubWFlPic=

>  <r_lp_tautomer_probability>  (84) 
1

>  <r_epik_Ionization_Penalty>  (84) 
1.60992

>  <r_epik_Ionization_Penalty_Charging>  (84) 
0

>  <r_epik_Ionization_Penalty_Neutral>  (84) 
1.60992

>  <r_epik_State_Penalty>  (84) 
1.70873

>  <r_epik_Charging_Adjusted_Penalty>  (84) 
1.70873

>  <i_epik_Tot_Q>  (84) 
0

>  <i_epik_Tot_abs_Q>  (84) 
2

>  <s_lp_Force_Field>  (84) 
OPLS3e

>  <r_lp_Energy>  (84) 
74.5496

>  <b_lp_Chiralities_Consistent>  (84) 
1

>  <s_lp_Variant>  (84) 
20:0-2

>  <s_i_glide_gridfile>  (84) 
pfpi4k_grid

>  <i_i_glide_lignum>  (84) 
20

>  <i_i_glide_rotatable_bonds>  (84) 
6

>  <r_i_docking_score>  (84) 
-1.92204

>  <r_i_glide_ligand_efficiency>  (84) 
-0.0565306

>  <r_i_glide_ligand_efficiency_sa>  (84) 
-0.183137

>  <r_i_glide_ligand_efficiency_ln>  (84) 
-0.424633

>  <r_i_glide_gscore>  (84) 
-1.92204

>  <r_i_glide_lipo>  (84) 
-0.2122

>  <r_i_glide_hbond>  (84) 
0

>  <r_i_glide_metal>  (84) 
-0

>  <r_i_glide_rewards>  (84) 
-0.184053

>  <r_i_glide_evdw>  (84) 
-33.297

>  <r_i_glide_ecoul>  (84) 
-0.410043

>  <r_i_glide_erotb>  (84) 
0.206668

>  <r_i_glide_esite>  (84) 
-0.00609742

>  <r_i_glide_emodel>  (84) 
-33.0295

>  <r_i_glide_energy>  (84) 
-33.7071

>  <r_i_glide_einternal>  (84) 
8.93508

>  <r_i_glide_intrahb_reward>  (84) 
-0

>  <i_i_glide_confnum>  (84) 
3

>  <i_i_glide_posenum>  (84) 
8

>  <r_i_glide_eff_state_penalty>  (84) 
0

>  <ligand_id>  (84) 
20

>  <original_smiles>  (84) 
CN1CCC23c4c5cc(O)c(O)c4CC(N(C)C(=O)c4cncc(Br)c4)C2[S+]([O-])CC3(O)C1C5

>  <smiles>  (84) 
[H]Oc1c([H])c2c3c(c1O[H])C([H])([H])C([H])(N(C(=O)c1c([H])nc([H])c(Br)c1[H])C([H])([H])[H])C1([H])S(=O)C([H])([H])C4(O[H])C([H])(N(C([H])([H])[H])C([H])([H])C([H])([H])C314)C2([H])[H]

$$$$
20:1:2
     RDKit          3D

 60 65  0  0  1  0  0  0  0  0999 V2000
   -1.7834   -8.8791    2.3447 C   0  0  0  0  0  0  0  0  0  0  0  0
   -0.3557   -8.5962    2.4165 N   0  0  0  0  0  0  0  0  0  0  0  0
   -0.0352   -7.2624    1.9304 C   0  0  0  0  0  0  0  0  0  0  0  0
    1.4664   -6.9585    1.9699 C   0  0  0  0  0  0  0  0  0  0  0  0
    2.1404   -7.3319    3.3421 C   0  0  2  0  0  0  0  0  0  0  0  0
    1.6395   -6.3432    4.4024 C   0  0  0  0  0  0  0  0  0  0  0  0
    0.4140   -6.6151    5.0701 C   0  0  0  0  0  0  0  0  0  0  0  0
   -0.0917   -5.6472    5.9528 C   0  0  0  0  0  0  0  0  0  0  0  0
    0.5760   -4.4275    6.1554 C   0  0  0  0  0  0  0  0  0  0  0  0
    0.0294   -3.5061    7.0085 O   0  0  0  0  0  0  0  0  0  0  0  0
    1.8029   -4.1806    5.5078 C   0  0  0  0  0  0  0  0  0  0  0  0
    2.4637   -3.0029    5.7395 O   0  0  0  0  0  0  0  0  0  0  0  0
    2.3693   -5.1389    4.6396 C   0  0  0  0  0  0  0  0  0  0  0  0
    3.7540   -4.9716    3.9852 C   0  0  0  0  0  0  0  0  0  0  0  0
    4.1761   -5.9529    2.8616 C   0  0  1  0  0  0  0  0  0  0  0  0
    5.6187   -5.8822    2.5146 N   0  0  0  0  0  0  0  0  0  0  0  0
    6.5435   -6.6166    3.4009 C   0  0  0  0  0  0  0  0  0  0  0  0
    6.0792   -5.2701    1.3863 C   0  0  0  0  0  0  0  0  0  0  0  0
    7.1840   -5.5072    0.8963 O   0  0  0  0  0  0  0  0  0  0  0  0
    5.2262   -4.2219    0.7185 C   0  0  0  0  0  0  0  0  0  0  0  0
    4.8368   -4.3566   -0.6311 C   0  0  0  0  0  0  0  0  0  0  0  0
    4.0648   -3.4493   -1.2740 N   0  0  0  0  0  0  0  0  0  0  0  0
    3.6225   -2.3800   -0.5785 C   0  0  0  0  0  0  0  0  0  0  0  0
    3.9632   -2.1489    0.7662 C   0  0  0  0  0  0  0  0  0  0  0  0
    3.3071   -0.6234    1.6949 Br  0  0  0  0  0  0  0  0  0  0  0  0
    4.8151   -3.0624    1.4090 C   0  0  0  0  0  0  0  0  0  0  0  0
    3.6676   -7.3285    3.2858 C   0  0  2  0  0  0  0  0  0  0  0  0
    4.1379   -8.7945    2.2372 S   0  0  0  0  0  0  0  0  0  0  0  0
    4.1773   -8.3580    0.7721 O   0  0  0  0  0  0  0  0  0  0  0  0
    2.5349   -9.6841    2.5959 C   0  0  0  0  0  0  0  0  0  0  0  0
    1.7927   -8.8056    3.6456 C   0  0  1  0  0  0  0  0  0  0  0  0
    2.3128   -9.2117    4.9082 O   0  0  0  0  0  0  0  0  0  0  0  0
    0.2557   -8.8929    3.7147 C   0  0  1  0  0  0  0  0  0  0  0  0
   -0.2554   -7.9798    4.8590 C   0  0  0  0  0  0  0  0  0  0  0  0
   -2.1199   -8.8341    1.3130 H   0  0  0  0  0  0  0  0  0  0  0  0
   -2.3729   -8.1658    2.9165 H   0  0  0  0  0  0  0  0  0  0  0  0
   -2.0084   -9.8754    2.7159 H   0  0  0  0  0  0  0  0  0  0  0  0
   -0.3865   -7.1646    0.9016 H   0  0  0  0  0  0  0  0  0  0  0  0
   -0.5723   -6.5211    2.5184 H   0  0  0  0  0  0  0  0  0  0  0  0
    1.9233   -7.4977    1.1390 H   0  0  0  0  0  0  0  0  0  0  0  0
    1.5835   -5.9033    1.7277 H   0  0  0  0  0  0  0  0  0  0  0  0
   -1.0062   -5.8441    6.4833 H   0  0  0  0  0  0  0  0  0  0  0  0
   -0.6865   -3.8851    7.4899 H   0  0  0  0  0  0  0  0  0  0  0  0
    3.2736   -2.9137    5.2646 H   0  0  0  0  0  0  0  0  0  0  0  0
    3.7900   -3.9460    3.6255 H   0  0  0  0  0  0  0  0  0  0  0  0
    4.4823   -5.0523    4.7979 H   0  0  0  0  0  0  0  0  0  0  0  0
    3.6344   -5.6757    1.9642 H   0  0  0  0  0  0  0  0  0  0  0  0
    7.5619   -6.6916    3.0084 H   0  0  0  0  0  0  0  0  0  0  0  0
    6.2327   -7.6462    3.5801 H   0  0  0  0  0  0  0  0  0  0  0  0
    6.6089   -6.1304    4.3769 H   0  0  0  0  0  0  0  0  0  0  0  0
    5.1479   -5.2032   -1.2241 H   0  0  0  0  0  0  0  0  0  0  0  0
    2.9985   -1.6815   -1.1149 H   0  0  0  0  0  0  0  0  0  0  0  0
    5.1381   -2.8817    2.4255 H   0  0  0  0  0  0  0  0  0  0  0  0
    4.0470   -7.5305    4.2851 H   0  0  0  0  0  0  0  0  0  0  0  0
    1.9801   -9.7790    1.6655 H   0  0  0  0  0  0  0  0  0  0  0  0
    2.7290  -10.6973    2.9501 H   0  0  0  0  0  0  0  0  0  0  0  0
    2.0412  -10.1028    5.0933 H   0  0  0  0  0  0  0  0  0  0  0  0
   -0.0134   -9.9152    3.9708 H   0  0  0  0  0  0  0  0  0  0  0  0
   -0.1408   -8.5252    5.7940 H   0  0  0  0  0  0  0  0  0  0  0  0
   -1.3286   -7.8023    4.7552 H   0  0  0  0  0  0  0  0  0  0  0  0
  1  2  1  0
  1 35  1  0
  1 36  1  0
  1 37  1  0
  2 33  1  0
  2  3  1  0
  3  4  1  0
  3 38  1  0
  3 39  1  0
  5  4  1  6
  4 40  1  0
  4 41  1  0
  5 27  1  0
  5 31  1  0
  5  6  1  0
  6 13  2  0
  6  7  1  0
  7 34  1  0
  7  8  2  0
  8  9  1  0
  8 42  1  0
  9 10  1  0
  9 11  2  0
 10 43  1  0
 11 12  1  0
 11 13  1  0
 12 44  1  0
 13 14  1  0
 14 15  1  0
 14 45  1  0
 14 46  1  0
 15 16  1  0
 15 27  1  0
 15 47  1  6
 16 17  1  0
 16 18  1  0
 17 48  1  0
 17 49  1  0
 17 50  1  0
 18 19  2  0
 18 20  1  0
 20 26  1  0
 20 21  2  0
 21 22  1  0
 21 51  1  0
 22 23  2  0
 23 24  1  0
 23 52  1  0
 24 25  1  0
 24 26  2  0
 26 53  1  0
 27 28  1  0
 27 54  1  1
 28 29  2  0
 28 30  1  6
 30 31  1  0
 30 55  1  0
 30 56  1  0
 31 32  1  1
 31 33  1  0
 32 57  1  0
 33 34  1  0
 33 58  1  1
 34 59  1  0
 34 60  1  0
M  END
>  <i_m_ct_stereo_status>  (85) 
1

>  <s_m_source_file>  (85) 
/var/tmp/pbs.5075288.sched01/tmpq0rgj53d/65gxdktgdh.sdf

>  <i_m_source_file_index>  (85) 
20

>  <i_lp_mmshare_version>  (85) 
48012

>  <i_f3d_flags>  (85) 
0

>  <s_epik_input>  (85) 
W0NIMl0xW0NIMl1OKFtDSDNdKVtDQEhdKFtDSDJdMilbQ0BAXTMoW09IXSlbQ0gyXVtTK10oW08tXSlbQ0BIXTRbQ0BASF0oW0NIMl1jNWMoW09IXSljKFtPSF0pW2NIXWMyYzVbQ0BdMTM0KU4oW0NIM10pQyg9TyljNltjSF1uW2NIXWMoQnIpW2NIXTY=

>  <s_epik_cmdline>  (85) 
J2VwaWtfcHl0aG9uJywgJy1waHQnLCAnMi4wJywgJy1waCcsICc3LjAnLCAnLXRuJywgJzgnLCAnLW1hJywgJzIwMCcsICctaW1hZScsICc8aW5maWxlLm1hZT4nLCAnLW9tYWUnLCAnPG91dGZpbGUubWFlPic=

>  <r_lp_tautomer_probability>  (85) 
1

>  <r_epik_Ionization_Penalty>  (85) 
1.60992

>  <r_epik_Ionization_Penalty_Charging>  (85) 
0

>  <r_epik_Ionization_Penalty_Neutral>  (85) 
1.60992

>  <r_epik_State_Penalty>  (85) 
1.70873

>  <r_epik_Charging_Adjusted_Penalty>  (85) 
1.70873

>  <i_epik_Tot_Q>  (85) 
0

>  <i_epik_Tot_abs_Q>  (85) 
2

>  <s_lp_Force_Field>  (85) 
OPLS3e

>  <r_lp_Energy>  (85) 
74.5496

>  <b_lp_Chiralities_Consistent>  (85) 
1

>  <s_lp_Variant>  (85) 
20:0-2

>  <s_i_glide_gridfile>  (85) 
pfpi4k_grid

>  <i_i_glide_lignum>  (85) 
20

>  <i_i_glide_rotatable_bonds>  (85) 
6

>  <r_i_docking_score>  (85) 
-1.86992

>  <r_i_glide_ligand_efficiency>  (85) 
-0.0549975

>  <r_i_glide_ligand_efficiency_sa>  (85) 
-0.178171

>  <r_i_glide_ligand_efficiency_ln>  (85) 
-0.413117

>  <r_i_glide_gscore>  (85) 
-1.86992

>  <r_i_glide_lipo>  (85) 
-0.366778

>  <r_i_glide_hbond>  (85) 
0

>  <r_i_glide_metal>  (85) 
-0

>  <r_i_glide_rewards>  (85) 
-0.120473

>  <r_i_glide_evdw>  (85) 
-33.3114

>  <r_i_glide_ecoul>  (85) 
0.643521

>  <r_i_glide_erotb>  (85) 
0.206668

>  <r_i_glide_esite>  (85) 
-0.0202928

>  <r_i_glide_emodel>  (85) 
-31.708

>  <r_i_glide_energy>  (85) 
-32.6679

>  <r_i_glide_einternal>  (85) 
9.17364

>  <r_i_glide_intrahb_reward>  (85) 
-0

>  <i_i_glide_confnum>  (85) 
3

>  <i_i_glide_posenum>  (85) 
33

>  <r_i_glide_eff_state_penalty>  (85) 
0

>  <ligand_id>  (85) 
20

>  <original_smiles>  (85) 
CN1CCC23c4c5cc(O)c(O)c4CC(N(C)C(=O)c4cncc(Br)c4)C2[S+]([O-])CC3(O)C1C5

>  <smiles>  (85) 
[H]Oc1c([H])c2c3c(c1O[H])C([H])([H])C([H])(N(C(=O)c1c([H])nc([H])c(Br)c1[H])C([H])([H])[H])C1([H])S(=O)C([H])([H])C4(O[H])C([H])(N(C([H])([H])[H])C([H])([H])C([H])([H])C314)C2([H])[H]

$$$$
22:0:0
     RDKit          3D

118126  0  0  1  0  0  0  0  0999 V2000
    6.0681   -2.1333   10.9560 C   0  0  0  0  0  0  0  0  0  0  0  0
    4.9241   -1.7177   10.3705 C   0  0  0  0  0  0  0  0  0  0  0  0
    4.5589   -0.2375   10.5230 C   0  0  0  0  0  0  0  0  0  0  0  0
    3.8771   -2.6432    9.6376 C   0  0  1  0  0  0  0  0  0  0  0  0
    3.5820   -2.0473    8.2254 C   0  0  0  0  0  0  0  0  0  0  0  0
    4.3609   -1.2618    7.6900 O   0  0  0  0  0  0  0  0  0  0  0  0
    2.2467   -2.3944    7.5203 C   0  0  1  0  0  0  0  0  0  0  0  0
    2.1358   -1.6690    6.2957 O   0  0  0  0  0  0  0  0  0  0  0  0
    2.0612   -3.9347    7.2258 C   0  0  0  0  0  0  0  0  0  0  0  0
    1.3111   -4.5296    8.0123 O   0  0  0  0  0  0  0  0  0  0  0  0
    2.6747   -4.7785    6.0195 C   0  0  1  0  0  0  0  0  0  0  0  0
    1.7180   -5.8064    5.9641 O   0  0  0  0  0  0  0  0  0  0  0  0
    2.5411   -4.1285    4.6199 C   0  0  2  0  0  0  0  0  0  0  0  0
    1.2937   -4.2365    3.9544 O   0  0  0  0  0  0  0  0  0  0  0  0
    2.3704   -4.9163    3.3261 C   0  0  1  0  0  0  0  0  0  0  0  0
    2.9033   -4.2347    2.0565 C   0  0  0  0  0  0  0  0  0  0  0  0
    2.3040   -6.4899    3.2997 C   0  0  1  0  0  0  0  0  0  0  0  0
    2.0256   -7.0358    1.5325 S   0  0  0  0  0  0  0  0  0  0  0  0
    0.5942   -6.6595    1.1737 O   0  0  0  0  0  0  0  0  0  0  0  0
    2.1436   -8.8656    1.7623 C   0  0  0  0  0  0  0  0  0  0  0  0
    3.5885   -9.2290    2.1619 C   0  0  1  0  0  0  0  0  0  0  0  0
    4.2918   -9.4161    0.9359 O   0  0  0  0  0  0  0  0  0  0  0  0
    4.3250   -8.2452    3.1726 C   0  0  2  0  0  0  0  0  0  0  0  0
    5.2224   -7.5122    2.3354 O   0  0  0  0  0  0  0  0  0  0  0  0
    5.0881   -8.8575    4.4099 C   0  0  2  0  0  0  0  0  0  0  0  0
    4.0081   -9.4247    5.3299 C   0  0  1  0  0  0  0  0  0  0  0  0
    2.8067   -8.5663    4.9297 C   0  0  1  0  0  0  0  0  0  0  0  0
    2.0322   -8.3628    6.0749 O   0  0  0  0  0  0  0  0  0  0  0  0
    3.4054   -7.3487    4.0875 C   0  0  2  0  0  0  0  0  0  0  0  0
    4.4890   -6.4686    4.9049 C   0  0  1  0  0  0  0  0  0  0  0  0
    5.0044   -5.5298    3.9714 O   0  0  0  0  0  0  0  0  0  0  0  0
    4.1066   -5.5331    6.1901 C   0  0  1  0  0  0  0  0  0  0  0  0
    5.3234   -4.5811    6.7074 C   0  0  1  0  0  0  0  0  0  0  0  0
    6.7910   -4.8782    6.2048 C   0  0  0  0  0  0  0  0  0  0  0  0
    5.1770   -3.3343    6.0563 O   0  0  0  0  0  0  0  0  0  0  0  0
    5.5046   -4.4630    8.2949 C   0  0  1  0  0  0  0  0  0  0  0  0
    6.6012   -3.6093    8.5674 O   0  0  0  0  0  0  0  0  0  0  0  0
    4.3664   -4.1349    9.3482 C   0  0  1  0  0  0  0  0  0  0  0  0
    4.6460   -4.8125   10.5783 O   0  0  0  0  0  0  0  0  0  0  0  0
    4.1602   -6.0415   10.8436 C   0  0  0  0  0  0  0  0  0  0  0  0
    4.5441   -6.5182   12.2349 C   0  0  0  0  0  0  0  0  0  0  0  0
    3.4876   -6.7369   10.0828 O   0  0  0  0  0  0  0  0  0  0  0  0
    5.6321   -7.5472    5.0937 C   0  0  1  0  0  0  0  0  0  0  0  0
    5.9965   -7.7234    6.4478 O   0  0  0  0  0  0  0  0  0  0  0  0
    4.0205  -10.9740    5.2191 C   0  0  0  0  0  0  0  0  0  0  0  0
    4.3456  -11.6761    6.5605 C   0  0  0  0  0  0  0  0  0  0  0  0
    2.7315  -11.6534    4.6993 C   0  0  0  0  0  0  0  0  0  0  0  0
    5.1127  -11.2153    4.3218 O   0  0  0  0  0  0  0  0  0  0  0  0
    6.0218  -10.1036    4.2249 C   0  0  0  0  0  0  0  0  0  0  0  0
    6.7314  -10.2504    2.8655 C   0  0  0  0  0  0  0  0  0  0  0  0
    7.1121  -10.2796    5.3076 C   0  0  0  0  0  0  0  0  0  0  0  0
    1.1633   -1.7576    8.4595 C   0  0  1  0  0  0  0  0  0  0  0  0
   -0.1469   -1.9598    7.9450 O   0  0  0  0  0  0  0  0  0  0  0  0
    1.2697   -2.0534    9.9896 C   0  0  1  0  0  0  0  0  0  0  0  0
    0.2130   -1.2965   10.8428 C   0  0  0  0  0  0  0  0  0  0  0  0
    0.3068    0.2428   10.7097 C   0  0  0  0  0  0  0  0  0  0  0  0
    0.1881   -1.6691   12.3421 C   0  0  0  0  0  0  0  0  0  0  0  0
    1.5003   -3.4137   10.3022 O   0  0  0  0  0  0  0  0  0  0  0  0
    2.6027   -2.5767   10.5675 C   0  0  1  0  0  0  0  0  0  0  0  0
    2.9165   -2.5967   12.0686 C   0  0  0  0  0  0  0  0  0  0  0  0
    6.7112   -1.4233   11.4524 H   0  0  0  0  0  0  0  0  0  0  0  0
    6.3859   -3.1595   10.9735 H   0  0  0  0  0  0  0  0  0  0  0  0
    3.4902   -0.0853   10.6786 H   0  0  0  0  0  0  0  0  0  0  0  0
    4.8626    0.3460    9.6563 H   0  0  0  0  0  0  0  0  0  0  0  0
    5.0522    0.1812   11.3993 H   0  0  0  0  0  0  0  0  0  0  0  0
    2.8580   -1.9092    5.7211 H   0  0  0  0  0  0  0  0  0  0  0  0
    2.0252   -6.5061    5.3917 H   0  0  0  0  0  0  0  0  0  0  0  0
    3.0637   -3.1836    4.5089 H   0  0  0  0  0  0  0  0  0  0  0  0
    3.8548   -4.6610    1.7313 H   0  0  0  0  0  0  0  0  0  0  0  0
    3.0658   -3.1729    2.2302 H   0  0  0  0  0  0  0  0  0  0  0  0
    2.1938   -4.3049    1.2339 H   0  0  0  0  0  0  0  0  0  0  0  0
    1.3297   -6.7328    3.7311 H   0  0  0  0  0  0  0  0  0  0  0  0
    1.3680   -9.1577    2.4622 H   0  0  0  0  0  0  0  0  0  0  0  0
    1.8429   -9.3598    0.8425 H   0  0  0  0  0  0  0  0  0  0  0  0
    3.5818  -10.2294    2.5603 H   0  0  0  0  0  0  0  0  0  0  0  0
    4.2153  -10.3332    0.6984 H   0  0  0  0  0  0  0  0  0  0  0  0
    5.7114   -8.1578    1.8311 H   0  0  0  0  0  0  0  0  0  0  0  0
    4.2100   -9.2179    6.3777 H   0  0  0  0  0  0  0  0  0  0  0  0
    2.1428   -9.1634    4.3222 H   0  0  0  0  0  0  0  0  0  0  0  0
    1.7789   -9.2221    6.4012 H   0  0  0  0  0  0  0  0  0  0  0  0
    5.2422   -6.0373    3.1861 H   0  0  0  0  0  0  0  0  0  0  0  0
    3.9541   -6.2358    7.0123 H   0  0  0  0  0  0  0  0  0  0  0  0
    7.2732   -5.6888    6.7470 H   0  0  0  0  0  0  0  0  0  0  0  0
    7.4495   -4.0189    6.3581 H   0  0  0  0  0  0  0  0  0  0  0  0
    6.9274   -5.0540    5.1469 H   0  0  0  0  0  0  0  0  0  0  0  0
    4.4612   -2.8440    6.4515 H   0  0  0  0  0  0  0  0  0  0  0  0
    5.8363   -5.4652    8.5804 H   0  0  0  0  0  0  0  0  0  0  0  0
    6.8766   -3.7511    9.4666 H   0  0  0  0  0  0  0  0  0  0  0  0
    3.5003   -4.6642    8.9912 H   0  0  0  0  0  0  0  0  0  0  0  0
    5.6298   -6.5671   12.3202 H   0  0  0  0  0  0  0  0  0  0  0  0
    4.1329   -7.5095   12.4284 H   0  0  0  0  0  0  0  0  0  0  0  0
    4.1663   -5.8293   12.9922 H   0  0  0  0  0  0  0  0  0  0  0  0
    6.5494   -7.2460    4.5752 H   0  0  0  0  0  0  0  0  0  0  0  0
    6.6985   -8.3671    6.4808 H   0  0  0  0  0  0  0  0  0  0  0  0
    3.4925  -11.6372    7.2384 H   0  0  0  0  0  0  0  0  0  0  0  0
    5.1836  -11.2485    7.1016 H   0  0  0  0  0  0  0  0  0  0  0  0
    4.5723  -12.7301    6.3962 H   0  0  0  0  0  0  0  0  0  0  0  0
    1.9151  -11.5320    5.4109 H   0  0  0  0  0  0  0  0  0  0  0  0
    2.8975  -12.7233    4.5861 H   0  0  0  0  0  0  0  0  0  0  0  0
    2.3559  -11.3042    3.7454 H   0  0  0  0  0  0  0  0  0  0  0  0
    7.2172   -9.3258    2.5574 H   0  0  0  0  0  0  0  0  0  0  0  0
    6.0538  -10.5801    2.0876 H   0  0  0  0  0  0  0  0  0  0  0  0
    7.4977  -11.0248    2.9035 H   0  0  0  0  0  0  0  0  0  0  0  0
    7.9294   -9.5739    5.1563 H   0  0  0  0  0  0  0  0  0  0  0  0
    7.5370  -11.2833    5.2699 H   0  0  0  0  0  0  0  0  0  0  0  0
    6.7504  -10.1366    6.3195 H   0  0  0  0  0  0  0  0  0  0  0  0
    1.2972   -0.6805    8.3462 H   0  0  0  0  0  0  0  0  0  0  0  0
   -0.0845   -1.9241    6.9900 H   0  0  0  0  0  0  0  0  0  0  0  0
   -0.7612   -1.5867   10.4405 H   0  0  0  0  0  0  0  0  0  0  0  0
    1.2512    0.6095   11.1032 H   0  0  0  0  0  0  0  0  0  0  0  0
   -0.4854    0.7335   11.2761 H   0  0  0  0  0  0  0  0  0  0  0  0
    0.2143    0.5960    9.6825 H   0  0  0  0  0  0  0  0  0  0  0  0
    1.0955   -1.3661   12.8592 H   0  0  0  0  0  0  0  0  0  0  0  0
    0.0938   -2.7356   12.4970 H   0  0  0  0  0  0  0  0  0  0  0  0
   -0.6606   -1.2004   12.8430 H   0  0  0  0  0  0  0  0  0  0  0  0
    3.1684   -1.6115   12.4367 H   0  0  0  0  0  0  0  0  0  0  0  0
    3.7910   -3.2192   12.2900 H   0  0  0  0  0  0  0  0  0  0  0  0
    2.0563   -2.9297   12.6359 H   0  0  0  0  0  0  0  0  0  0  0  0
  1  2  2  0
  1 61  1  0
  1 62  1  0
  2  3  1  0
  4  2  1  1
  3 63  1  0
  3 64  1  0
  3 65  1  0
  4 38  1  0
  4 59  1  0
  4  5  1  0
  5  6  2  0
  5  7  1  0
  7  8  1  6
  7  9  1  0
  7 52  1  0
  8 66  1  0
  9 10  2  0
  9 11  1  0
 11 32  1  0
 11 12  1  6
 11 13  1  0
 12 67  1  0
 13 15  1  0
 13 14  1  0
 13 68  1  6
 14 15  1  0
 15 16  1  6
 15 17  1  0
 16 69  1  0
 16 70  1  0
 16 71  1  0
 17 29  1  0
 17 18  1  0
 17 72  1  1
 18 19  2  0
 18 20  1  1
 20 21  1  0
 20 73  1  0
 20 74  1  0
 21 22  1  0
 21 23  1  0
 21 75  1  1
 22 76  1  0
 23 29  1  0
 23 24  1  6
 23 25  1  0
 24 77  1  0
 25 43  1  0
 25 49  1  6
 25 26  1  0
 26 27  1  0
 26 45  1  0
 26 78  1  1
 27 28  1  0
 27 29  1  0
 27 79  1  6
 28 80  1  0
 29 30  1  1
 30 31  1  6
 30 32  1  0
 30 43  1  0
 31 81  1  0
 32 33  1  0
 32 82  1  1
 33 34  1  0
 33 35  1  6
 33 36  1  0
 34 83  1  0
 34 84  1  0
 34 85  1  0
 35 86  1  0
 36 37  1  0
 36 38  1  0
 36 87  1  1
 37 88  1  0
 38 39  1  0
 38 89  1  6
 39 40  1  0
 40 41  1  0
 40 42  2  0
 41 90  1  0
 41 91  1  0
 41 92  1  0
 43 44  1  0
 43 93  1  6
 44 94  1  0
 45 46  1  0
 45 47  1  0
 45 48  1  0
 46 95  1  0
 46 96  1  0
 46 97  1  0
 47 98  1  0
 47 99  1  0
 47100  1  0
 48 49  1  0
 49 50  1  0
 49 51  1  0
 50101  1  0
 50102  1  0
 50103  1  0
 51104  1  0
 51105  1  0
 51106  1  0
 52 53  1  0
 52 54  1  0
 52107  1  1
 53108  1  0
 54 59  1  0
 54 55  1  1
 54 58  1  0
 55 56  1  0
 55 57  1  0
 55109  1  0
 56110  1  0
 56111  1  0
 56112  1  0
 57113  1  0
 57114  1  0
 57115  1  0
 58 59  1  0
 59 60  1  1
 60116  1  0
 60117  1  0
 60118  1  0
M  END
>  <i_m_ct_stereo_status>  (86) 
1

>  <s_m_source_file>  (86) 
/var/tmp/pbs.5075288.sched01/tmpq0rgj53d/65gxdktgdh.sdf

>  <i_m_source_file_index>  (86) 
22

>  <i_lp_mmshare_version>  (86) 
48012

>  <i_f3d_flags>  (86) 
0

>  <s_epik_input>  (86) 
Tz1DMVtDQEBdKFtPSF0pKEMyPU8pW0NAQEhdKFtPSF0pW0NAXShPMykoW0NIXShbQ0gzXSlbQ0gzXSlbQ0BdMyhbQ0gzXSlbQ0BAXTEoQyg9W0NIMl0pW0NIM10pW0NASF0oT0MoPU8pW0NIM10pW0NASF0oW09IXSlbQ0BdKFtDSDNdKShbT0hdKVtDQEhdKFtDQEBdNChbT0hdKVtDQEhdNVtPSF0pW0NAXTIoW09IXSlbQ0BIXShPNilbQ0BAXTYoW0NIM10pW0NAQEhdKFtTK10oW08tXSlbQ0gyXVtDQEhdN1tPSF0pW0NAXTQoW0NAXTcoW0NAQF01ODkpW09IXSlbQ0BIXShbT0hdKVtDQEhdOEMoW0NIM10pKFtDSDNdKU9DOShbQ0gzXSlbQ0gzXQ==

>  <s_epik_cmdline>  (86) 
J2VwaWtfcHl0aG9uJywgJy1waHQnLCAnMi4wJywgJy1waCcsICc3LjAnLCAnLXRuJywgJzgnLCAnLW1hJywgJzIwMCcsICctaW1hZScsICc8aW5maWxlLm1hZT4nLCAnLW9tYWUnLCAnPG91dGZpbGUubWFlPic=

>  <r_lp_tautomer_probability>  (86) 
1

>  <r_epik_Ionization_Penalty>  (86) 
5.35191e-05

>  <r_epik_Ionization_Penalty_Charging>  (86) 
0

>  <r_epik_Ionization_Penalty_Neutral>  (86) 
5.35191e-05

>  <r_epik_State_Penalty>  (86) 
-0

>  <r_epik_Charging_Adjusted_Penalty>  (86) 
0

>  <i_epik_Tot_Q>  (86) 
0

>  <i_epik_Tot_abs_Q>  (86) 
2

>  <s_epik_Chemistry_Notes>  (86) 
This compound has an ester and may undergo hydrolysis at high or low pH.

>  <s_lp_Force_Field>  (86) 
OPLS3e

>  <r_lp_Energy>  (86) 
188.707

>  <b_lp_Chiralities_Consistent>  (86) 
1

>  <s_lp_Variant>  (86) 
22:0-1

>  <s_i_glide_gridfile>  (86) 
pfpi4k_grid

>  <i_i_glide_lignum>  (86) 
22

>  <i_i_glide_rotatable_bonds>  (86) 
14

>  <r_i_docking_score>  (86) 
-3.33723

>  <r_i_glide_ligand_efficiency>  (86) 
-0.0556204

>  <r_i_glide_ligand_efficiency_sa>  (86) 
-0.217747

>  <r_i_glide_ligand_efficiency_ln>  (86) 
-0.655085

>  <r_i_glide_gscore>  (86) 
-3.33723

>  <r_i_glide_lipo>  (86) 
-0.0362049

>  <r_i_glide_hbond>  (86) 
-0.10748

>  <r_i_glide_metal>  (86) 
-0

>  <r_i_glide_rewards>  (86) 
-0.5

>  <r_i_glide_evdw>  (86) 
-23.225

>  <r_i_glide_ecoul>  (86) 
-10.4502

>  <r_i_glide_erotb>  (86) 
0.0579431

>  <r_i_glide_esite>  (86) 
-0.0227003

>  <r_i_glide_emodel>  (86) 
-43.7565

>  <r_i_glide_energy>  (86) 
-33.6752

>  <r_i_glide_einternal>  (86) 
4.46268

>  <r_i_glide_intrahb_reward>  (86) 
-0.5

>  <i_i_glide_confnum>  (86) 
1

>  <i_i_glide_posenum>  (86) 
15

>  <r_i_glide_eff_state_penalty>  (86) 
0

>  <ligand_id>  (86) 
22

>  <original_smiles>  (86) 
C=C(C)C12C(=O)C(O)(C(=O)C3(O)C4OC4(C)C4[S+]([O-])CC(O)C5(O)C67C(C(O)C45C(O)(C3C(C)(O)C(O)C1OC(C)=O)C6O)C(C)(C)OC7(C)C)C(O)C1(C(C)C)OC21C

>  <smiles>  (86) 
[H]OC12C(=O)C3(O[H])C4([H])OC4(C([H])([H])[H])C4([H])S(=O)C([H])([H])C([H])(O[H])C5(O[H])C46C([H])(O[H])C4([H])C(C([H])([H])[H])(C([H])([H])[H])OC(C([H])([H])[H])(C([H])([H])[H])C45C([H])(O[H])C6(O[H])C3([H])C(O[H])(C([H])([H])[H])C([H])(O[H])C([H])(OC(=O)C([H])([H])[H])C(C(=C([H])[H])C([H])([H])[H])(C1=O)C1(C([H])([H])[H])OC1(C([H])(C([H])([H])[H])C([H])([H])[H])C2([H])O[H]

$$$$
22:0:1
     RDKit          3D

118126  0  0  1  0  0  0  0  0999 V2000
    4.2797   -4.6064    8.7026 C   0  0  0  0  0  0  0  0  0  0  0  0
    3.5871   -4.5819    7.5419 C   0  0  0  0  0  0  0  0  0  0  0  0
    2.8721   -5.8649    7.1138 C   0  0  0  0  0  0  0  0  0  0  0  0
    3.5339   -3.3697    6.5379 C   0  0  1  0  0  0  0  0  0  0  0  0
    2.0458   -3.0416    6.2146 C   0  0  0  0  0  0  0  0  0  0  0  0
    1.1457   -3.3916    6.9787 O   0  0  0  0  0  0  0  0  0  0  0  0
    1.6988   -2.3096    4.8942 C   0  0  1  0  0  0  0  0  0  0  0  0
    0.2871   -2.1920    4.7905 O   0  0  0  0  0  0  0  0  0  0  0  0
    2.3295   -0.8587    4.7788 C   0  0  0  0  0  0  0  0  0  0  0  0
    3.3222   -0.7527    4.0502 O   0  0  0  0  0  0  0  0  0  0  0  0
    1.7903    0.4889    5.4460 C   0  0  1  0  0  0  0  0  0  0  0  0
    2.3540    1.4295    4.5723 O   0  0  0  0  0  0  0  0  0  0  0  0
    0.2889    0.7540    5.2725 C   0  0  2  0  0  0  0  0  0  0  0  0
   -0.1670    1.2613    4.0187 O   0  0  0  0  0  0  0  0  0  0  0  0
   -0.3129    2.1595    5.1212 C   0  0  1  0  0  0  0  0  0  0  0  0
   -1.7450    2.3120    5.6244 C   0  0  0  0  0  0  0  0  0  0  0  0
    0.5823    3.4629    5.1106 C   0  0  1  0  0  0  0  0  0  0  0  0
   -0.5521    4.9463    4.9233 S   0  0  0  0  0  0  0  0  0  0  0  0
   -1.1264    4.9667    3.5321 O   0  0  0  0  0  0  0  0  0  0  0  0
    0.6806    6.3232    5.0609 C   0  0  0  0  0  0  0  0  0  0  0  0
    1.1599    6.3418    6.5205 C   0  0  1  0  0  0  0  0  0  0  0  0
    0.1884    7.1599    7.1640 O   0  0  0  0  0  0  0  0  0  0  0  0
    1.4069    4.9349    7.2290 C   0  0  2  0  0  0  0  0  0  0  0  0
    0.2964    4.8168    8.1288 O   0  0  0  0  0  0  0  0  0  0  0  0
    2.7524    4.6890    8.0176 C   0  0  2  0  0  0  0  0  0  0  0  0
    3.8549    4.6666    6.9626 C   0  0  1  0  0  0  0  0  0  0  0  0
    3.0728    4.2287    5.7236 C   0  0  1  0  0  0  0  0  0  0  0  0
    3.9355    3.4698    4.9138 O   0  0  0  0  0  0  0  0  0  0  0  0
    1.6646    3.6901    6.2738 C   0  0  2  0  0  0  0  0  0  0  0  0
    1.7986    2.4620    7.3211 C   0  0  1  0  0  0  0  0  0  0  0  0
    0.4840    2.2355    7.8204 O   0  0  0  0  0  0  0  0  0  0  0  0
    2.3205    0.9647    6.9055 C   0  0  1  0  0  0  0  0  0  0  0  0
    2.1671   -0.1668    8.0680 C   0  0  1  0  0  0  0  0  0  0  0  0
    1.9030    0.3269    9.5403 C   0  0  0  0  0  0  0  0  0  0  0  0
    0.9178   -0.8052    7.8549 O   0  0  0  0  0  0  0  0  0  0  0  0
    3.3970   -1.1853    8.2582 C   0  0  1  0  0  0  0  0  0  0  0  0
    3.1149   -2.0802    9.3233 O   0  0  0  0  0  0  0  0  0  0  0  0
    4.1198   -1.9887    7.0957 C   0  0  1  0  0  0  0  0  0  0  0  0
    5.5231   -2.1095    7.3766 O   0  0  0  0  0  0  0  0  0  0  0  0
    6.4622   -1.1883    7.0369 C   0  0  0  0  0  0  0  0  0  0  0  0
    5.9438    0.0806    6.3619 C   0  0  0  0  0  0  0  0  0  0  0  0
    7.6659   -1.3201    7.2886 O   0  0  0  0  0  0  0  0  0  0  0  0
    2.5594    3.1995    8.5016 C   0  0  1  0  0  0  0  0  0  0  0  0
    3.7611    2.5453    8.8818 O   0  0  0  0  0  0  0  0  0  0  0  0
    4.6404    6.0052    7.0434 C   0  0  0  0  0  0  0  0  0  0  0  0
    6.1332    5.8036    7.3975 C   0  0  0  0  0  0  0  0  0  0  0  0
    4.6353    6.9052    5.7853 C   0  0  0  0  0  0  0  0  0  0  0  0
    4.0174    6.6707    8.1469 O   0  0  0  0  0  0  0  0  0  0  0  0
    3.2793    5.7815    9.0050 C   0  0  0  0  0  0  0  0  0  0  0  0
    2.2280    6.6497    9.7179 C   0  0  0  0  0  0  0  0  0  0  0  0
    4.2410    5.2666   10.1006 C   0  0  0  0  0  0  0  0  0  0  0  0
    2.1421   -3.3244    3.7701 C   0  0  1  0  0  0  0  0  0  0  0  0
    1.8851   -2.7818    2.4804 O   0  0  0  0  0  0  0  0  0  0  0  0
    3.5606   -3.9457    3.9023 C   0  0  1  0  0  0  0  0  0  0  0  0
    3.8712   -5.0314    2.8395 C   0  0  0  0  0  0  0  0  0  0  0  0
    4.6157   -6.2898    3.3262 C   0  0  0  0  0  0  0  0  0  0  0  0
    4.5740   -4.4950    1.5816 C   0  0  0  0  0  0  0  0  0  0  0  0
    4.5818   -2.9964    4.2116 O   0  0  0  0  0  0  0  0  0  0  0  0
    4.3092   -3.8902    5.2655 C   0  0  1  0  0  0  0  0  0  0  0  0
    5.5859   -4.6704    5.5807 C   0  0  0  0  0  0  0  0  0  0  0  0
    4.2772   -5.4893    9.3192 H   0  0  0  0  0  0  0  0  0  0  0  0
    4.8517   -3.7691    9.0603 H   0  0  0  0  0  0  0  0  0  0  0  0
    2.9278   -6.0264    6.0347 H   0  0  0  0  0  0  0  0  0  0  0  0
    1.8224   -5.8482    7.4062 H   0  0  0  0  0  0  0  0  0  0  0  0
    3.3465   -6.7276    7.5846 H   0  0  0  0  0  0  0  0  0  0  0  0
    0.0747   -1.8198    3.9392 H   0  0  0  0  0  0  0  0  0  0  0  0
    3.2814    1.2332    4.4630 H   0  0  0  0  0  0  0  0  0  0  0  0
   -0.3620    0.0213    5.7383 H   0  0  0  0  0  0  0  0  0  0  0  0
   -1.8002    2.8194    6.5946 H   0  0  0  0  0  0  0  0  0  0  0  0
   -2.2066    1.3343    5.7479 H   0  0  0  0  0  0  0  0  0  0  0  0
   -2.3642    2.8567    4.9115 H   0  0  0  0  0  0  0  0  0  0  0  0
    1.0998    3.4450    4.1460 H   0  0  0  0  0  0  0  0  0  0  0  0
    1.4333    6.1910    4.2992 H   0  0  0  0  0  0  0  0  0  0  0  0
    0.1835    7.2529    4.7919 H   0  0  0  0  0  0  0  0  0  0  0  0
    2.0553    6.9396    6.5816 H   0  0  0  0  0  0  0  0  0  0  0  0
    0.4989    7.3109    8.0469 H   0  0  0  0  0  0  0  0  0  0  0  0
    0.3105    3.9282    8.4862 H   0  0  0  0  0  0  0  0  0  0  0  0
    4.5936    3.8964    7.1595 H   0  0  0  0  0  0  0  0  0  0  0  0
    2.9110    5.0834    5.0934 H   0  0  0  0  0  0  0  0  0  0  0  0
    4.1760    2.6970    5.4056 H   0  0  0  0  0  0  0  0  0  0  0  0
   -0.0430    1.8601    7.1279 H   0  0  0  0  0  0  0  0  0  0  0  0
    3.3919    1.1060    6.7660 H   0  0  0  0  0  0  0  0  0  0  0  0
    2.8021    0.6668   10.0483 H   0  0  0  0  0  0  0  0  0  0  0  0
    1.5280   -0.4792   10.1736 H   0  0  0  0  0  0  0  0  0  0  0  0
    1.1341    1.0728    9.6806 H   0  0  0  0  0  0  0  0  0  0  0  0
    0.9519   -1.3658    7.0874 H   0  0  0  0  0  0  0  0  0  0  0  0
    4.1899   -0.5536    8.6552 H   0  0  0  0  0  0  0  0  0  0  0  0
    2.4539   -2.6943    9.0260 H   0  0  0  0  0  0  0  0  0  0  0  0
    4.1424   -1.3404    6.2439 H   0  0  0  0  0  0  0  0  0  0  0  0
    5.4635   -0.1455    5.4045 H   0  0  0  0  0  0  0  0  0  0  0  0
    6.7372    0.8019    6.1889 H   0  0  0  0  0  0  0  0  0  0  0  0
    5.2281    0.5587    7.0283 H   0  0  0  0  0  0  0  0  0  0  0  0
    1.9395    3.2094    9.4030 H   0  0  0  0  0  0  0  0  0  0  0  0
    4.3573    2.5462    8.1455 H   0  0  0  0  0  0  0  0  0  0  0  0
    6.6906    5.4174    6.5448 H   0  0  0  0  0  0  0  0  0  0  0  0
    6.3102    5.1152    8.2178 H   0  0  0  0  0  0  0  0  0  0  0  0
    6.5884    6.7555    7.6753 H   0  0  0  0  0  0  0  0  0  0  0  0
    5.1728    6.4269    4.9681 H   0  0  0  0  0  0  0  0  0  0  0  0
    5.1416    7.8481    5.9949 H   0  0  0  0  0  0  0  0  0  0  0  0
    3.6606    7.1681    5.3932 H   0  0  0  0  0  0  0  0  0  0  0  0
    1.4387    6.0473   10.1607 H   0  0  0  0  0  0  0  0  0  0  0  0
    1.7905    7.3835    9.0512 H   0  0  0  0  0  0  0  0  0  0  0  0
    2.6801    7.2295   10.5224 H   0  0  0  0  0  0  0  0  0  0  0  0
    3.6927    4.7428   10.8833 H   0  0  0  0  0  0  0  0  0  0  0  0
    4.7716    6.0957   10.5721 H   0  0  0  0  0  0  0  0  0  0  0  0
    4.9938    4.5781    9.7332 H   0  0  0  0  0  0  0  0  0  0  0  0
    1.4536   -4.1690    3.8285 H   0  0  0  0  0  0  0  0  0  0  0  0
    2.4623   -2.0379    2.3412 H   0  0  0  0  0  0  0  0  0  0  0  0
    2.8746   -5.3696    2.4858 H   0  0  0  0  0  0  0  0  0  0  0  0
    5.5906   -6.0666    3.5886 H   0  0  0  0  0  0  0  0  0  0  0  0
    4.5136   -7.1036    2.5712 H   0  0  0  0  0  0  0  0  0  0  0  0
    4.1284   -6.7217    4.2032 H   0  0  0  0  0  0  0  0  0  0  0  0
    5.5868   -4.1659    1.8258 H   0  0  0  0  0  0  0  0  0  0  0  0
    4.0576   -3.6637    1.1190 H   0  0  0  0  0  0  0  0  0  0  0  0
    4.6717   -5.2780    0.8259 H   0  0  0  0  0  0  0  0  0  0  0  0
    5.3508   -5.7215    5.7748 H   0  0  0  0  0  0  0  0  0  0  0  0
    6.0751   -4.2729    6.4580 H   0  0  0  0  0  0  0  0  0  0  0  0
    6.2350   -4.6975    4.7081 H   0  0  0  0  0  0  0  0  0  0  0  0
  1  2  2  0
  1 61  1  0
  1 62  1  0
  2  3  1  0
  4  2  1  1
  3 63  1  0
  3 64  1  0
  3 65  1  0
  4 38  1  0
  4 59  1  0
  4  5  1  0
  5  6  2  0
  5  7  1  0
  7  8  1  1
  7  9  1  0
  7 52  1  0
  8 66  1  0
  9 10  2  0
  9 11  1  0
 11 32  1  0
 11 12  1  6
 11 13  1  0
 12 67  1  0
 13 15  1  0
 13 14  1  0
 13 68  1  1
 14 15  1  0
 15 16  1  1
 15 17  1  0
 16 69  1  0
 16 70  1  0
 16 71  1  0
 17 29  1  0
 17 18  1  0
 17 72  1  6
 18 19  2  0
 18 20  1  6
 20 21  1  0
 20 73  1  0
 20 74  1  0
 21 22  1  0
 21 23  1  0
 21 75  1  6
 22 76  1  0
 23 29  1  0
 23 24  1  1
 23 25  1  0
 24 77  1  0
 25 43  1  0
 25 49  1  1
 25 26  1  0
 26 27  1  0
 26 45  1  0
 26 78  1  1
 27 28  1  0
 27 29  1  0
 27 79  1  6
 28 80  1  0
 29 30  1  1
 30 31  1  1
 30 32  1  0
 30 43  1  0
 31 81  1  0
 32 33  1  0
 32 82  1  6
 33 34  1  0
 33 35  1  6
 33 36  1  0
 34 83  1  0
 34 84  1  0
 34 85  1  0
 35 86  1  0
 36 37  1  0
 36 38  1  0
 36 87  1  1
 37 88  1  0
 38 39  1  0
 38 89  1  6
 39 40  1  0
 40 41  1  0
 40 42  2  0
 41 90  1  0
 41 91  1  0
 41 92  1  0
 43 44  1  0
 43 93  1  1
 44 94  1  0
 45 46  1  0
 45 47  1  0
 45 48  1  0
 46 95  1  0
 46 96  1  0
 46 97  1  0
 47 98  1  0
 47 99  1  0
 47100  1  0
 48 49  1  0
 49 50  1  0
 49 51  1  0
 50101  1  0
 50102  1  0
 50103  1  0
 51104  1  0
 51105  1  0
 51106  1  0
 52 53  1  0
 52 54  1  0
 52107  1  1
 53108  1  0
 54 59  1  0
 54 55  1  6
 54 58  1  0
 55 56  1  0
 55 57  1  0
 55109  1  0
 56110  1  0
 56111  1  0
 56112  1  0
 57113  1  0
 57114  1  0
 57115  1  0
 58 59  1  0
 59 60  1  1
 60116  1  0
 60117  1  0
 60118  1  0
M  END
>  <i_m_ct_stereo_status>  (87) 
1

>  <s_m_source_file>  (87) 
/var/tmp/pbs.5075288.sched01/tmpq0rgj53d/65gxdktgdh.sdf

>  <i_m_source_file_index>  (87) 
22

>  <i_lp_mmshare_version>  (87) 
48012

>  <i_f3d_flags>  (87) 
0

>  <s_epik_input>  (87) 
Tz1DMVtDQEBdKFtPSF0pKEMyPU8pW0NAQEhdKFtPSF0pW0NAXShPMykoW0NIXShbQ0gzXSlbQ0gzXSlbQ0BdMyhbQ0gzXSlbQ0BAXTEoQyg9W0NIMl0pW0NIM10pW0NASF0oT0MoPU8pW0NIM10pW0NASF0oW09IXSlbQ0BdKFtDSDNdKShbT0hdKVtDQEhdKFtDQEBdNChbT0hdKVtDQEhdNVtPSF0pW0NAXTIoW09IXSlbQ0BIXShPNilbQ0BAXTYoW0NIM10pW0NAQEhdKFtTK10oW08tXSlbQ0gyXVtDQEhdN1tPSF0pW0NAXTQoW0NAXTcoW0NAQF01ODkpW09IXSlbQ0BIXShbT0hdKVtDQEhdOEMoW0NIM10pKFtDSDNdKU9DOShbQ0gzXSlbQ0gzXQ==

>  <s_epik_cmdline>  (87) 
J2VwaWtfcHl0aG9uJywgJy1waHQnLCAnMi4wJywgJy1waCcsICc3LjAnLCAnLXRuJywgJzgnLCAnLW1hJywgJzIwMCcsICctaW1hZScsICc8aW5maWxlLm1hZT4nLCAnLW9tYWUnLCAnPG91dGZpbGUubWFlPic=

>  <r_lp_tautomer_probability>  (87) 
1

>  <r_epik_Ionization_Penalty>  (87) 
5.35191e-05

>  <r_epik_Ionization_Penalty_Charging>  (87) 
0

>  <r_epik_Ionization_Penalty_Neutral>  (87) 
5.35191e-05

>  <r_epik_State_Penalty>  (87) 
-0

>  <r_epik_Charging_Adjusted_Penalty>  (87) 
0

>  <i_epik_Tot_Q>  (87) 
0

>  <i_epik_Tot_abs_Q>  (87) 
2

>  <s_epik_Chemistry_Notes>  (87) 
This compound has an ester and may undergo hydrolysis at high or low pH.

>  <s_lp_Force_Field>  (87) 
OPLS3e

>  <r_lp_Energy>  (87) 
188.707

>  <b_lp_Chiralities_Consistent>  (87) 
1

>  <s_lp_Variant>  (87) 
22:0-1

>  <s_i_glide_gridfile>  (87) 
pfpi4k_grid

>  <i_i_glide_lignum>  (87) 
22

>  <i_i_glide_rotatable_bonds>  (87) 
14

>  <r_i_docking_score>  (87) 
-2.84901

>  <r_i_glide_ligand_efficiency>  (87) 
-0.0474835

>  <r_i_glide_ligand_efficiency_sa>  (87) 
-0.185892

>  <r_i_glide_ligand_efficiency_ln>  (87) 
-0.559249

>  <r_i_glide_gscore>  (87) 
-2.84901

>  <r_i_glide_lipo>  (87) 
-0.0906568

>  <r_i_glide_hbond>  (87) 
-0.159211

>  <r_i_glide_metal>  (87) 
-0

>  <r_i_glide_rewards>  (87) 
-1.04538

>  <r_i_glide_evdw>  (87) 
-22.7546

>  <r_i_glide_ecoul>  (87) 
-2.77661

>  <r_i_glide_erotb>  (87) 
0.0579431

>  <r_i_glide_esite>  (87) 
-0.0574823

>  <r_i_glide_emodel>  (87) 
-37.7305

>  <r_i_glide_energy>  (87) 
-25.5312

>  <r_i_glide_einternal>  (87) 
7.72719

>  <r_i_glide_intrahb_reward>  (87) 
-1

>  <i_i_glide_confnum>  (87) 
1

>  <i_i_glide_posenum>  (87) 
6

>  <r_i_glide_eff_state_penalty>  (87) 
0

>  <ligand_id>  (87) 
22

>  <original_smiles>  (87) 
C=C(C)C12C(=O)C(O)(C(=O)C3(O)C4OC4(C)C4[S+]([O-])CC(O)C5(O)C67C(C(O)C45C(O)(C3C(C)(O)C(O)C1OC(C)=O)C6O)C(C)(C)OC7(C)C)C(O)C1(C(C)C)OC21C

>  <smiles>  (87) 
[H]OC12C(=O)C3(O[H])C4([H])OC4(C([H])([H])[H])C4([H])S(=O)C([H])([H])C([H])(O[H])C5(O[H])C46C([H])(O[H])C4([H])C(C([H])([H])[H])(C([H])([H])[H])OC(C([H])([H])[H])(C([H])([H])[H])C45C([H])(O[H])C6(O[H])C3([H])C(O[H])(C([H])([H])[H])C([H])(O[H])C([H])(OC(=O)C([H])([H])[H])C(C(=C([H])[H])C([H])([H])[H])(C1=O)C1(C([H])([H])[H])OC1(C([H])(C([H])([H])[H])C([H])([H])[H])C2([H])O[H]

$$$$
22:0:2
     RDKit          3D

118126  0  0  1  0  0  0  0  0999 V2000
    6.1793    0.3650    9.1063 C   0  0  0  0  0  0  0  0  0  0  0  0
    5.3205    0.7951    8.1600 C   0  0  0  0  0  0  0  0  0  0  0  0
    5.5056    2.2183    7.6312 C   0  0  0  0  0  0  0  0  0  0  0  0
    4.0888   -0.0119    7.6014 C   0  0  1  0  0  0  0  0  0  0  0  0
    4.1595   -0.0447    6.0508 C   0  0  0  0  0  0  0  0  0  0  0  0
    5.2242    0.1833    5.4563 O   0  0  0  0  0  0  0  0  0  0  0  0
    2.8627   -0.2704    5.2244 C   0  0  1  0  0  0  0  0  0  0  0  0
    3.1876   -0.2032    3.8395 O   0  0  0  0  0  0  0  0  0  0  0  0
    2.1632   -1.6601    5.5181 C   0  0  0  0  0  0  0  0  0  0  0  0
    1.1901   -1.6152    6.2771 O   0  0  0  0  0  0  0  0  0  0  0  0
    2.5344   -3.0848    4.9016 C   0  0  1  0  0  0  0  0  0  0  0  0
    1.2782   -3.7159    5.0049 O   0  0  0  0  0  0  0  0  0  0  0  0
    2.7937   -3.1147    3.3876 C   0  0  2  0  0  0  0  0  0  0  0  0
    1.6505   -3.1377    2.5157 O   0  0  0  0  0  0  0  0  0  0  0  0
    2.4777   -4.3138    2.4818 C   0  0  1  0  0  0  0  0  0  0  0  0
    3.3009   -4.4476    1.2130 C   0  0  0  0  0  0  0  0  0  0  0  0
    1.8218   -5.6361    3.0255 C   0  0  1  0  0  0  0  0  0  0  0  0
    1.5154   -6.8213    1.6092 S   0  0  0  0  0  0  0  0  0  0  0  0
    0.3202   -6.2484    0.8374 O   0  0  0  0  0  0  0  0  0  0  0  0
    0.9465   -8.3078    2.5386 C   0  0  0  0  0  0  0  0  0  0  0  0
    2.1287   -8.8441    3.3810 C   0  0  1  0  0  0  0  0  0  0  0  0
    2.8371   -9.6925    2.4917 O   0  0  0  0  0  0  0  0  0  0  0  0
    3.0708   -7.7740    4.0806 C   0  0  2  0  0  0  0  0  0  0  0  0
    4.2517   -7.7828    3.2696 O   0  0  0  0  0  0  0  0  0  0  0  0
    3.4463   -7.9620    5.6035 C   0  0  2  0  0  0  0  0  0  0  0  0
    2.1460   -7.7285    6.3778 C   0  0  1  0  0  0  0  0  0  0  0  0
    1.3889   -6.8333    5.4011 C   0  0  1  0  0  0  0  0  0  0  0  0
    0.6383   -5.9306    6.1695 O   0  0  0  0  0  0  0  0  0  0  0  0
    2.4686   -6.3314    4.3249 C   0  0  2  0  0  0  0  0  0  0  0  0
    3.7136   -5.5267    4.9826 C   0  0  1  0  0  0  0  0  0  0  0  0
    4.6240   -5.3262    3.9046 O   0  0  0  0  0  0  0  0  0  0  0  0
    3.5793   -4.0577    5.6827 C   0  0  1  0  0  0  0  0  0  0  0  0
    5.0084   -3.3646    6.0636 C   0  0  1  0  0  0  0  0  0  0  0  0
    6.2945   -4.2743    6.0868 C   0  0  0  0  0  0  0  0  0  0  0  0
    5.3899   -2.5351    4.9824 O   0  0  0  0  0  0  0  0  0  0  0  0
    5.0953   -2.6074    7.4797 C   0  0  1  0  0  0  0  0  0  0  0  0
    6.3969   -2.0569    7.6532 O   0  0  0  0  0  0  0  0  0  0  0  0
    4.0263   -1.5575    8.0231 C   0  0  1  0  0  0  0  0  0  0  0  0
    3.8906   -1.6949    9.4451 O   0  0  0  0  0  0  0  0  0  0  0  0
    3.0733   -2.5924   10.0495 C   0  0  0  0  0  0  0  0  0  0  0  0
    2.3409   -3.5703    9.1372 C   0  0  0  0  0  0  0  0  0  0  0  0
    2.9440   -2.6557   11.2790 O   0  0  0  0  0  0  0  0  0  0  0  0
    4.3562   -6.6978    5.8360 C   0  0  1  0  0  0  0  0  0  0  0  0
    4.4935   -6.3577    7.2011 O   0  0  0  0  0  0  0  0  0  0  0  0
    1.6124   -9.1061    6.8707 C   0  0  0  0  0  0  0  0  0  0  0  0
    1.5396   -9.2020    8.4164 C   0  0  0  0  0  0  0  0  0  0  0  0
    0.2176   -9.5456    6.3665 C   0  0  0  0  0  0  0  0  0  0  0  0
    2.6242  -10.0041    6.4125 O   0  0  0  0  0  0  0  0  0  0  0  0
    3.8812   -9.3716    6.1262 C   0  0  0  0  0  0  0  0  0  0  0  0
    4.6128  -10.2954    5.1393 C   0  0  0  0  0  0  0  0  0  0  0  0
    4.7267   -9.3566    7.4223 C   0  0  0  0  0  0  0  0  0  0  0  0
    1.9832    1.0006    5.5776 C   0  0  1  0  0  0  0  0  0  0  0  0
    0.7287    0.9799    4.8968 O   0  0  0  0  0  0  0  0  0  0  0  0
    1.8515    1.3824    7.0822 C   0  0  1  0  0  0  0  0  0  0  0  0
    1.0528    2.6907    7.2909 C   0  0  0  0  0  0  0  0  0  0  0  0
    1.7038    3.9179    6.6158 C   0  0  0  0  0  0  0  0  0  0  0  0
    0.7196    3.0907    8.7432 C   0  0  0  0  0  0  0  0  0  0  0  0
    1.5339    0.2870    7.9416 O   0  0  0  0  0  0  0  0  0  0  0  0
    2.8469    0.8181    8.1122 C   0  0  1  0  0  0  0  0  0  0  0  0
    2.9617    1.3071    9.5442 C   0  0  0  0  0  0  0  0  0  0  0  0
    6.9875    0.9918    9.4415 H   0  0  0  0  0  0  0  0  0  0  0  0
    6.0992   -0.6031    9.5677 H   0  0  0  0  0  0  0  0  0  0  0  0
    4.5519    2.7169    7.4518 H   0  0  0  0  0  0  0  0  0  0  0  0
    6.0789    2.2397    6.7058 H   0  0  0  0  0  0  0  0  0  0  0  0
    6.0334    2.8244    8.3687 H   0  0  0  0  0  0  0  0  0  0  0  0
    3.5190    0.6633    3.6487 H   0  0  0  0  0  0  0  0  0  0  0  0
    1.3609   -4.6418    4.8258 H   0  0  0  0  0  0  0  0  0  0  0  0
    3.6216   -2.5021    3.0417 H   0  0  0  0  0  0  0  0  0  0  0  0
    4.0610   -5.2301    1.3059 H   0  0  0  0  0  0  0  0  0  0  0  0
    3.8202   -3.5144    1.0029 H   0  0  0  0  0  0  0  0  0  0  0  0
    2.6784   -4.6601    0.3429 H   0  0  0  0  0  0  0  0  0  0  0  0
    0.7909   -5.3737    3.2843 H   0  0  0  0  0  0  0  0  0  0  0  0
    0.0548   -8.0191    3.0788 H   0  0  0  0  0  0  0  0  0  0  0  0
    0.5936   -9.0378    1.8189 H   0  0  0  0  0  0  0  0  0  0  0  0
    1.7221   -9.5242    4.1111 H   0  0  0  0  0  0  0  0  0  0  0  0
    2.2660  -10.4074    2.2480 H   0  0  0  0  0  0  0  0  0  0  0  0
    4.4535   -8.7013    3.1169 H   0  0  0  0  0  0  0  0  0  0  0  0
    2.3102   -7.1534    7.2832 H   0  0  0  0  0  0  0  0  0  0  0  0
    0.6114   -7.4185    4.9362 H   0  0  0  0  0  0  0  0  0  0  0  0
    0.0951   -6.4428    6.7491 H   0  0  0  0  0  0  0  0  0  0  0  0
    4.7327   -6.1793    3.4771 H   0  0  0  0  0  0  0  0  0  0  0  0
    3.0801   -4.2821    6.6194 H   0  0  0  0  0  0  0  0  0  0  0  0
    6.3810   -4.8687    6.9929 H   0  0  0  0  0  0  0  0  0  0  0  0
    7.2088   -3.6787    6.0692 H   0  0  0  0  0  0  0  0  0  0  0  0
    6.4589   -4.9232    5.2371 H   0  0  0  0  0  0  0  0  0  0  0  0
    4.7595   -1.8480    4.8302 H   0  0  0  0  0  0  0  0  0  0  0  0
    5.0565   -3.4229    8.2060 H   0  0  0  0  0  0  0  0  0  0  0  0
    6.4974   -1.3217    7.0636 H   0  0  0  0  0  0  0  0  0  0  0  0
    3.0649   -1.9114    7.7053 H   0  0  0  0  0  0  0  0  0  0  0  0
    1.6721   -3.0473    8.4485 H   0  0  0  0  0  0  0  0  0  0  0  0
    1.7672   -4.2782    9.7055 H   0  0  0  0  0  0  0  0  0  0  0  0
    3.0666   -4.1364    8.5624 H   0  0  0  0  0  0  0  0  0  0  0  0
    5.3666   -6.9357    5.4907 H   0  0  0  0  0  0  0  0  0  0  0  0
    4.9114   -7.0821    7.6412 H   0  0  0  0  0  0  0  0  0  0  0  0
    0.6976   -8.6305    8.8080 H   0  0  0  0  0  0  0  0  0  0  0  0
    2.4231   -8.8403    8.9366 H   0  0  0  0  0  0  0  0  0  0  0  0
    1.3945  -10.2412    8.7231 H   0  0  0  0  0  0  0  0  0  0  0  0
   -0.5637   -8.9038    6.7673 H   0  0  0  0  0  0  0  0  0  0  0  0
   -0.0009  -10.5601    6.7033 H   0  0  0  0  0  0  0  0  0  0  0  0
    0.0835   -9.5582    5.2913 H   0  0  0  0  0  0  0  0  0  0  0  0
    5.4307   -9.7926    4.6322 H   0  0  0  0  0  0  0  0  0  0  0  0
    3.9385  -10.7169    4.4039 H   0  0  0  0  0  0  0  0  0  0  0  0
    5.0333  -11.1587    5.6541 H   0  0  0  0  0  0  0  0  0  0  0  0
    5.7552   -9.0596    7.2197 H   0  0  0  0  0  0  0  0  0  0  0  0
    4.7612  -10.3518    7.8694 H   0  0  0  0  0  0  0  0  0  0  0  0
    4.3499   -8.6898    8.1897 H   0  0  0  0  0  0  0  0  0  0  0  0
    2.5130    1.8249    5.0957 H   0  0  0  0  0  0  0  0  0  0  0  0
    0.4011    1.8609    4.8067 H   0  0  0  0  0  0  0  0  0  0  0  0
    0.0835    2.5408    6.7983 H   0  0  0  0  0  0  0  0  0  0  0  0
    2.6697    4.1262    7.0562 H   0  0  0  0  0  0  0  0  0  0  0  0
    1.1020    4.8204    6.7461 H   0  0  0  0  0  0  0  0  0  0  0  0
    1.8505    3.8071    5.5417 H   0  0  0  0  0  0  0  0  0  0  0  0
    1.6356    3.3009    9.3311 H   0  0  0  0  0  0  0  0  0  0  0  0
    0.2532    2.2540    9.3059 H   0  0  0  0  0  0  0  0  0  0  0  0
    0.0215    3.8861    8.7703 H   0  0  0  0  0  0  0  0  0  0  0  0
    3.4997    2.2668    9.5820 H   0  0  0  0  0  0  0  0  0  0  0  0
    3.5884    0.6743   10.1377 H   0  0  0  0  0  0  0  0  0  0  0  0
    2.0099    1.5164    9.9899 H   0  0  0  0  0  0  0  0  0  0  0  0
  1  2  2  0
  1 61  1  0
  1 62  1  0
  2  3  1  0
  4  2  1  1
  3 63  1  0
  3 64  1  0
  3 65  1  0
  4 38  1  0
  4 59  1  0
  4  5  1  0
  5  6  2  0
  5  7  1  0
  7  8  1  6
  7  9  1  0
  7 52  1  0
  8 66  1  0
  9 10  2  0
  9 11  1  0
 11 32  1  0
 11 12  1  6
 11 13  1  0
 12 67  1  0
 13 15  1  0
 13 14  1  0
 13 68  1  6
 14 15  1  0
 15 16  1  6
 15 17  1  0
 16 69  1  0
 16 70  1  0
 16 71  1  0
 17 29  1  0
 17 18  1  0
 17 72  1  1
 18 19  2  0
 18 20  1  1
 20 21  1  0
 20 73  1  0
 20 74  1  0
 21 22  1  0
 21 23  1  0
 21 75  1  1
 22 76  1  0
 23 29  1  0
 23 24  1  6
 23 25  1  0
 24 77  1  0
 25 43  1  0
 25 49  1  6
 25 26  1  0
 26 27  1  0
 26 45  1  0
 26 78  1  1
 27 28  1  0
 27 29  1  0
 27 79  1  6
 28 80  1  0
 29 30  1  1
 30 31  1  6
 30 32  1  0
 30 43  1  0
 31 81  1  0
 32 33  1  0
 32 82  1  1
 33 34  1  0
 33 35  1  6
 33 36  1  0
 34 83  1  0
 34 84  1  0
 34 85  1  0
 35 86  1  0
 36 37  1  0
 36 38  1  0
 36 87  1  1
 37 88  1  0
 38 39  1  0
 38 89  1  6
 39 40  1  0
 40 41  1  0
 40 42  2  0
 41 90  1  0
 41 91  1  0
 41 92  1  0
 43 44  1  0
 43 93  1  6
 44 94  1  0
 45 46  1  0
 45 47  1  0
 45 48  1  0
 46 95  1  0
 46 96  1  0
 46 97  1  0
 47 98  1  0
 47 99  1  0
 47100  1  0
 48 49  1  0
 49 50  1  0
 49 51  1  0
 50101  1  0
 50102  1  0
 50103  1  0
 51104  1  0
 51105  1  0
 51106  1  0
 52 53  1  0
 52 54  1  0
 52107  1  6
 53108  1  0
 54 59  1  0
 54 55  1  6
 54 58  1  0
 55 56  1  0
 55 57  1  0
 55109  1  0
 56110  1  0
 56111  1  0
 56112  1  0
 57113  1  0
 57114  1  0
 57115  1  0
 58 59  1  0
 59 60  1  1
 60116  1  0
 60117  1  0
 60118  1  0
M  END
>  <i_m_ct_stereo_status>  (88) 
1

>  <s_m_source_file>  (88) 
/var/tmp/pbs.5075288.sched01/tmpq0rgj53d/65gxdktgdh.sdf

>  <i_m_source_file_index>  (88) 
22

>  <i_lp_mmshare_version>  (88) 
48012

>  <i_f3d_flags>  (88) 
0

>  <s_epik_input>  (88) 
Tz1DMVtDQEBdKFtPSF0pKEMyPU8pW0NAQEhdKFtPSF0pW0NAXShPMykoW0NIXShbQ0gzXSlbQ0gzXSlbQ0BdMyhbQ0gzXSlbQ0BAXTEoQyg9W0NIMl0pW0NIM10pW0NASF0oT0MoPU8pW0NIM10pW0NASF0oW09IXSlbQ0BdKFtDSDNdKShbT0hdKVtDQEhdKFtDQEBdNChbT0hdKVtDQEhdNVtPSF0pW0NAXTIoW09IXSlbQ0BIXShPNilbQ0BAXTYoW0NIM10pW0NAQEhdKFtTK10oW08tXSlbQ0gyXVtDQEhdN1tPSF0pW0NAXTQoW0NAXTcoW0NAQF01ODkpW09IXSlbQ0BIXShbT0hdKVtDQEhdOEMoW0NIM10pKFtDSDNdKU9DOShbQ0gzXSlbQ0gzXQ==

>  <s_epik_cmdline>  (88) 
J2VwaWtfcHl0aG9uJywgJy1waHQnLCAnMi4wJywgJy1waCcsICc3LjAnLCAnLXRuJywgJzgnLCAnLW1hJywgJzIwMCcsICctaW1hZScsICc8aW5maWxlLm1hZT4nLCAnLW9tYWUnLCAnPG91dGZpbGUubWFlPic=

>  <r_lp_tautomer_probability>  (88) 
1

>  <r_epik_Ionization_Penalty>  (88) 
5.35191e-05

>  <r_epik_Ionization_Penalty_Charging>  (88) 
0

>  <r_epik_Ionization_Penalty_Neutral>  (88) 
5.35191e-05

>  <r_epik_State_Penalty>  (88) 
-0

>  <r_epik_Charging_Adjusted_Penalty>  (88) 
0

>  <i_epik_Tot_Q>  (88) 
0

>  <i_epik_Tot_abs_Q>  (88) 
2

>  <s_epik_Chemistry_Notes>  (88) 
This compound has an ester and may undergo hydrolysis at high or low pH.

>  <s_lp_Force_Field>  (88) 
OPLS3e

>  <r_lp_Energy>  (88) 
188.707

>  <b_lp_Chiralities_Consistent>  (88) 
1

>  <s_lp_Variant>  (88) 
22:0-1

>  <s_i_glide_gridfile>  (88) 
pfpi4k_grid

>  <i_i_glide_lignum>  (88) 
22

>  <i_i_glide_rotatable_bonds>  (88) 
14

>  <r_i_docking_score>  (88) 
-2.48999

>  <r_i_glide_ligand_efficiency>  (88) 
-0.0414999

>  <r_i_glide_ligand_efficiency_sa>  (88) 
-0.162466

>  <r_i_glide_ligand_efficiency_ln>  (88) 
-0.488776

>  <r_i_glide_gscore>  (88) 
-2.48999

>  <r_i_glide_lipo>  (88) 
-0.0148375

>  <r_i_glide_hbond>  (88) 
-0.16

>  <r_i_glide_metal>  (88) 
-0

>  <r_i_glide_rewards>  (88) 
-0.500799

>  <r_i_glide_evdw>  (88) 
-24.8464

>  <r_i_glide_ecoul>  (88) 
-3.90286

>  <r_i_glide_erotb>  (88) 
0.0579431

>  <r_i_glide_esite>  (88) 
-0.0445518

>  <r_i_glide_emodel>  (88) 
-36.0066

>  <r_i_glide_energy>  (88) 
-28.7492

>  <r_i_glide_einternal>  (88) 
6.58089

>  <r_i_glide_intrahb_reward>  (88) 
-0.5

>  <i_i_glide_confnum>  (88) 
1

>  <i_i_glide_posenum>  (88) 
7

>  <r_i_glide_eff_state_penalty>  (88) 
0

>  <ligand_id>  (88) 
22

>  <original_smiles>  (88) 
C=C(C)C12C(=O)C(O)(C(=O)C3(O)C4OC4(C)C4[S+]([O-])CC(O)C5(O)C67C(C(O)C45C(O)(C3C(C)(O)C(O)C1OC(C)=O)C6O)C(C)(C)OC7(C)C)C(O)C1(C(C)C)OC21C

>  <smiles>  (88) 
[H]OC12C(=O)C3(O[H])C4([H])OC4(C([H])([H])[H])C4([H])S(=O)C([H])([H])C([H])(O[H])C5(O[H])C46C([H])(O[H])C4([H])C(C([H])([H])[H])(C([H])([H])[H])OC(C([H])([H])[H])(C([H])([H])[H])C45C([H])(O[H])C6(O[H])C3([H])C(O[H])(C([H])([H])[H])C([H])(O[H])C([H])(OC(=O)C([H])([H])[H])C(C(=C([H])[H])C([H])([H])[H])(C1=O)C1(C([H])([H])[H])OC1(C([H])(C([H])([H])[H])C([H])([H])[H])C2([H])O[H]

$$$$
26:0:0
     RDKit          3D

106113  0  0  1  0  0  0  0  0999 V2000
   -4.5087    3.7798    2.3911 C   0  0  0  0  0  0  0  0  0  0  0  0
   -3.6179    4.7724    2.2862 C   0  0  0  0  0  0  0  0  0  0  0  0
   -2.2326    4.6988    2.7401 C   0  0  0  0  0  0  0  0  0  0  0  0
   -1.4253    5.7439    2.4852 C   0  0  0  0  0  0  0  0  0  0  0  0
   -1.6638    3.4611    3.4182 C   0  0  0  0  0  0  0  0  0  0  0  0
   -1.9297    3.4060    4.9437 C   0  0  0  0  0  0  0  0  0  0  0  0
   -0.7480    3.8490    5.8571 C   0  0  1  0  0  0  0  0  0  0  0  0
   -0.5051    5.2071    5.5287 O   0  0  0  0  0  0  0  0  0  0  0  0
   -1.0117    3.8191    7.3637 C   0  0  1  0  0  0  0  0  0  0  0  0
   -2.4658    3.7543    7.8779 C   0  0  0  0  0  0  0  0  0  0  0  0
    0.0742    2.8761    7.9656 C   0  0  1  0  0  0  0  0  0  0  0  0
   -0.5456    1.1536    8.1926 S   0  0  0  0  0  0  0  0  0  0  0  0
   -1.9274    0.9733    7.5737 O   0  0  0  0  0  0  0  0  0  0  0  0
    0.6383    0.5044    6.9828 C   0  0  2  0  0  0  0  0  0  0  0  0
    0.0025   -0.8989    6.7086 C   0  0  0  0  0  0  0  0  0  0  0  0
    1.9993    0.3513    7.9129 C   0  0  1  0  0  0  0  0  0  0  0  0
    3.1284   -0.5530    7.2284 C   0  0  2  0  0  0  0  0  0  0  0  0
    2.7571   -0.9616    5.9402 O   0  0  0  0  0  0  0  0  0  0  0  0
    3.3547   -1.8927    7.9958 C   0  0  0  0  0  0  0  0  0  0  0  0
    4.8119   -2.4134    8.0495 C   0  0  1  0  0  0  0  0  0  0  0  0
    4.9479   -3.2926    9.3042 C   0  0  0  0  0  0  0  0  0  0  0  0
    5.2092   -3.2745    6.8602 C   0  0  0  0  0  0  0  0  0  0  0  0
    6.2000   -4.2559    6.8042 C   0  0  0  0  0  0  0  0  0  0  0  0
    6.3186   -4.7165    5.5068 O   0  0  0  0  0  0  0  0  0  0  0  0
    5.3814   -4.0136    4.8132 C   0  0  0  0  0  0  0  0  0  0  0  0
    4.6842   -3.1691    5.5701 N   0  0  0  0  0  0  0  0  0  0  0  0
    5.6923   -1.3291    8.3257 O   0  0  0  0  0  0  0  0  0  0  0  0
    5.7394   -0.1882    7.4628 C   0  0  0  0  0  0  0  0  0  0  0  0
    6.6020    0.8064    8.2657 C   0  0  0  0  0  0  0  0  0  0  0  0
    6.6072   -0.5294    6.2237 C   0  0  0  0  0  0  0  0  0  0  0  0
    4.3413    0.3937    7.0428 C   0  0  2  0  0  0  0  0  0  0  0  0
    3.8353    1.7758    7.5634 C   0  0  1  0  0  0  0  0  0  0  0  0
    2.8193    2.3987    6.5764 C   0  0  0  0  0  0  0  0  0  0  0  0
    1.4211    3.1467    7.1017 C   0  0  2  0  0  0  0  0  0  0  0  0
    2.0731    4.1618    8.1148 C   0  0  1  0  0  0  0  0  0  0  0  0
    3.0859    4.8720    7.4083 O   0  0  0  0  0  0  0  0  0  0  0  0
    1.4758    5.3618    9.0029 C   0  0  1  0  0  0  0  0  0  0  0  0
    0.3818    5.1650   10.1080 C   0  0  0  0  0  0  0  0  0  0  0  0
    2.6649    5.9420    9.8166 C   0  0  0  0  0  0  0  0  0  0  0  0
    3.5615    4.8939   10.4915 C   0  0  0  0  0  0  0  0  0  0  0  0
    4.2518    5.2590   11.4400 O   0  0  0  0  0  0  0  0  0  0  0  0
    3.6372    3.6823    9.8930 O   0  0  0  0  0  0  0  0  0  0  0  0
    2.5695    3.0726    9.1580 C   0  0  2  0  0  0  0  0  0  0  0  0
    2.8946    1.5401    8.6804 C   0  0  1  0  0  0  0  0  0  0  0  0
    3.5149    0.8889    9.9539 C   0  0  0  0  0  0  0  0  0  0  0  0
    0.5983    3.0515    5.7749 C   0  0  2  0  0  0  0  0  0  0  0  0
    1.3039    3.5582    4.6486 O   0  0  0  0  0  0  0  0  0  0  0  0
    0.3653    1.4470    5.6793 C   0  0  1  0  0  0  0  0  0  0  0  0
    1.0253    0.8885    4.5512 O   0  0  0  0  0  0  0  0  0  0  0  0
    0.4242    0.5326    3.4160 C   0  0  0  0  0  0  0  0  0  0  0  0
   -0.7864    0.4658    3.2471 O   0  0  0  0  0  0  0  0  0  0  0  0
    1.5951    0.1338    2.0989 S   0  0  0  0  0  0  0  0  0  0  0  0
    3.1422    0.7318    2.8558 C   0  0  0  0  0  0  0  0  0  0  0  0
   -4.2609    2.8299    2.8419 H   0  0  0  0  0  0  0  0  0  0  0  0
   -5.5187    3.8930    2.0281 H   0  0  0  0  0  0  0  0  0  0  0  0
   -3.9579    5.6916    1.8268 H   0  0  0  0  0  0  0  0  0  0  0  0
   -1.7634    6.6321    1.9719 H   0  0  0  0  0  0  0  0  0  0  0  0
   -0.3742    5.7261    2.7672 H   0  0  0  0  0  0  0  0  0  0  0  0
   -2.1218    2.5893    2.9627 H   0  0  0  0  0  0  0  0  0  0  0  0
   -0.6294    3.3347    3.1319 H   0  0  0  0  0  0  0  0  0  0  0  0
   -2.8104    3.9979    5.1783 H   0  0  0  0  0  0  0  0  0  0  0  0
   -2.2685    2.4053    5.1984 H   0  0  0  0  0  0  0  0  0  0  0  0
   -0.0697    5.2041    4.6882 H   0  0  0  0  0  0  0  0  0  0  0  0
   -0.7119    4.8107    7.6964 H   0  0  0  0  0  0  0  0  0  0  0  0
   -3.0724    2.9846    7.4042 H   0  0  0  0  0  0  0  0  0  0  0  0
   -2.9699    4.6998    7.6906 H   0  0  0  0  0  0  0  0  0  0  0  0
   -2.4925    3.5940    8.9570 H   0  0  0  0  0  0  0  0  0  0  0  0
    0.1171    3.0912    9.0115 H   0  0  0  0  0  0  0  0  0  0  0  0
    0.4586   -1.4548    5.8937 H   0  0  0  0  0  0  0  0  0  0  0  0
   -1.0349   -0.8258    6.3842 H   0  0  0  0  0  0  0  0  0  0  0  0
    0.0357   -1.5363    7.5923 H   0  0  0  0  0  0  0  0  0  0  0  0
    1.6016   -0.2203    8.7542 H   0  0  0  0  0  0  0  0  0  0  0  0
    2.7347   -0.2158    5.3594 H   0  0  0  0  0  0  0  0  0  0  0  0
    3.0161   -1.7697    9.0243 H   0  0  0  0  0  0  0  0  0  0  0  0
    2.7000   -2.6757    7.6163 H   0  0  0  0  0  0  0  0  0  0  0  0
    4.3300   -4.1878    9.2278 H   0  0  0  0  0  0  0  0  0  0  0  0
    4.6623   -2.7700   10.2187 H   0  0  0  0  0  0  0  0  0  0  0  0
    5.9769   -3.6210    9.4528 H   0  0  0  0  0  0  0  0  0  0  0  0
    6.8609   -4.6735    7.5219 H   0  0  0  0  0  0  0  0  0  0  0  0
    5.2557   -4.1035    3.7503 H   0  0  0  0  0  0  0  0  0  0  0  0
    6.8189    1.7148    7.6988 H   0  0  0  0  0  0  0  0  0  0  0  0
    7.5654    0.3537    8.5263 H   0  0  0  0  0  0  0  0  0  0  0  0
    6.1303    1.0949    9.2056 H   0  0  0  0  0  0  0  0  0  0  0  0
    7.0078    0.3619    5.7397 H   0  0  0  0  0  0  0  0  0  0  0  0
    6.0399   -1.0291    5.4481 H   0  0  0  0  0  0  0  0  0  0  0  0
    7.4494   -1.1724    6.4956 H   0  0  0  0  0  0  0  0  0  0  0  0
    4.4848    0.5620    5.9770 H   0  0  0  0  0  0  0  0  0  0  0  0
    4.6333    2.4689    7.8068 H   0  0  0  0  0  0  0  0  0  0  0  0
    3.4061    3.0981    5.9779 H   0  0  0  0  0  0  0  0  0  0  0  0
    2.7253    1.7174    5.7598 H   0  0  0  0  0  0  0  0  0  0  0  0
    3.5661    4.2763    6.8573 H   0  0  0  0  0  0  0  0  0  0  0  0
    1.1110    6.1425    8.3321 H   0  0  0  0  0  0  0  0  0  0  0  0
    0.6682    4.4366   10.8681 H   0  0  0  0  0  0  0  0  0  0  0  0
   -0.6136    4.9041    9.7577 H   0  0  0  0  0  0  0  0  0  0  0  0
    0.2165    6.1042   10.6428 H   0  0  0  0  0  0  0  0  0  0  0  0
    3.2950    6.5529    9.1745 H   0  0  0  0  0  0  0  0  0  0  0  0
    2.3006    6.6332   10.5825 H   0  0  0  0  0  0  0  0  0  0  0  0
    1.8340    2.9360    9.9411 H   0  0  0  0  0  0  0  0  0  0  0  0
    4.2912    1.4916   10.4247 H   0  0  0  0  0  0  0  0  0  0  0  0
    3.9953   -0.0688    9.7822 H   0  0  0  0  0  0  0  0  0  0  0  0
    2.7450    0.7313   10.7111 H   0  0  0  0  0  0  0  0  0  0  0  0
    0.8317    3.3347    3.8580 H   0  0  0  0  0  0  0  0  0  0  0  0
   -0.6815    1.2668    5.4911 H   0  0  0  0  0  0  0  0  0  0  0  0
    3.9941    0.5499    2.2042 H   0  0  0  0  0  0  0  0  0  0  0  0
    3.3492    0.2142    3.7891 H   0  0  0  0  0  0  0  0  0  0  0  0
    3.0623    1.8060    3.0564 H   0  0  0  0  0  0  0  0  0  0  0  0
  1  2  2  0
  1 54  1  0
  1 55  1  0
  2  3  1  0
  2 56  1  0
  3  4  2  0
  3  5  1  0
  4 57  1  0
  4 58  1  0
  5  6  1  0
  5 59  1  0
  5 60  1  0
  6  7  1  0
  6 61  1  0
  6 62  1  0
  7 46  1  0
  7  8  1  6
  7  9  1  0
  8 63  1  0
  9 10  1  0
  9 11  1  0
  9 64  1  1
 10 65  1  0
 10 66  1  0
 10 67  1  0
 11 34  1  0
 11 12  1  0
 11 68  1  1
 12 13  2  0
 12 14  1  6
 14 48  1  0
 14 15  1  6
 14 16  1  0
 15 69  1  0
 15 70  1  0
 15 71  1  0
 16 44  1  0
 16 17  1  0
 16 72  1  1
 17 31  1  0
 17 18  1  6
 17 19  1  0
 18 73  1  0
 19 20  1  0
 19 74  1  0
 19 75  1  0
 20 21  1  1
 20 22  1  0
 20 27  1  0
 21 76  1  0
 21 77  1  0
 21 78  1  0
 22 26  1  0
 22 23  2  0
 23 24  1  0
 23 79  1  0
 24 25  1  0
 25 26  2  0
 25 80  1  0
 27 28  1  0
 28 29  1  0
 28 30  1  0
 28 31  1  0
 29 81  1  0
 29 82  1  0
 29 83  1  0
 30 84  1  0
 30 85  1  0
 30 86  1  0
 31 32  1  0
 31 87  1  6
 32 44  1  0
 32 33  1  0
 32 88  1  1
 34 33  1  6
 33 89  1  0
 33 90  1  0
 34 35  1  0
 34 46  1  0
 35 43  1  0
 35 36  1  6
 35 37  1  0
 36 91  1  0
 37 38  1  0
 37 39  1  0
 37 92  1  6
 38 93  1  0
 38 94  1  0
 38 95  1  0
 39 40  1  0
 39 96  1  0
 39 97  1  0
 40 41  2  0
 40 42  1  0
 42 43  1  0
 43 44  1  0
 43 98  1  1
 44 45  1  1
 45 99  1  0
 45100  1  0
 45101  1  0
 46 47  1  6
 46 48  1  0
 47102  1  0
 48 49  1  0
 48103  1  6
 49 50  1  0
 50 51  2  0
 50 52  1  0
 52 53  1  0
 53104  1  0
 53105  1  0
 53106  1  0
M  END
>  <i_m_ct_stereo_status>  (89) 
1

>  <s_m_source_file>  (89) 
/var/tmp/pbs.5075288.sched01/tmpq0rgj53d/65gxdktgdh.sdf

>  <i_m_source_file_index>  (89) 
27

>  <i_lp_mmshare_version>  (89) 
48012

>  <i_f3d_flags>  (89) 
0

>  <s_epik_input>  (89) 
W0NIMl09W0NIXUMoPVtDSDJdKVtDSDJdW0NIMl1bQ0BAXShbT0hdKShbQ0BASF0oW0NIM10pW0NAQEhdMVtDQF0yMzQpW0NAXTQoW09IXSlbQ0BASF0oT0MoPU8pU1tDSDNdKVtDQEBdKFtTK10xW08tXSkoW0NIM10pW0NIXTVbQ0BAXTYoW09IXSlbQ0BIXShDKFtDSDNdKShbQ0gzXSlPW0NAXShbQ0gyXTYpKFtDSDNdKWM3W2NIXW9bY0hdbjcpW0NAQEhdKFtDSDJdMilbQ0BAXTUoW0NIM10pW0NAQEhdOFtDQF0zKFtPSF0pW0NAQEhdKFtDSDNdKVtDSDJdQyg9TylPOA==

>  <s_epik_cmdline>  (89) 
J2VwaWtfcHl0aG9uJywgJy1waHQnLCAnMi4wJywgJy1waCcsICc3LjAnLCAnLXRuJywgJzgnLCAnLW1hJywgJzIwMCcsICctaW1hZScsICc8aW5maWxlLm1hZT4nLCAnLW9tYWUnLCAnPG91dGZpbGUubWFlPic=

>  <r_lp_tautomer_probability>  (89) 
1

>  <r_epik_Ionization_Penalty>  (89) 
1.09142e-05

>  <r_epik_Ionization_Penalty_Charging>  (89) 
0

>  <r_epik_Ionization_Penalty_Neutral>  (89) 
1.09142e-05

>  <r_epik_State_Penalty>  (89) 
-0

>  <r_epik_Charging_Adjusted_Penalty>  (89) 
0

>  <i_epik_Tot_Q>  (89) 
0

>  <i_epik_Tot_abs_Q>  (89) 
2

>  <s_epik_Chemistry_Notes>  (89) 
This compound has an ester and may undergo hydrolysis at high or low pH.

>  <s_lp_Force_Field>  (89) 
OPLS3e

>  <r_lp_Energy>  (89) 
292.273

>  <b_lp_Chiralities_Consistent>  (89) 
1

>  <s_lp_Variant>  (89) 
26:0-1

>  <s_i_glide_gridfile>  (89) 
pfpi4k_grid

>  <i_i_glide_lignum>  (89) 
27

>  <i_i_glide_rotatable_bonds>  (89) 
12

>  <r_i_docking_score>  (89) 
-3.41929

>  <r_i_glide_ligand_efficiency>  (89) 
-0.0645149

>  <r_i_glide_ligand_efficiency_sa>  (89) 
-0.242336

>  <r_i_glide_ligand_efficiency_ln>  (89) 
-0.687945

>  <r_i_glide_gscore>  (89) 
-3.41929

>  <r_i_glide_lipo>  (89) 
-0.482237

>  <r_i_glide_hbond>  (89) 
-0.150849

>  <r_i_glide_metal>  (89) 
-0

>  <r_i_glide_rewards>  (89) 
-0.5

>  <r_i_glide_evdw>  (89) 
-27.3682

>  <r_i_glide_ecoul>  (89) 
-6.08543

>  <r_i_glide_erotb>  (89) 
0.0533664

>  <r_i_glide_esite>  (89) 
-0.0583466

>  <r_i_glide_emodel>  (89) 
-40.2005

>  <r_i_glide_energy>  (89) 
-33.4536

>  <r_i_glide_einternal>  (89) 
10.3545

>  <r_i_glide_intrahb_reward>  (89) 
-0.5

>  <i_i_glide_confnum>  (89) 
3

>  <i_i_glide_posenum>  (89) 
1

>  <r_i_glide_eff_state_penalty>  (89) 
0

>  <ligand_id>  (89) 
26

>  <original_smiles>  (89) 
C=CC(=C)CCC1(O)C(C)C2[S+]([O-])C3(C)C4C5(O)CC(C)(c6cocn6)OC(C)(C)C5C5CC2(C2(O)C(C)CC(=O)OC2C54C)C1(O)C3OC(=O)SC

>  <smiles>  (89) 
[H]OC12C([H])([H])C(c3nc([H])oc3[H])(C([H])([H])[H])OC(C([H])([H])[H])(C([H])([H])[H])C1([H])C1([H])C([H])([H])C34C5([H])S(=O)C(C([H])([H])[H])(C([H])(OC(=O)SC([H])([H])[H])C3(O[H])C(O[H])(C([H])([H])C([H])([H])C(=C([H])[H])C([H])=C([H])[H])C5([H])C([H])([H])[H])C2([H])C1(C([H])([H])[H])C1([H])OC(=O)C([H])([H])C([H])(C([H])([H])[H])C14O[H]

$$$$
26:0:1
     RDKit          3D

106113  0  0  1  0  0  0  0  0999 V2000
   -4.2030    3.6971    2.7288 C   0  0  0  0  0  0  0  0  0  0  0  0
   -3.0229    3.6694    3.3832 C   0  0  0  0  0  0  0  0  0  0  0  0
   -2.8482    3.7390    4.8619 C   0  0  0  0  0  0  0  0  0  0  0  0
   -3.8098    3.3269    5.6656 C   0  0  0  0  0  0  0  0  0  0  0  0
   -1.5659    4.3305    5.4357 C   0  0  0  0  0  0  0  0  0  0  0  0
   -1.4262    4.1207    6.9997 C   0  0  0  0  0  0  0  0  0  0  0  0
    0.0043    4.2423    7.5387 C   0  0  1  0  0  0  0  0  0  0  0  0
    0.2591    5.6425    7.6366 O   0  0  0  0  0  0  0  0  0  0  0  0
    0.2175    3.6340    8.9221 C   0  0  1  0  0  0  0  0  0  0  0  0
   -0.9930    3.4001    9.8683 C   0  0  0  0  0  0  0  0  0  0  0  0
    1.2726    2.5044    8.7039 C   0  0  1  0  0  0  0  0  0  0  0  0
    0.4961    0.8490    8.4849 S   0  0  0  0  0  0  0  0  0  0  0  0
   -1.0135    1.0039    8.3117 O   0  0  0  0  0  0  0  0  0  0  0  0
    1.1328    0.7042    6.7870 C   0  0  2  0  0  0  0  0  0  0  0  0
    0.2739   -0.5062    6.2868 C   0  0  0  0  0  0  0  0  0  0  0  0
    2.6763    0.2177    7.0345 C   0  0  1  0  0  0  0  0  0  0  0  0
    3.3283   -0.3232    5.6913 C   0  0  2  0  0  0  0  0  0  0  0  0
    2.5492   -0.1437    4.5220 O   0  0  0  0  0  0  0  0  0  0  0  0
    3.5348   -1.8778    5.7529 C   0  0  0  0  0  0  0  0  0  0  0  0
    4.8002   -2.4114    5.0748 C   0  0  1  0  0  0  0  0  0  0  0  0
    5.2842   -3.7102    5.7985 C   0  0  0  0  0  0  0  0  0  0  0  0
    4.7064   -2.7037    3.5849 C   0  0  0  0  0  0  0  0  0  0  0  0
    5.2625   -3.7368    2.8559 C   0  0  0  0  0  0  0  0  0  0  0  0
    5.0997   -3.5179    1.5201 O   0  0  0  0  0  0  0  0  0  0  0  0
    4.2980   -2.4273    1.4718 C   0  0  0  0  0  0  0  0  0  0  0  0
    4.0709   -1.8992    2.6726 N   0  0  0  0  0  0  0  0  0  0  0  0
    5.8367   -1.4923    5.4857 O   0  0  0  0  0  0  0  0  0  0  0  0
    5.8770   -0.1142    5.1164 C   0  0  0  0  0  0  0  0  0  0  0  0
    7.1059    0.4576    5.8958 C   0  0  0  0  0  0  0  0  0  0  0  0
    6.1871    0.0786    3.6202 C   0  0  0  0  0  0  0  0  0  0  0  0
    4.5591    0.6029    5.4577 C   0  0  2  0  0  0  0  0  0  0  0  0
    4.4934    1.6398    6.6102 C   0  0  1  0  0  0  0  0  0  0  0  0
    3.3373    2.6245    6.3626 C   0  0  0  0  0  0  0  0  0  0  0  0
    2.3016    3.0836    7.5942 C   0  0  2  0  0  0  0  0  0  0  0  0
    3.3767    3.5999    8.6094 C   0  0  1  0  0  0  0  0  0  0  0  0
    4.1993    4.5398    7.9159 O   0  0  0  0  0  0  0  0  0  0  0  0
    3.2779    4.3336   10.0264 C   0  0  1  0  0  0  0  0  0  0  0  0
    2.5823    3.7250   11.2923 C   0  0  0  0  0  0  0  0  0  0  0  0
    4.7266    4.5355   10.5286 C   0  0  0  0  0  0  0  0  0  0  0  0
    5.6236    3.3104   10.4066 C   0  0  0  0  0  0  0  0  0  0  0  0
    6.6063    3.2087   11.1207 O   0  0  0  0  0  0  0  0  0  0  0  0
    5.3484    2.4189    9.4139 O   0  0  0  0  0  0  0  0  0  0  0  0
    4.0189    2.1785    8.9251 C   0  0  2  0  0  0  0  0  0  0  0  0
    3.9381    0.9784    7.8179 C   0  0  1  0  0  0  0  0  0  0  0  0
    4.8200   -0.1392    8.4332 C   0  0  0  0  0  0  0  0  0  0  0  0
    1.1079    3.5255    6.7016 C   0  0  2  0  0  0  0  0  0  0  0  0
    1.4953    4.4606    5.6919 O   0  0  0  0  0  0  0  0  0  0  0  0
    0.6124    2.0844    6.0790 C   0  0  1  0  0  0  0  0  0  0  0  0
    0.7962    2.0416    4.6579 O   0  0  0  0  0  0  0  0  0  0  0  0
   -0.0890    1.5535    3.7789 C   0  0  0  0  0  0  0  0  0  0  0  0
   -1.2036    1.1048    4.0393 O   0  0  0  0  0  0  0  0  0  0  0  0
    0.5546    1.6545    2.0869 S   0  0  0  0  0  0  0  0  0  0  0  0
    1.7886    2.9643    2.3424 C   0  0  0  0  0  0  0  0  0  0  0  0
   -5.1603    3.7747    3.2191 H   0  0  0  0  0  0  0  0  0  0  0  0
   -4.2258    3.6515    1.6398 H   0  0  0  0  0  0  0  0  0  0  0  0
   -2.1404    3.5810    2.7965 H   0  0  0  0  0  0  0  0  0  0  0  0
   -4.7483    2.9610    5.2822 H   0  0  0  0  0  0  0  0  0  0  0  0
   -3.7155    3.3050    6.7486 H   0  0  0  0  0  0  0  0  0  0  0  0
   -0.8371    3.7964    4.8623 H   0  0  0  0  0  0  0  0  0  0  0  0
   -1.3547    5.3649    5.1370 H   0  0  0  0  0  0  0  0  0  0  0  0
   -2.0584    4.7834    7.6043 H   0  0  0  0  0  0  0  0  0  0  0  0
   -1.7559    3.1009    7.2557 H   0  0  0  0  0  0  0  0  0  0  0  0
    1.1559    5.7620    7.9312 H   0  0  0  0  0  0  0  0  0  0  0  0
    0.7484    4.4276    9.4500 H   0  0  0  0  0  0  0  0  0  0  0  0
   -1.8396    2.8613    9.4439 H   0  0  0  0  0  0  0  0  0  0  0  0
   -1.3855    4.3568   10.2160 H   0  0  0  0  0  0  0  0  0  0  0  0
   -0.6806    2.8342   10.7461 H   0  0  0  0  0  0  0  0  0  0  0  0
    1.6720    2.2976    9.6740 H   0  0  0  0  0  0  0  0  0  0  0  0
    0.3991   -0.7785    5.2431 H   0  0  0  0  0  0  0  0  0  0  0  0
   -0.7820   -0.2681    6.3531 H   0  0  0  0  0  0  0  0  0  0  0  0
    0.4667   -1.4169    6.8601 H   0  0  0  0  0  0  0  0  0  0  0  0
    2.5000   -0.6609    7.6450 H   0  0  0  0  0  0  0  0  0  0  0  0
    2.5081    0.7794    4.2998 H   0  0  0  0  0  0  0  0  0  0  0  0
    3.6074   -2.1808    6.7942 H   0  0  0  0  0  0  0  0  0  0  0  0
    2.6861   -2.4271    5.3423 H   0  0  0  0  0  0  0  0  0  0  0  0
    4.5863   -4.5140    5.6187 H   0  0  0  0  0  0  0  0  0  0  0  0
    5.4112   -3.5913    6.8751 H   0  0  0  0  0  0  0  0  0  0  0  0
    6.2555   -4.0187    5.4227 H   0  0  0  0  0  0  0  0  0  0  0  0
    5.8887   -4.5904    3.1319 H   0  0  0  0  0  0  0  0  0  0  0  0
    4.0239   -1.9692    0.5233 H   0  0  0  0  0  0  0  0  0  0  0  0
    7.2809    1.5131    5.6702 H   0  0  0  0  0  0  0  0  0  0  0  0
    8.0204   -0.0436    5.5877 H   0  0  0  0  0  0  0  0  0  0  0  0
    7.0569    0.3531    6.9850 H   0  0  0  0  0  0  0  0  0  0  0  0
    6.6995    1.0599    3.5940 H   0  0  0  0  0  0  0  0  0  0  0  0
    5.3350    0.0540    2.9621 H   0  0  0  0  0  0  0  0  0  0  0  0
    6.9213   -0.6008    3.2299 H   0  0  0  0  0  0  0  0  0  0  0  0
    4.4064    1.2072    4.5641 H   0  0  0  0  0  0  0  0  0  0  0  0
    5.4160    2.1939    6.8201 H   0  0  0  0  0  0  0  0  0  0  0  0
    3.8025    3.4916    5.9320 H   0  0  0  0  0  0  0  0  0  0  0  0
    2.8892    2.3339    5.4278 H   0  0  0  0  0  0  0  0  0  0  0  0
    4.4430    4.1761    7.0744 H   0  0  0  0  0  0  0  0  0  0  0  0
    2.8584    5.3367    9.8805 H   0  0  0  0  0  0  0  0  0  0  0  0
    2.9819    2.7451   11.5618 H   0  0  0  0  0  0  0  0  0  0  0  0
    1.4999    3.6493   11.2385 H   0  0  0  0  0  0  0  0  0  0  0  0
    2.7474    4.3701   12.1616 H   0  0  0  0  0  0  0  0  0  0  0  0
    5.2293    5.3183    9.9777 H   0  0  0  0  0  0  0  0  0  0  0  0
    4.7460    4.8427   11.5665 H   0  0  0  0  0  0  0  0  0  0  0  0
    3.5404    1.7217    9.7837 H   0  0  0  0  0  0  0  0  0  0  0  0
    5.7835    0.2203    8.7864 H   0  0  0  0  0  0  0  0  0  0  0  0
    5.0592   -0.9527    7.7584 H   0  0  0  0  0  0  0  0  0  0  0  0
    4.3010   -0.5743    9.2875 H   0  0  0  0  0  0  0  0  0  0  0  0
    2.0051    4.0092    5.0342 H   0  0  0  0  0  0  0  0  0  0  0  0
   -0.4615    2.0398    6.2386 H   0  0  0  0  0  0  0  0  0  0  0  0
    2.2018    3.2629    1.3786 H   0  0  0  0  0  0  0  0  0  0  0  0
    2.6105    2.6377    2.9939 H   0  0  0  0  0  0  0  0  0  0  0  0
    1.2957    3.8450    2.7727 H   0  0  0  0  0  0  0  0  0  0  0  0
  1  2  2  0
  1 54  1  0
  1 55  1  0
  2  3  1  0
  2 56  1  0
  3  4  2  0
  3  5  1  0
  4 57  1  0
  4 58  1  0
  5  6  1  0
  5 59  1  0
  5 60  1  0
  6  7  1  0
  6 61  1  0
  6 62  1  0
  7 46  1  0
  7  8  1  1
  7  9  1  0
  8 63  1  0
  9 10  1  0
  9 11  1  0
  9 64  1  1
 10 65  1  0
 10 66  1  0
 10 67  1  0
 11 34  1  0
 11 12  1  0
 11 68  1  1
 12 13  2  0
 12 14  1  6
 14 48  1  0
 14 15  1  6
 14 16  1  0
 15 69  1  0
 15 70  1  0
 15 71  1  0
 16 44  1  0
 16 17  1  0
 16 72  1  1
 17 31  1  0
 17 18  1  6
 17 19  1  0
 18 73  1  0
 19 20  1  0
 19 74  1  0
 19 75  1  0
 20 21  1  1
 20 22  1  0
 20 27  1  0
 21 76  1  0
 21 77  1  0
 21 78  1  0
 22 26  1  0
 22 23  2  0
 23 24  1  0
 23 79  1  0
 24 25  1  0
 25 26  2  0
 25 80  1  0
 27 28  1  0
 28 29  1  0
 28 30  1  0
 28 31  1  0
 29 81  1  0
 29 82  1  0
 29 83  1  0
 30 84  1  0
 30 85  1  0
 30 86  1  0
 31 32  1  0
 31 87  1  6
 32 44  1  0
 32 33  1  0
 32 88  1  1
 34 33  1  6
 33 89  1  0
 33 90  1  0
 34 35  1  0
 34 46  1  0
 35 43  1  0
 35 36  1  6
 35 37  1  0
 36 91  1  0
 37 38  1  0
 37 39  1  0
 37 92  1  6
 38 93  1  0
 38 94  1  0
 38 95  1  0
 39 40  1  0
 39 96  1  0
 39 97  1  0
 40 41  2  0
 40 42  1  0
 42 43  1  0
 43 44  1  0
 43 98  1  1
 44 45  1  1
 45 99  1  0
 45100  1  0
 45101  1  0
 46 47  1  6
 46 48  1  0
 47102  1  0
 48 49  1  0
 48103  1  6
 49 50  1  0
 50 51  2  0
 50 52  1  0
 52 53  1  0
 53104  1  0
 53105  1  0
 53106  1  0
M  END
>  <i_m_ct_stereo_status>  (90) 
1

>  <s_m_source_file>  (90) 
/var/tmp/pbs.5075288.sched01/tmpq0rgj53d/65gxdktgdh.sdf

>  <i_m_source_file_index>  (90) 
27

>  <i_lp_mmshare_version>  (90) 
48012

>  <i_f3d_flags>  (90) 
0

>  <s_epik_input>  (90) 
W0NIMl09W0NIXUMoPVtDSDJdKVtDSDJdW0NIMl1bQ0BAXShbT0hdKShbQ0BASF0oW0NIM10pW0NAQEhdMVtDQF0yMzQpW0NAXTQoW09IXSlbQ0BASF0oT0MoPU8pU1tDSDNdKVtDQEBdKFtTK10xW08tXSkoW0NIM10pW0NIXTVbQ0BAXTYoW09IXSlbQ0BIXShDKFtDSDNdKShbQ0gzXSlPW0NAXShbQ0gyXTYpKFtDSDNdKWM3W2NIXW9bY0hdbjcpW0NAQEhdKFtDSDJdMilbQ0BAXTUoW0NIM10pW0NAQEhdOFtDQF0zKFtPSF0pW0NAQEhdKFtDSDNdKVtDSDJdQyg9TylPOA==

>  <s_epik_cmdline>  (90) 
J2VwaWtfcHl0aG9uJywgJy1waHQnLCAnMi4wJywgJy1waCcsICc3LjAnLCAnLXRuJywgJzgnLCAnLW1hJywgJzIwMCcsICctaW1hZScsICc8aW5maWxlLm1hZT4nLCAnLW9tYWUnLCAnPG91dGZpbGUubWFlPic=

>  <r_lp_tautomer_probability>  (90) 
1

>  <r_epik_Ionization_Penalty>  (90) 
1.09142e-05

>  <r_epik_Ionization_Penalty_Charging>  (90) 
0

>  <r_epik_Ionization_Penalty_Neutral>  (90) 
1.09142e-05

>  <r_epik_State_Penalty>  (90) 
-0

>  <r_epik_Charging_Adjusted_Penalty>  (90) 
0

>  <i_epik_Tot_Q>  (90) 
0

>  <i_epik_Tot_abs_Q>  (90) 
2

>  <s_epik_Chemistry_Notes>  (90) 
This compound has an ester and may undergo hydrolysis at high or low pH.

>  <s_lp_Force_Field>  (90) 
OPLS3e

>  <r_lp_Energy>  (90) 
292.273

>  <b_lp_Chiralities_Consistent>  (90) 
1

>  <s_lp_Variant>  (90) 
26:0-1

>  <s_i_glide_gridfile>  (90) 
pfpi4k_grid

>  <i_i_glide_lignum>  (90) 
27

>  <i_i_glide_rotatable_bonds>  (90) 
12

>  <r_i_docking_score>  (90) 
-2.84421

>  <r_i_glide_ligand_efficiency>  (90) 
-0.0536643

>  <r_i_glide_ligand_efficiency_sa>  (90) 
-0.201579

>  <r_i_glide_ligand_efficiency_ln>  (90) 
-0.572242

>  <r_i_glide_gscore>  (90) 
-2.84421

>  <r_i_glide_lipo>  (90) 
-0.684015

>  <r_i_glide_hbond>  (90) 
-0.334952

>  <r_i_glide_metal>  (90) 
-0

>  <r_i_glide_rewards>  (90) 
-0.5

>  <r_i_glide_evdw>  (90) 
-12.3333

>  <r_i_glide_ecoul>  (90) 
-4.82019

>  <r_i_glide_erotb>  (90) 
0.0533664

>  <r_i_glide_esite>  (90) 
-0.038918

>  <r_i_glide_emodel>  (90) 
-18.89

>  <r_i_glide_energy>  (90) 
-17.1535

>  <r_i_glide_einternal>  (90) 
13.3432

>  <r_i_glide_intrahb_reward>  (90) 
-0.5

>  <i_i_glide_confnum>  (90) 
2

>  <i_i_glide_posenum>  (90) 
20

>  <r_i_glide_eff_state_penalty>  (90) 
0

>  <ligand_id>  (90) 
26

>  <original_smiles>  (90) 
C=CC(=C)CCC1(O)C(C)C2[S+]([O-])C3(C)C4C5(O)CC(C)(c6cocn6)OC(C)(C)C5C5CC2(C2(O)C(C)CC(=O)OC2C54C)C1(O)C3OC(=O)SC

>  <smiles>  (90) 
[H]OC12C([H])([H])C(c3nc([H])oc3[H])(C([H])([H])[H])OC(C([H])([H])[H])(C([H])([H])[H])C1([H])C1([H])C([H])([H])C34C5([H])S(=O)C(C([H])([H])[H])(C([H])(OC(=O)SC([H])([H])[H])C3(O[H])C(O[H])(C([H])([H])C([H])([H])C(=C([H])[H])C([H])=C([H])[H])C5([H])C([H])([H])[H])C2([H])C1(C([H])([H])[H])C1([H])OC(=O)C([H])([H])C([H])(C([H])([H])[H])C14O[H]

$$$$
26:0:2
     RDKit          3D

106113  0  0  1  0  0  0  0  0999 V2000
   -3.5989    3.0086    2.8769 C   0  0  0  0  0  0  0  0  0  0  0  0
   -3.0848    4.1772    2.4943 C   0  0  0  0  0  0  0  0  0  0  0  0
   -1.8941    4.8134    3.0697 C   0  0  0  0  0  0  0  0  0  0  0  0
   -1.3627    5.8629    2.4610 C   0  0  0  0  0  0  0  0  0  0  0  0
   -1.3144    4.3509    4.4058 C   0  0  0  0  0  0  0  0  0  0  0  0
   -0.3498    3.1330    4.3317 C   0  0  0  0  0  0  0  0  0  0  0  0
    0.3257    2.7111    5.6882 C   0  0  1  0  0  0  0  0  0  0  0  0
    0.8557    3.9086    6.2478 O   0  0  0  0  0  0  0  0  0  0  0  0
   -0.5701    2.0724    6.7569 C   0  0  1  0  0  0  0  0  0  0  0  0
   -2.1049    2.2092    6.6948 C   0  0  0  0  0  0  0  0  0  0  0  0
    0.0506    0.6768    7.0389 C   0  0  1  0  0  0  0  0  0  0  0  0
   -0.7550   -0.6731    6.0764 S   0  0  0  0  0  0  0  0  0  0  0  0
   -1.7643   -0.1109    5.0793 O   0  0  0  0  0  0  0  0  0  0  0  0
    0.7769   -1.0226    5.1796 C   0  0  2  0  0  0  0  0  0  0  0  0
    0.2139   -1.8485    3.9844 C   0  0  0  0  0  0  0  0  0  0  0  0
    1.5449   -1.9976    6.2739 C   0  0  1  0  0  0  0  0  0  0  0  0
    2.7537   -2.8105    5.6265 C   0  0  2  0  0  0  0  0  0  0  0  0
    2.9842   -2.4892    4.2759 O   0  0  0  0  0  0  0  0  0  0  0  0
    2.5117   -4.3452    5.5680 C   0  0  0  0  0  0  0  0  0  0  0  0
    3.7556   -5.2450    5.7512 C   0  0  1  0  0  0  0  0  0  0  0  0
    3.2443   -6.5960    6.3024 C   0  0  0  0  0  0  0  0  0  0  0  0
    4.5632   -5.5361    4.4760 C   0  0  0  0  0  0  0  0  0  0  0  0
    5.1707   -6.7111    4.0962 C   0  0  0  0  0  0  0  0  0  0  0  0
    5.9583   -6.4797    2.9944 O   0  0  0  0  0  0  0  0  0  0  0  0
    5.6879   -5.1995    2.6653 C   0  0  0  0  0  0  0  0  0  0  0  0
    4.8945   -4.5801    3.5399 N   0  0  0  0  0  0  0  0  0  0  0  0
    4.5378   -4.7437    6.8388 O   0  0  0  0  0  0  0  0  0  0  0  0
    5.0648   -3.4083    6.8556 C   0  0  0  0  0  0  0  0  0  0  0  0
    5.5307   -3.2248    8.3212 C   0  0  0  0  0  0  0  0  0  0  0  0
    6.3642   -3.3730    6.0170 C   0  0  0  0  0  0  0  0  0  0  0  0
    4.0277   -2.3191    6.3776 C   0  0  2  0  0  0  0  0  0  0  0  0
    3.4747   -1.2358    7.3643 C   0  0  1  0  0  0  0  0  0  0  0  0
    3.0766    0.0682    6.6202 C   0  0  0  0  0  0  0  0  0  0  0  0
    1.6554    0.8848    6.9598 C   0  0  2  0  0  0  0  0  0  0  0  0
    1.8667    1.0617    8.5164 C   0  0  1  0  0  0  0  0  0  0  0  0
    3.1485    1.6605    8.6870 O   0  0  0  0  0  0  0  0  0  0  0  0
    1.0354    1.8334    9.6543 C   0  0  1  0  0  0  0  0  0  0  0  0
   -0.4443    1.5011   10.0444 C   0  0  0  0  0  0  0  0  0  0  0  0
    1.7802    1.5826   10.9937 C   0  0  0  0  0  0  0  0  0  0  0  0
    2.1958    0.1311   11.2428 C   0  0  0  0  0  0  0  0  0  0  0  0
    2.4059   -0.2613   12.3886 O   0  0  0  0  0  0  0  0  0  0  0  0
    2.4140   -0.6605   10.1682 O   0  0  0  0  0  0  0  0  0  0  0  0
    1.7528   -0.4827    8.9050 C   0  0  2  0  0  0  0  0  0  0  0  0
    2.1190   -1.6424    7.8064 C   0  0  1  0  0  0  0  0  0  0  0  0
    2.0414   -2.9624    8.6238 C   0  0  0  0  0  0  0  0  0  0  0  0
    1.5034    1.6680    5.6084 C   0  0  2  0  0  0  0  0  0  0  0  0
    2.6737    2.3871    5.2165 O   0  0  0  0  0  0  0  0  0  0  0  0
    1.2154    0.4371    4.5803 C   0  0  1  0  0  0  0  0  0  0  0  0
    2.2725    0.2791    3.6223 O   0  0  0  0  0  0  0  0  0  0  0  0
    2.1206    0.5351    2.3200 C   0  0  0  0  0  0  0  0  0  0  0  0
    1.1166    1.0110    1.8082 O   0  0  0  0  0  0  0  0  0  0  0  0
    3.6252    0.0620    1.3917 S   0  0  0  0  0  0  0  0  0  0  0  0
    4.7964   -0.2453    2.7549 C   0  0  0  0  0  0  0  0  0  0  0  0
   -3.1442    2.4073    3.6522 H   0  0  0  0  0  0  0  0  0  0  0  0
   -4.5016    2.6224    2.4183 H   0  0  0  0  0  0  0  0  0  0  0  0
   -3.6088    4.7098    1.7071 H   0  0  0  0  0  0  0  0  0  0  0  0
   -1.7614    6.2557    1.5260 H   0  0  0  0  0  0  0  0  0  0  0  0
   -0.4913    6.3584    2.8832 H   0  0  0  0  0  0  0  0  0  0  0  0
   -0.8355    5.1958    4.9039 H   0  0  0  0  0  0  0  0  0  0  0  0
   -2.1887    4.1354    5.0036 H   0  0  0  0  0  0  0  0  0  0  0  0
   -0.9171    2.3106    3.9036 H   0  0  0  0  0  0  0  0  0  0  0  0
    0.4266    3.3403    3.5910 H   0  0  0  0  0  0  0  0  0  0  0  0
    1.4245    4.2961    5.5977 H   0  0  0  0  0  0  0  0  0  0  0  0
   -0.3431    2.6654    7.6387 H   0  0  0  0  0  0  0  0  0  0  0  0
   -2.5011    1.9866    5.7088 H   0  0  0  0  0  0  0  0  0  0  0  0
   -2.3886    3.2351    6.9346 H   0  0  0  0  0  0  0  0  0  0  0  0
   -2.6075    1.5604    7.4149 H   0  0  0  0  0  0  0  0  0  0  0  0
   -0.3567    0.3638    7.9761 H   0  0  0  0  0  0  0  0  0  0  0  0
    0.9065   -2.0755    3.1764 H   0  0  0  0  0  0  0  0  0  0  0  0
   -0.5523   -1.2773    3.4680 H   0  0  0  0  0  0  0  0  0  0  0  0
   -0.2108   -2.7935    4.3192 H   0  0  0  0  0  0  0  0  0  0  0  0
    0.7629   -2.7336    6.4664 H   0  0  0  0  0  0  0  0  0  0  0  0
    3.2383   -1.6019    4.2092 H   0  0  0  0  0  0  0  0  0  0  0  0
    1.7571   -4.6278    6.3075 H   0  0  0  0  0  0  0  0  0  0  0  0
    2.0439   -4.6222    4.6268 H   0  0  0  0  0  0  0  0  0  0  0  0
    2.6434   -7.1081    5.5510 H   0  0  0  0  0  0  0  0  0  0  0  0
    2.6284   -6.4841    7.1993 H   0  0  0  0  0  0  0  0  0  0  0  0
    4.0707   -7.2498    6.5759 H   0  0  0  0  0  0  0  0  0  0  0  0
    5.2351   -7.6916    4.5549 H   0  0  0  0  0  0  0  0  0  0  0  0
    6.2088   -4.7216    1.8576 H   0  0  0  0  0  0  0  0  0  0  0  0
    6.0556   -2.2738    8.4506 H   0  0  0  0  0  0  0  0  0  0  0  0
    6.2341   -4.0189    8.5865 H   0  0  0  0  0  0  0  0  0  0  0  0
    4.7114   -3.2660    9.0420 H   0  0  0  0  0  0  0  0  0  0  0  0
    7.0192   -2.5686    6.3851 H   0  0  0  0  0  0  0  0  0  0  0  0
    6.1589   -3.2426    4.9636 H   0  0  0  0  0  0  0  0  0  0  0  0
    6.9210   -4.3024    6.1518 H   0  0  0  0  0  0  0  0  0  0  0  0
    4.6287   -1.7354    5.6851 H   0  0  0  0  0  0  0  0  0  0  0  0
    4.1302   -0.9969    8.2052 H   0  0  0  0  0  0  0  0  0  0  0  0
    3.9189    0.7399    6.7542 H   0  0  0  0  0  0  0  0  0  0  0  0
    3.2963   -0.1008    5.5850 H   0  0  0  0  0  0  0  0  0  0  0  0
    3.0834    2.5649    8.4115 H   0  0  0  0  0  0  0  0  0  0  0  0
    1.0817    2.9071    9.4689 H   0  0  0  0  0  0  0  0  0  0  0  0
   -0.5850    0.4566   10.3245 H   0  0  0  0  0  0  0  0  0  0  0  0
   -1.1908    1.7574    9.3029 H   0  0  0  0  0  0  0  0  0  0  0  0
   -0.7492    2.0839   10.9171 H   0  0  0  0  0  0  0  0  0  0  0  0
    2.6955    2.1625   11.0568 H   0  0  0  0  0  0  0  0  0  0  0  0
    1.1812    1.8960   11.8480 H   0  0  0  0  0  0  0  0  0  0  0  0
    0.7287   -0.7252    9.1680 H   0  0  0  0  0  0  0  0  0  0  0  0
    2.5746   -2.9179    9.5694 H   0  0  0  0  0  0  0  0  0  0  0  0
    2.4646   -3.8239    8.1228 H   0  0  0  0  0  0  0  0  0  0  0  0
    1.0025   -3.1976    8.8542 H   0  0  0  0  0  0  0  0  0  0  0  0
    2.5640    2.6705    4.3184 H   0  0  0  0  0  0  0  0  0  0  0  0
    0.3380    0.7349    4.0121 H   0  0  0  0  0  0  0  0  0  0  0  0
    5.7726   -0.5172    2.3448 H   0  0  0  0  0  0  0  0  0  0  0  0
    4.4434   -1.0419    3.3801 H   0  0  0  0  0  0  0  0  0  0  0  0
    4.9240    0.6811    3.3282 H   0  0  0  0  0  0  0  0  0  0  0  0
  1  2  2  0
  1 54  1  0
  1 55  1  0
  2  3  1  0
  2 56  1  0
  3  4  2  0
  3  5  1  0
  4 57  1  0
  4 58  1  0
  5  6  1  0
  5 59  1  0
  5 60  1  0
  6  7  1  0
  6 61  1  0
  6 62  1  0
  7 46  1  0
  7  8  1  1
  7  9  1  0
  8 63  1  0
  9 10  1  0
  9 11  1  0
  9 64  1  1
 10 65  1  0
 10 66  1  0
 10 67  1  0
 11 34  1  0
 11 12  1  0
 11 68  1  1
 12 13  2  0
 12 14  1  6
 14 48  1  0
 14 15  1  6
 14 16  1  0
 15 69  1  0
 15 70  1  0
 15 71  1  0
 16 44  1  0
 16 17  1  0
 16 72  1  1
 17 31  1  0
 17 18  1  6
 17 19  1  0
 18 73  1  0
 19 20  1  0
 19 74  1  0
 19 75  1  0
 20 21  1  1
 20 22  1  0
 20 27  1  0
 21 76  1  0
 21 77  1  0
 21 78  1  0
 22 26  1  0
 22 23  2  0
 23 24  1  0
 23 79  1  0
 24 25  1  0
 25 26  2  0
 25 80  1  0
 27 28  1  0
 28 29  1  0
 28 30  1  0
 28 31  1  0
 29 81  1  0
 29 82  1  0
 29 83  1  0
 30 84  1  0
 30 85  1  0
 30 86  1  0
 31 32  1  0
 31 87  1  6
 32 44  1  0
 32 33  1  0
 32 88  1  1
 34 33  1  6
 33 89  1  0
 33 90  1  0
 34 35  1  0
 34 46  1  0
 35 43  1  0
 35 36  1  6
 35 37  1  0
 36 91  1  0
 37 38  1  0
 37 39  1  0
 37 92  1  6
 38 93  1  0
 38 94  1  0
 38 95  1  0
 39 40  1  0
 39 96  1  0
 39 97  1  0
 40 41  2  0
 40 42  1  0
 42 43  1  0
 43 44  1  0
 43 98  1  1
 44 45  1  1
 45 99  1  0
 45100  1  0
 45101  1  0
 46 47  1  6
 46 48  1  0
 47102  1  0
 48 49  1  0
 48103  1  6
 49 50  1  0
 50 51  2  0
 50 52  1  0
 52 53  1  0
 53104  1  0
 53105  1  0
 53106  1  0
M  END
>  <i_m_ct_stereo_status>  (91) 
1

>  <s_m_source_file>  (91) 
/var/tmp/pbs.5075288.sched01/tmpq0rgj53d/65gxdktgdh.sdf

>  <i_m_source_file_index>  (91) 
27

>  <i_lp_mmshare_version>  (91) 
48012

>  <i_f3d_flags>  (91) 
0

>  <s_epik_input>  (91) 
W0NIMl09W0NIXUMoPVtDSDJdKVtDSDJdW0NIMl1bQ0BAXShbT0hdKShbQ0BASF0oW0NIM10pW0NAQEhdMVtDQF0yMzQpW0NAXTQoW09IXSlbQ0BASF0oT0MoPU8pU1tDSDNdKVtDQEBdKFtTK10xW08tXSkoW0NIM10pW0NIXTVbQ0BAXTYoW09IXSlbQ0BIXShDKFtDSDNdKShbQ0gzXSlPW0NAXShbQ0gyXTYpKFtDSDNdKWM3W2NIXW9bY0hdbjcpW0NAQEhdKFtDSDJdMilbQ0BAXTUoW0NIM10pW0NAQEhdOFtDQF0zKFtPSF0pW0NAQEhdKFtDSDNdKVtDSDJdQyg9TylPOA==

>  <s_epik_cmdline>  (91) 
J2VwaWtfcHl0aG9uJywgJy1waHQnLCAnMi4wJywgJy1waCcsICc3LjAnLCAnLXRuJywgJzgnLCAnLW1hJywgJzIwMCcsICctaW1hZScsICc8aW5maWxlLm1hZT4nLCAnLW9tYWUnLCAnPG91dGZpbGUubWFlPic=

>  <r_lp_tautomer_probability>  (91) 
1

>  <r_epik_Ionization_Penalty>  (91) 
1.09142e-05

>  <r_epik_Ionization_Penalty_Charging>  (91) 
0

>  <r_epik_Ionization_Penalty_Neutral>  (91) 
1.09142e-05

>  <r_epik_State_Penalty>  (91) 
-0

>  <r_epik_Charging_Adjusted_Penalty>  (91) 
0

>  <i_epik_Tot_Q>  (91) 
0

>  <i_epik_Tot_abs_Q>  (91) 
2

>  <s_epik_Chemistry_Notes>  (91) 
This compound has an ester and may undergo hydrolysis at high or low pH.

>  <s_lp_Force_Field>  (91) 
OPLS3e

>  <r_lp_Energy>  (91) 
292.273

>  <b_lp_Chiralities_Consistent>  (91) 
1

>  <s_lp_Variant>  (91) 
26:0-1

>  <s_i_glide_gridfile>  (91) 
pfpi4k_grid

>  <i_i_glide_lignum>  (91) 
27

>  <i_i_glide_rotatable_bonds>  (91) 
12

>  <r_i_docking_score>  (91) 
-2.2413

>  <r_i_glide_ligand_efficiency>  (91) 
-0.0422886

>  <r_i_glide_ligand_efficiency_sa>  (91) 
-0.158848

>  <r_i_glide_ligand_efficiency_ln>  (91) 
-0.450939

>  <r_i_glide_gscore>  (91) 
-2.2413

>  <r_i_glide_lipo>  (91) 
-0.183637

>  <r_i_glide_hbond>  (91) 
0

>  <r_i_glide_metal>  (91) 
-0

>  <r_i_glide_rewards>  (91) 
-0.5

>  <r_i_glide_evdw>  (91) 
-30.4811

>  <r_i_glide_ecoul>  (91) 
-0.0786288

>  <r_i_glide_erotb>  (91) 
0.0533664

>  <r_i_glide_esite>  (91) 
-0.0751775

>  <r_i_glide_emodel>  (91) 
-34.0344

>  <r_i_glide_energy>  (91) 
-30.5597

>  <r_i_glide_einternal>  (91) 
10.2235

>  <r_i_glide_intrahb_reward>  (91) 
-0.5

>  <i_i_glide_confnum>  (91) 
3

>  <i_i_glide_posenum>  (91) 
13

>  <r_i_glide_eff_state_penalty>  (91) 
0

>  <ligand_id>  (91) 
26

>  <original_smiles>  (91) 
C=CC(=C)CCC1(O)C(C)C2[S+]([O-])C3(C)C4C5(O)CC(C)(c6cocn6)OC(C)(C)C5C5CC2(C2(O)C(C)CC(=O)OC2C54C)C1(O)C3OC(=O)SC

>  <smiles>  (91) 
[H]OC12C([H])([H])C(c3nc([H])oc3[H])(C([H])([H])[H])OC(C([H])([H])[H])(C([H])([H])[H])C1([H])C1([H])C([H])([H])C34C5([H])S(=O)C(C([H])([H])[H])(C([H])(OC(=O)SC([H])([H])[H])C3(O[H])C(O[H])(C([H])([H])C([H])([H])C(=C([H])[H])C([H])=C([H])[H])C5([H])C([H])([H])[H])C2([H])C1(C([H])([H])[H])C1([H])OC(=O)C([H])([H])C([H])(C([H])([H])[H])C14O[H]

$$$$
26:1:0
     RDKit          3D

106113  0  0  1  0  0  0  0  0999 V2000
   -1.4064    6.0198    2.3174 C   0  0  0  0  0  0  0  0  0  0  0  0
   -2.1488    4.9781    2.7923 C   0  0  0  0  0  0  0  0  0  0  0  0
   -1.9165    4.2901    4.0464 C   0  0  0  0  0  0  0  0  0  0  0  0
   -2.7938    3.2897    4.3561 C   0  0  0  0  0  0  0  0  0  0  0  0
   -0.7050    4.6234    4.9162 C   0  0  0  0  0  0  0  0  0  0  0  0
   -0.7610    4.2576    6.4245 C   0  0  0  0  0  0  0  0  0  0  0  0
    0.5963    3.9402    7.1121 C   0  0  1  0  0  0  0  0  0  0  0  0
    1.3174    5.1666    7.1517 O   0  0  0  0  0  0  0  0  0  0  0  0
    0.4671    3.4369    8.5387 C   0  0  1  0  0  0  0  0  0  0  0  0
   -0.8599    3.6683    9.3001 C   0  0  0  0  0  0  0  0  0  0  0  0
    1.1627    2.0406    8.5465 C   0  0  1  0  0  0  0  0  0  0  0  0
   -0.0164    0.6237    8.4524 S   0  0  0  0  0  0  0  0  0  0  0  0
   -1.4360    1.1316    8.2166 O   0  0  0  0  0  0  0  0  0  0  0  0
    0.5566    0.1566    6.8064 C   0  0  2  0  0  0  0  0  0  0  0  0
   -0.5993   -0.7446    6.2911 C   0  0  0  0  0  0  0  0  0  0  0  0
    1.8650   -0.7030    7.1326 C   0  0  2  0  0  0  0  0  0  0  0  0
    2.4136   -1.8456    6.1954 C   0  0  2  0  0  0  0  0  0  0  0  0
    1.8152   -1.9355    4.8885 O   0  0  0  0  0  0  0  0  0  0  0  0
    2.2343   -3.2703    6.7727 C   0  0  0  0  0  0  0  0  0  0  0  0
    3.3561   -4.3155    6.4943 C   0  0  1  0  0  0  0  0  0  0  0  0
    3.3430   -5.3575    7.6320 C   0  0  0  0  0  0  0  0  0  0  0  0
    3.2543   -5.0668    5.1815 C   0  0  0  0  0  0  0  0  0  0  0  0
    4.2462   -5.7121    4.4855 C   0  0  0  0  0  0  0  0  0  0  0  0
    3.7228   -6.2744    3.3535 O   0  0  0  0  0  0  0  0  0  0  0  0
    2.3936   -6.0380    3.4562 C   0  0  0  0  0  0  0  0  0  0  0  0
    2.0496   -5.3651    4.5530 N   0  0  0  0  0  0  0  0  0  0  0  0
    4.6289   -3.6522    6.6502 O   0  0  0  0  0  0  0  0  0  0  0  0
    4.9663   -2.4568    5.9176 C   0  0  0  0  0  0  0  0  0  0  0  0
    6.3120   -2.0856    6.5525 C   0  0  0  0  0  0  0  0  0  0  0  0
    5.2554   -2.7536    4.4321 C   0  0  0  0  0  0  0  0  0  0  0  0
    3.8866   -1.3286    6.0117 C   0  0  2  0  0  0  0  0  0  0  0  0
    4.0803   -0.0967    6.9934 C   0  0  1  0  0  0  0  0  0  0  0  0
    3.4698    1.2860    6.5145 C   0  0  0  0  0  0  0  0  0  0  0  0
    2.4270    2.1681    7.5220 C   0  0  2  0  0  0  0  0  0  0  0  0
    3.4714    2.4802    8.6415 C   0  0  1  0  0  0  0  0  0  0  0  0
    4.6089    3.0840    8.0120 O   0  0  0  0  0  0  0  0  0  0  0  0
    3.4543    3.3366    9.9936 C   0  0  1  0  0  0  0  0  0  0  0  0
    2.4855    3.0980   11.2009 C   0  0  0  0  0  0  0  0  0  0  0  0
    4.8370    3.1405   10.6510 C   0  0  0  0  0  0  0  0  0  0  0  0
    5.3514    1.6918   10.6757 C   0  0  0  0  0  0  0  0  0  0  0  0
    6.1944    1.3604   11.4894 O   0  0  0  0  0  0  0  0  0  0  0  0
    4.9145    0.8467    9.6897 O   0  0  0  0  0  0  0  0  0  0  0  0
    3.6026    0.9592    9.1136 C   0  0  2  0  0  0  0  0  0  0  0  0
    3.1685   -0.3134    8.1456 C   0  0  1  0  0  0  0  0  0  0  0  0
    3.4665   -1.5246    9.0701 C   0  0  0  0  0  0  0  0  0  0  0  0
    1.4802    2.8242    6.4790 C   0  0  2  0  0  0  0  0  0  0  0  0
    2.2291    3.4422    5.4350 O   0  0  0  0  0  0  0  0  0  0  0  0
    0.5904    1.5582    5.9383 C   0  0  1  0  0  0  0  0  0  0  0  0
    0.9665    1.2996    4.5845 O   0  0  0  0  0  0  0  0  0  0  0  0
    0.1005    1.0394    3.5948 C   0  0  0  0  0  0  0  0  0  0  0  0
   -1.1123    0.8648    3.7170 O   0  0  0  0  0  0  0  0  0  0  0  0
    0.9432    0.9673    1.9852 S   0  0  0  0  0  0  0  0  0  0  0  0
    2.6234    1.4111    2.4747 C   0  0  0  0  0  0  0  0  0  0  0  0
   -0.5696    6.4310    2.8488 H   0  0  0  0  0  0  0  0  0  0  0  0
   -1.6652    6.4618    1.3665 H   0  0  0  0  0  0  0  0  0  0  0  0
   -2.9573    4.6340    2.1665 H   0  0  0  0  0  0  0  0  0  0  0  0
   -3.6356    3.0807    3.7166 H   0  0  0  0  0  0  0  0  0  0  0  0
   -2.7037    2.6894    5.2411 H   0  0  0  0  0  0  0  0  0  0  0  0
    0.0804    4.0944    4.3680 H   0  0  0  0  0  0  0  0  0  0  0  0
   -0.4161    5.6808    4.8928 H   0  0  0  0  0  0  0  0  0  0  0  0
   -1.1789    5.1334    6.9205 H   0  0  0  0  0  0  0  0  0  0  0  0
   -1.4714    3.4653    6.6558 H   0  0  0  0  0  0  0  0  0  0  0  0
    1.5033    5.4233    6.2633 H   0  0  0  0  0  0  0  0  0  0  0  0
    1.1408    4.0936    9.0826 H   0  0  0  0  0  0  0  0  0  0  0  0
   -1.7584    3.3581    8.7718 H   0  0  0  0  0  0  0  0  0  0  0  0
   -0.9860    4.7303    9.5155 H   0  0  0  0  0  0  0  0  0  0  0  0
   -0.8533    3.1355   10.2495 H   0  0  0  0  0  0  0  0  0  0  0  0
    1.3823    1.8566    9.5729 H   0  0  0  0  0  0  0  0  0  0  0  0
   -0.4453   -1.0961    5.2768 H   0  0  0  0  0  0  0  0  0  0  0  0
   -1.5390   -0.1943    6.2445 H   0  0  0  0  0  0  0  0  0  0  0  0
   -0.7350   -1.6282    6.9112 H   0  0  0  0  0  0  0  0  0  0  0  0
    1.9261   -0.2402    6.1813 H   0  0  0  0  0  0  0  0  0  0  0  0
    2.0317   -1.1550    4.4057 H   0  0  0  0  0  0  0  0  0  0  0  0
    2.0755   -3.1997    7.8416 H   0  0  0  0  0  0  0  0  0  0  0  0
    1.2885   -3.6814    6.4420 H   0  0  0  0  0  0  0  0  0  0  0  0
    2.4174   -5.9288    7.6211 H   0  0  0  0  0  0  0  0  0  0  0  0
    3.4442   -4.8937    8.6159 H   0  0  0  0  0  0  0  0  0  0  0  0
    4.1712   -6.0564    7.5175 H   0  0  0  0  0  0  0  0  0  0  0  0
    5.3098   -5.8428    4.6724 H   0  0  0  0  0  0  0  0  0  0  0  0
    1.7059   -6.4132    2.7060 H   0  0  0  0  0  0  0  0  0  0  0  0
    6.7286   -1.1915    6.0884 H   0  0  0  0  0  0  0  0  0  0  0  0
    7.0201   -2.9071    6.4114 H   0  0  0  0  0  0  0  0  0  0  0  0
    6.2257   -1.9242    7.6318 H   0  0  0  0  0  0  0  0  0  0  0  0
    5.7195   -1.9001    3.9246 H   0  0  0  0  0  0  0  0  0  0  0  0
    4.3400   -2.9822    3.8855 H   0  0  0  0  0  0  0  0  0  0  0  0
    5.9382   -3.5968    4.3508 H   0  0  0  0  0  0  0  0  0  0  0  0
    3.9453   -0.8421    5.0407 H   0  0  0  0  0  0  0  0  0  0  0  0
    5.1088    0.0590    7.3162 H   0  0  0  0  0  0  0  0  0  0  0  0
    4.3083    1.8653    6.1431 H   0  0  0  0  0  0  0  0  0  0  0  0
    3.0913    1.1692    5.5088 H   0  0  0  0  0  0  0  0  0  0  0  0
    4.7825    2.6453    7.2035 H   0  0  0  0  0  0  0  0  0  0  0  0
    3.3778    4.3919    9.7293 H   0  0  0  0  0  0  0  0  0  0  0  0
    2.5277    2.0774   11.5855 H   0  0  0  0  0  0  0  0  0  0  0  0
    1.4451    3.3495   11.0164 H   0  0  0  0  0  0  0  0  0  0  0  0
    2.7601    3.7467   12.0359 H   0  0  0  0  0  0  0  0  0  0  0  0
    5.6049    3.6979   10.1369 H   0  0  0  0  0  0  0  0  0  0  0  0
    4.8536    3.4872   11.6734 H   0  0  0  0  0  0  0  0  0  0  0  0
    2.9746    0.7993    9.9878 H   0  0  0  0  0  0  0  0  0  0  0  0
    4.1376   -1.3068    9.8938 H   0  0  0  0  0  0  0  0  0  0  0  0
    3.9448   -2.3527    8.5640 H   0  0  0  0  0  0  0  0  0  0  0  0
    2.5475   -1.8688    9.5415 H   0  0  0  0  0  0  0  0  0  0  0  0
    1.6423    3.6402    4.7246 H   0  0  0  0  0  0  0  0  0  0  0  0
   -0.4520    1.8812    5.9148 H   0  0  0  0  0  0  0  0  0  0  0  0
    3.2764    1.3471    1.6029 H   0  0  0  0  0  0  0  0  0  0  0  0
    2.9924    0.7146    3.2338 H   0  0  0  0  0  0  0  0  0  0  0  0
    2.6245    2.4368    2.8583 H   0  0  0  0  0  0  0  0  0  0  0  0
  1  2  2  0
  1 54  1  0
  1 55  1  0
  2  3  1  0
  2 56  1  0
  3  4  2  0
  3  5  1  0
  4 57  1  0
  4 58  1  0
  5  6  1  0
  5 59  1  0
  5 60  1  0
  6  7  1  0
  6 61  1  0
  6 62  1  0
  7 46  1  0
  7  8  1  1
  7  9  1  0
  8 63  1  0
  9 10  1  0
  9 11  1  0
  9 64  1  1
 10 65  1  0
 10 66  1  0
 10 67  1  0
 11 34  1  0
 11 12  1  0
 11 68  1  1
 12 13  2  0
 12 14  1  6
 14 48  1  0
 14 15  1  6
 14 16  1  0
 15 69  1  0
 15 70  1  0
 15 71  1  0
 16 44  1  0
 16 17  1  0
 16 72  1  1
 17 31  1  0
 17 18  1  6
 17 19  1  0
 18 73  1  0
 19 20  1  0
 19 74  1  0
 19 75  1  0
 20 21  1  1
 20 22  1  0
 20 27  1  0
 21 76  1  0
 21 77  1  0
 21 78  1  0
 22 26  1  0
 22 23  2  0
 23 24  1  0
 23 79  1  0
 24 25  1  0
 25 26  2  0
 25 80  1  0
 27 28  1  0
 28 29  1  0
 28 30  1  0
 28 31  1  0
 29 81  1  0
 29 82  1  0
 29 83  1  0
 30 84  1  0
 30 85  1  0
 30 86  1  0
 31 32  1  0
 31 87  1  6
 32 44  1  0
 32 33  1  0
 32 88  1  1
 34 33  1  6
 33 89  1  0
 33 90  1  0
 34 35  1  0
 34 46  1  0
 35 43  1  0
 35 36  1  6
 35 37  1  0
 36 91  1  0
 37 38  1  0
 37 39  1  0
 37 92  1  6
 38 93  1  0
 38 94  1  0
 38 95  1  0
 39 40  1  0
 39 96  1  0
 39 97  1  0
 40 41  2  0
 40 42  1  0
 42 43  1  0
 43 44  1  0
 43 98  1  1
 44 45  1  1
 45 99  1  0
 45100  1  0
 45101  1  0
 46 47  1  6
 46 48  1  0
 47102  1  0
 48 49  1  0
 48103  1  6
 49 50  1  0
 50 51  2  0
 50 52  1  0
 52 53  1  0
 53104  1  0
 53105  1  0
 53106  1  0
M  END
>  <i_m_ct_stereo_status>  (92) 
1

>  <s_m_source_file>  (92) 
/var/tmp/pbs.5075288.sched01/tmpq0rgj53d/65gxdktgdh.sdf

>  <i_m_source_file_index>  (92) 
28

>  <i_lp_mmshare_version>  (92) 
48012

>  <i_f3d_flags>  (92) 
0

>  <s_epik_input>  (92) 
W0NIMl09W0NIXUMoPVtDSDJdKVtDSDJdW0NIMl1bQ0BAXShbT0hdKShbQ0BASF0oW0NIM10pW0NAQEhdMVtDQF0yMzQpW0NAXTQoW09IXSlbQ0BASF0oT0MoPU8pU1tDSDNdKVtDQEBdKFtTK10xW08tXSkoW0NIM10pW0NIXTVbQ0BAXTYoW09IXSlbQ0BIXShDKFtDSDNdKShbQ0gzXSlPW0NAXShbQ0gyXTYpKFtDSDNdKWM3W2NIXW9bY0hdbjcpW0NAQEhdKFtDSDJdMilbQ0BAXTUoW0NIM10pW0NAQEhdOFtDQF0zKFtPSF0pW0NAQEhdKFtDSDNdKVtDSDJdQyg9TylPOA==

>  <s_epik_cmdline>  (92) 
J2VwaWtfcHl0aG9uJywgJy1waHQnLCAnMi4wJywgJy1waCcsICc3LjAnLCAnLXRuJywgJzgnLCAnLW1hJywgJzIwMCcsICctaW1hZScsICc8aW5maWxlLm1hZT4nLCAnLW9tYWUnLCAnPG91dGZpbGUubWFlPic=

>  <r_lp_tautomer_probability>  (92) 
1

>  <r_epik_Ionization_Penalty>  (92) 
1.09142e-05

>  <r_epik_Ionization_Penalty_Charging>  (92) 
0

>  <r_epik_Ionization_Penalty_Neutral>  (92) 
1.09142e-05

>  <r_epik_State_Penalty>  (92) 
-0

>  <r_epik_Charging_Adjusted_Penalty>  (92) 
0

>  <i_epik_Tot_Q>  (92) 
0

>  <i_epik_Tot_abs_Q>  (92) 
2

>  <s_epik_Chemistry_Notes>  (92) 
This compound has an ester and may undergo hydrolysis at high or low pH.

>  <s_lp_Force_Field>  (92) 
OPLS3e

>  <r_lp_Energy>  (92) 
353.73

>  <b_lp_Chiralities_Consistent>  (92) 
1

>  <s_lp_Variant>  (92) 
26:0-2

>  <s_i_glide_gridfile>  (92) 
pfpi4k_grid

>  <i_i_glide_lignum>  (92) 
28

>  <i_i_glide_rotatable_bonds>  (92) 
12

>  <r_i_docking_score>  (92) 
-2.36971

>  <r_i_glide_ligand_efficiency>  (92) 
-0.0447115

>  <r_i_glide_ligand_efficiency_sa>  (92) 
-0.167949

>  <r_i_glide_ligand_efficiency_ln>  (92) 
-0.476775

>  <r_i_glide_gscore>  (92) 
-2.36971

>  <r_i_glide_lipo>  (92) 
-0.0865262

>  <r_i_glide_hbond>  (92) 
-0.348216

>  <r_i_glide_metal>  (92) 
-0

>  <r_i_glide_rewards>  (92) 
0

>  <r_i_glide_evdw>  (92) 
-24.9396

>  <r_i_glide_ecoul>  (92) 
-4.53889

>  <r_i_glide_erotb>  (92) 
0.0533664

>  <r_i_glide_esite>  (92) 
-0.0605194

>  <r_i_glide_emodel>  (92) 
-29.6996

>  <r_i_glide_energy>  (92) 
-29.4785

>  <r_i_glide_einternal>  (92) 
7.59029

>  <r_i_glide_intrahb_reward>  (92) 
-0

>  <i_i_glide_confnum>  (92) 
9

>  <i_i_glide_posenum>  (92) 
35

>  <r_i_glide_eff_state_penalty>  (92) 
0

>  <ligand_id>  (92) 
26

>  <original_smiles>  (92) 
C=CC(=C)CCC1(O)C(C)C2[S+]([O-])C3(C)C4C5(O)CC(C)(c6cocn6)OC(C)(C)C5C5CC2(C2(O)C(C)CC(=O)OC2C54C)C1(O)C3OC(=O)SC

>  <smiles>  (92) 
[H]OC12C([H])([H])C(c3nc([H])oc3[H])(C([H])([H])[H])OC(C([H])([H])[H])(C([H])([H])[H])C1([H])C1([H])C([H])([H])C34C5([H])S(=O)C(C([H])([H])[H])(C([H])(OC(=O)SC([H])([H])[H])C3(O[H])C(O[H])(C([H])([H])C([H])([H])C(=C([H])[H])C([H])=C([H])[H])C5([H])C([H])([H])[H])C2([H])C1(C([H])([H])[H])C1([H])OC(=O)C([H])([H])C([H])(C([H])([H])[H])C14O[H]

$$$$
26:1:1
     RDKit          3D

106113  0  0  1  0  0  0  0  0999 V2000
   -2.0491    3.2122   10.6854 C   0  0  0  0  0  0  0  0  0  0  0  0
   -2.9958    3.0694    9.7431 C   0  0  0  0  0  0  0  0  0  0  0  0
   -2.7004    2.7939    8.3391 C   0  0  0  0  0  0  0  0  0  0  0  0
   -3.7336    2.7515    7.4858 C   0  0  0  0  0  0  0  0  0  0  0  0
   -1.2619    2.5784    7.8493 C   0  0  0  0  0  0  0  0  0  0  0  0
   -0.5397    1.3286    8.4802 C   0  0  0  0  0  0  0  0  0  0  0  0
    1.0033    1.2964    8.2442 C   0  0  1  0  0  0  0  0  0  0  0  0
    1.5027    2.5330    8.7595 O   0  0  0  0  0  0  0  0  0  0  0  0
    1.7556    0.1826    8.9772 C   0  0  1  0  0  0  0  0  0  0  0  0
    1.0538   -0.5599   10.1382 C   0  0  0  0  0  0  0  0  0  0  0  0
    2.5123   -0.6004    7.8672 C   0  0  1  0  0  0  0  0  0  0  0  0
    1.6561   -2.1621    7.3766 S   0  0  0  0  0  0  0  0  0  0  0  0
    0.3129   -2.3244    8.0871 O   0  0  0  0  0  0  0  0  0  0  0  0
    1.3020   -1.5079    5.7292 C   0  0  2  0  0  0  0  0  0  0  0  0
    0.1781   -2.4473    5.2276 C   0  0  0  0  0  0  0  0  0  0  0  0
    2.6942   -1.7799    4.9645 C   0  0  2  0  0  0  0  0  0  0  0  0
    2.8076   -2.0307    3.4031 C   0  0  2  0  0  0  0  0  0  0  0  0
    1.6397   -1.8202    2.6297 O   0  0  0  0  0  0  0  0  0  0  0  0
    3.1659   -3.4737    2.9788 C   0  0  0  0  0  0  0  0  0  0  0  0
    4.0764   -3.6319    1.7090 C   0  0  1  0  0  0  0  0  0  0  0  0
    4.8152   -4.9675    1.8651 C   0  0  0  0  0  0  0  0  0  0  0  0
    3.4062   -3.6609    0.3528 C   0  0  0  0  0  0  0  0  0  0  0  0
    3.7907   -3.1787   -0.8790 C   0  0  0  0  0  0  0  0  0  0  0  0
    2.8120   -3.3652   -1.7903 O   0  0  0  0  0  0  0  0  0  0  0  0
    1.8640   -4.0864   -1.1222 C   0  0  0  0  0  0  0  0  0  0  0  0
    2.2452   -4.3775    0.1212 N   0  0  0  0  0  0  0  0  0  0  0  0
    5.0920   -2.6226    1.7720 O   0  0  0  0  0  0  0  0  0  0  0  0
    4.7863   -1.2327    1.8496 C   0  0  0  0  0  0  0  0  0  0  0  0
    6.1950   -0.6611    2.0200 C   0  0  0  0  0  0  0  0  0  0  0  0
    4.2709   -0.6090    0.5373 C   0  0  0  0  0  0  0  0  0  0  0  0
    3.8160   -0.8810    3.0311 C   0  0  2  0  0  0  0  0  0  0  0  0
    4.3568   -0.2739    4.3969 C   0  0  1  0  0  0  0  0  0  0  0  0
    3.3996    0.7585    5.1479 C   0  0  0  0  0  0  0  0  0  0  0  0
    2.9712    0.5331    6.7694 C   0  0  2  0  0  0  0  0  0  0  0  0
    4.4214    0.7087    7.3689 C   0  0  1  0  0  0  0  0  0  0  0  0
    4.9058    1.9795    6.9065 O   0  0  0  0  0  0  0  0  0  0  0  0
    5.0362    0.7283    8.8445 C   0  0  1  0  0  0  0  0  0  0  0  0
    4.9330   -0.4341    9.8878 C   0  0  0  0  0  0  0  0  0  0  0  0
    6.5785    0.8787    8.6772 C   0  0  0  0  0  0  0  0  0  0  0  0
    7.2093   -0.0344    7.6046 C   0  0  0  0  0  0  0  0  0  0  0  0
    8.3944   -0.3352    7.6916 O   0  0  0  0  0  0  0  0  0  0  0  0
    6.4267   -0.4143    6.5667 O   0  0  0  0  0  0  0  0  0  0  0  0
    5.0084   -0.6232    6.7073 C   0  0  2  0  0  0  0  0  0  0  0  0
    4.2769   -1.3628    5.4154 C   0  0  1  0  0  0  0  0  0  0  0  0
    5.1913   -2.6062    5.1977 C   0  0  0  0  0  0  0  0  0  0  0  0
    1.5153    1.1192    6.7773 C   0  0  2  0  0  0  0  0  0  0  0  0
    1.4253    2.4139    6.1614 O   0  0  0  0  0  0  0  0  0  0  0  0
    0.6694    0.0007    5.9392 C   0  0  1  0  0  0  0  0  0  0  0  0
    0.2632    0.5187    4.6606 O   0  0  0  0  0  0  0  0  0  0  0  0
   -0.9654    0.9992    4.3907 C   0  0  0  0  0  0  0  0  0  0  0  0
   -1.8945    1.0162    5.1902 O   0  0  0  0  0  0  0  0  0  0  0  0
   -1.0444    1.7406    2.7215 S   0  0  0  0  0  0  0  0  0  0  0  0
    0.4878    1.0599    2.0643 C   0  0  0  0  0  0  0  0  0  0  0  0
   -0.9922    3.1517   10.4467 H   0  0  0  0  0  0  0  0  0  0  0  0
   -2.3100    3.3958   11.7260 H   0  0  0  0  0  0  0  0  0  0  0  0
   -4.0320    3.1588   10.0606 H   0  0  0  0  0  0  0  0  0  0  0  0
   -4.7545    2.9141    7.8231 H   0  0  0  0  0  0  0  0  0  0  0  0
   -3.5949    2.5513    6.4381 H   0  0  0  0  0  0  0  0  0  0  0  0
   -1.2342    2.5490    6.7493 H   0  0  0  0  0  0  0  0  0  0  0  0
   -0.7531    3.4996    8.1231 H   0  0  0  0  0  0  0  0  0  0  0  0
   -0.6952    1.2870    9.5523 H   0  0  0  0  0  0  0  0  0  0  0  0
   -1.0240    0.4119    8.1573 H   0  0  0  0  0  0  0  0  0  0  0  0
    1.0070    3.2255    8.3640 H   0  0  0  0  0  0  0  0  0  0  0  0
    2.5348    0.7160    9.5157 H   0  0  0  0  0  0  0  0  0  0  0  0
    0.0572   -0.9162    9.8938 H   0  0  0  0  0  0  0  0  0  0  0  0
    0.9352    0.1067   10.9925 H   0  0  0  0  0  0  0  0  0  0  0  0
    1.6443   -1.4109   10.4698 H   0  0  0  0  0  0  0  0  0  0  0  0
    3.2862   -1.1362    8.3668 H   0  0  0  0  0  0  0  0  0  0  0  0
   -0.1910   -2.1679    4.2434 H   0  0  0  0  0  0  0  0  0  0  0  0
   -0.6898   -2.4296    5.8841 H   0  0  0  0  0  0  0  0  0  0  0  0
    0.5196   -3.4814    5.1762 H   0  0  0  0  0  0  0  0  0  0  0  0
    2.1616   -0.9683    4.5235 H   0  0  0  0  0  0  0  0  0  0  0  0
    1.9330   -1.6806    1.7350 H   0  0  0  0  0  0  0  0  0  0  0  0
    3.5999   -3.9963    3.8230 H   0  0  0  0  0  0  0  0  0  0  0  0
    2.2534   -4.0638    2.8429 H   0  0  0  0  0  0  0  0  0  0  0  0
    4.1089   -5.8068    1.8439 H   0  0  0  0  0  0  0  0  0  0  0  0
    5.3643   -5.0180    2.8000 H   0  0  0  0  0  0  0  0  0  0  0  0
    5.5205   -5.1027    1.0439 H   0  0  0  0  0  0  0  0  0  0  0  0
    4.7003   -2.6844   -1.2353 H   0  0  0  0  0  0  0  0  0  0  0  0
    1.0111   -4.4823   -1.6452 H   0  0  0  0  0  0  0  0  0  0  0  0
    6.1374    0.4148    2.1340 H   0  0  0  0  0  0  0  0  0  0  0  0
    6.8218   -0.9144    1.1562 H   0  0  0  0  0  0  0  0  0  0  0  0
    6.6855   -1.0701    2.8934 H   0  0  0  0  0  0  0  0  0  0  0  0
    4.2396    0.4799    0.5764 H   0  0  0  0  0  0  0  0  0  0  0  0
    3.2553   -0.9294    0.3276 H   0  0  0  0  0  0  0  0  0  0  0  0
    4.9168   -0.9167   -0.2873 H   0  0  0  0  0  0  0  0  0  0  0  0
    3.2366   -0.0399    2.6542 H   0  0  0  0  0  0  0  0  0  0  0  0
    5.3556    0.1576    4.3211 H   0  0  0  0  0  0  0  0  0  0  0  0
    3.8250    1.7430    4.9377 H   0  0  0  0  0  0  0  0  0  0  0  0
    2.5567    0.9679    4.5034 H   0  0  0  0  0  0  0  0  0  0  0  0
    4.7057    2.0722    5.9973 H   0  0  0  0  0  0  0  0  0  0  0  0
    4.6944    1.6318    9.3524 H   0  0  0  0  0  0  0  0  0  0  0  0
    5.3138   -1.3817    9.5085 H   0  0  0  0  0  0  0  0  0  0  0  0
    3.9423   -0.6065   10.2878 H   0  0  0  0  0  0  0  0  0  0  0  0
    5.5277   -0.2039   10.7721 H   0  0  0  0  0  0  0  0  0  0  0  0
    6.8554    1.8942    8.4071 H   0  0  0  0  0  0  0  0  0  0  0  0
    7.1107    0.6783    9.6017 H   0  0  0  0  0  0  0  0  0  0  0  0
    4.9918   -1.4188    7.4506 H   0  0  0  0  0  0  0  0  0  0  0  0
    6.1705   -2.5494    5.6663 H   0  0  0  0  0  0  0  0  0  0  0  0
    5.4142   -2.8092    4.1583 H   0  0  0  0  0  0  0  0  0  0  0  0
    4.7291   -3.4914    5.6370 H   0  0  0  0  0  0  0  0  0  0  0  0
    2.0310    2.9904    6.5827 H   0  0  0  0  0  0  0  0  0  0  0  0
   -0.2488   -0.1917    6.4811 H   0  0  0  0  0  0  0  0  0  0  0  0
    0.6042    1.2026    0.9850 H   0  0  0  0  0  0  0  0  0  0  0  0
    0.3965   -0.0087    2.2546 H   0  0  0  0  0  0  0  0  0  0  0  0
    1.3468    1.4860    2.5994 H   0  0  0  0  0  0  0  0  0  0  0  0
  1  2  2  0
  1 54  1  0
  1 55  1  0
  2  3  1  0
  2 56  1  0
  3  4  2  0
  3  5  1  0
  4 57  1  0
  4 58  1  0
  5  6  1  0
  5 59  1  0
  5 60  1  0
  6  7  1  0
  6 61  1  0
  6 62  1  0
  7 46  1  0
  7  8  1  1
  7  9  1  0
  8 63  1  0
  9 10  1  0
  9 11  1  0
  9 64  1  1
 10 65  1  0
 10 66  1  0
 10 67  1  0
 11 34  1  0
 11 12  1  0
 11 68  1  1
 12 13  2  0
 12 14  1  6
 14 48  1  0
 14 15  1  6
 14 16  1  0
 15 69  1  0
 15 70  1  0
 15 71  1  0
 16 44  1  0
 16 17  1  0
 16 72  1  1
 17 31  1  0
 17 18  1  6
 17 19  1  0
 18 73  1  0
 19 20  1  0
 19 74  1  0
 19 75  1  0
 20 21  1  1
 20 22  1  0
 20 27  1  0
 21 76  1  0
 21 77  1  0
 21 78  1  0
 22 26  1  0
 22 23  2  0
 23 24  1  0
 23 79  1  0
 24 25  1  0
 25 26  2  0
 25 80  1  0
 27 28  1  0
 28 29  1  0
 28 30  1  0
 28 31  1  0
 29 81  1  0
 29 82  1  0
 29 83  1  0
 30 84  1  0
 30 85  1  0
 30 86  1  0
 31 32  1  0
 31 87  1  6
 32 44  1  0
 32 33  1  0
 32 88  1  6
 34 33  1  6
 33 89  1  0
 33 90  1  0
 34 35  1  0
 34 46  1  0
 35 43  1  0
 35 36  1  6
 35 37  1  0
 36 91  1  0
 37 38  1  0
 37 39  1  0
 37 92  1  1
 38 93  1  0
 38 94  1  0
 38 95  1  0
 39 40  1  0
 39 96  1  0
 39 97  1  0
 40 41  2  0
 40 42  1  0
 42 43  1  0
 43 44  1  0
 43 98  1  1
 44 45  1  6
 45 99  1  0
 45100  1  0
 45101  1  0
 46 47  1  6
 46 48  1  0
 47102  1  0
 48 49  1  0
 48103  1  1
 49 50  1  0
 50 51  2  0
 50 52  1  0
 52 53  1  0
 53104  1  0
 53105  1  0
 53106  1  0
M  END
>  <i_m_ct_stereo_status>  (93) 
1

>  <s_m_source_file>  (93) 
/var/tmp/pbs.5075288.sched01/tmpq0rgj53d/65gxdktgdh.sdf

>  <i_m_source_file_index>  (93) 
28

>  <i_lp_mmshare_version>  (93) 
48012

>  <i_f3d_flags>  (93) 
0

>  <s_epik_input>  (93) 
W0NIMl09W0NIXUMoPVtDSDJdKVtDSDJdW0NIMl1bQ0BAXShbT0hdKShbQ0BASF0oW0NIM10pW0NAQEhdMVtDQF0yMzQpW0NAXTQoW09IXSlbQ0BASF0oT0MoPU8pU1tDSDNdKVtDQEBdKFtTK10xW08tXSkoW0NIM10pW0NIXTVbQ0BAXTYoW09IXSlbQ0BIXShDKFtDSDNdKShbQ0gzXSlPW0NAXShbQ0gyXTYpKFtDSDNdKWM3W2NIXW9bY0hdbjcpW0NAQEhdKFtDSDJdMilbQ0BAXTUoW0NIM10pW0NAQEhdOFtDQF0zKFtPSF0pW0NAQEhdKFtDSDNdKVtDSDJdQyg9TylPOA==

>  <s_epik_cmdline>  (93) 
J2VwaWtfcHl0aG9uJywgJy1waHQnLCAnMi4wJywgJy1waCcsICc3LjAnLCAnLXRuJywgJzgnLCAnLW1hJywgJzIwMCcsICctaW1hZScsICc8aW5maWxlLm1hZT4nLCAnLW9tYWUnLCAnPG91dGZpbGUubWFlPic=

>  <r_lp_tautomer_probability>  (93) 
1

>  <r_epik_Ionization_Penalty>  (93) 
1.09142e-05

>  <r_epik_Ionization_Penalty_Charging>  (93) 
0

>  <r_epik_Ionization_Penalty_Neutral>  (93) 
1.09142e-05

>  <r_epik_State_Penalty>  (93) 
-0

>  <r_epik_Charging_Adjusted_Penalty>  (93) 
0

>  <i_epik_Tot_Q>  (93) 
0

>  <i_epik_Tot_abs_Q>  (93) 
2

>  <s_epik_Chemistry_Notes>  (93) 
This compound has an ester and may undergo hydrolysis at high or low pH.

>  <s_lp_Force_Field>  (93) 
OPLS3e

>  <r_lp_Energy>  (93) 
353.73

>  <b_lp_Chiralities_Consistent>  (93) 
1

>  <s_lp_Variant>  (93) 
26:0-2

>  <s_i_glide_gridfile>  (93) 
pfpi4k_grid

>  <i_i_glide_lignum>  (93) 
28

>  <i_i_glide_rotatable_bonds>  (93) 
12

>  <r_i_docking_score>  (93) 
-2.22885

>  <r_i_glide_ligand_efficiency>  (93) 
-0.0420537

>  <r_i_glide_ligand_efficiency_sa>  (93) 
-0.157966

>  <r_i_glide_ligand_efficiency_ln>  (93) 
-0.448434

>  <r_i_glide_gscore>  (93) 
-2.22885

>  <r_i_glide_lipo>  (93) 
-0.476731

>  <r_i_glide_hbond>  (93) 
-0.0181322

>  <r_i_glide_metal>  (93) 
-0

>  <r_i_glide_rewards>  (93) 
-0.0819539

>  <r_i_glide_evdw>  (93) 
-30.7392

>  <r_i_glide_ecoul>  (93) 
-2.88606

>  <r_i_glide_erotb>  (93) 
0.0533664

>  <r_i_glide_esite>  (93) 
-0.0237294

>  <r_i_glide_emodel>  (93) 
-30.0884

>  <r_i_glide_energy>  (93) 
-33.6253

>  <r_i_glide_einternal>  (93) 
7.8692

>  <r_i_glide_intrahb_reward>  (93) 
-0

>  <i_i_glide_confnum>  (93) 
11

>  <i_i_glide_posenum>  (93) 
33

>  <r_i_glide_eff_state_penalty>  (93) 
0

>  <ligand_id>  (93) 
26

>  <original_smiles>  (93) 
C=CC(=C)CCC1(O)C(C)C2[S+]([O-])C3(C)C4C5(O)CC(C)(c6cocn6)OC(C)(C)C5C5CC2(C2(O)C(C)CC(=O)OC2C54C)C1(O)C3OC(=O)SC

>  <smiles>  (93) 
[H]OC12C([H])([H])C(c3nc([H])oc3[H])(C([H])([H])[H])OC(C([H])([H])[H])(C([H])([H])[H])C1([H])C1([H])C([H])([H])C34C5([H])S(=O)C(C([H])([H])[H])(C([H])(OC(=O)SC([H])([H])[H])C3(O[H])C(O[H])(C([H])([H])C([H])([H])C(=C([H])[H])C([H])=C([H])[H])C5([H])C([H])([H])[H])C2([H])C1(C([H])([H])[H])C1([H])OC(=O)C([H])([H])C([H])(C([H])([H])[H])C14O[H]

$$$$
26:1:2
     RDKit          3D

106113  0  0  1  0  0  0  0  0999 V2000
    6.4680   -4.3892    0.0473 C   0  0  0  0  0  0  0  0  0  0  0  0
    7.3850   -5.0876    0.7381 C   0  0  0  0  0  0  0  0  0  0  0  0
    7.2187   -5.5370    2.1176 C   0  0  0  0  0  0  0  0  0  0  0  0
    8.2375   -6.2340    2.6694 C   0  0  0  0  0  0  0  0  0  0  0  0
    5.9187   -5.1680    2.8716 C   0  0  0  0  0  0  0  0  0  0  0  0
    5.9979   -5.1530    4.4360 C   0  0  0  0  0  0  0  0  0  0  0  0
    4.6225   -5.1763    5.1616 C   0  0  1  0  0  0  0  0  0  0  0  0
    4.1375   -6.4900    4.9217 O   0  0  0  0  0  0  0  0  0  0  0  0
    4.6984   -4.9669    6.6685 C   0  0  1  0  0  0  0  0  0  0  0  0
    6.0713   -5.0667    7.3858 C   0  0  0  0  0  0  0  0  0  0  0  0
    3.7309   -3.7799    6.9615 C   0  0  1  0  0  0  0  0  0  0  0  0
    4.5900   -2.1662    7.2158 S   0  0  0  0  0  0  0  0  0  0  0  0
    6.0970   -2.2882    6.9829 O   0  0  0  0  0  0  0  0  0  0  0  0
    3.8773   -1.4965    5.6952 C   0  0  2  0  0  0  0  0  0  0  0  0
    4.7937   -0.2839    5.3955 C   0  0  0  0  0  0  0  0  0  0  0  0
    2.4250   -1.0315    6.2012 C   0  0  2  0  0  0  0  0  0  0  0  0
    1.6203    0.1431    5.5248 C   0  0  2  0  0  0  0  0  0  0  0  0
    2.0939    0.6411    4.2640 O   0  0  0  0  0  0  0  0  0  0  0  0
    1.5061    1.4256    6.3979 C   0  0  0  0  0  0  0  0  0  0  0  0
    0.1833    2.2367    6.3397 C   0  0  1  0  0  0  0  0  0  0  0  0
   -0.0125    2.9781    7.6819 C   0  0  0  0  0  0  0  0  0  0  0  0
    0.0422    3.2579    5.2205 C   0  0  0  0  0  0  0  0  0  0  0  0
   -1.0726    3.7923    4.6723 C   0  0  0  0  0  0  0  0  0  0  0  0
   -0.7433    4.7028    3.7111 O   0  0  0  0  0  0  0  0  0  0  0  0
    0.6098    4.6862    3.7349 C   0  0  0  0  0  0  0  0  0  0  0  0
    1.1325    3.8887    4.6615 N   0  0  0  0  0  0  0  0  0  0  0  0
   -0.8916    1.2755    6.3088 O   0  0  0  0  0  0  0  0  0  0  0  0
   -0.9772    0.2726    5.2809 C   0  0  0  0  0  0  0  0  0  0  0  0
   -2.1315   -0.5348    5.8138 C   0  0  0  0  0  0  0  0  0  0  0  0
   -1.3933    0.8671    3.9281 C   0  0  0  0  0  0  0  0  0  0  0  0
    0.2968   -0.6085    5.1785 C   0  0  2  0  0  0  0  0  0  0  0  0
    0.3838   -2.0402    5.8688 C   0  0  1  0  0  0  0  0  0  0  0  0
    1.2390   -3.1328    5.1031 C   0  0  0  0  0  0  0  0  0  0  0  0
    2.4861   -3.9589    5.9056 C   0  0  2  0  0  0  0  0  0  0  0  0
    1.5669   -4.7324    6.9262 C   0  0  1  0  0  0  0  0  0  0  0  0
    0.5675   -5.4146    6.1565 O   0  0  0  0  0  0  0  0  0  0  0  0
    1.8055   -5.8307    8.0700 C   0  0  1  0  0  0  0  0  0  0  0  0
    2.7465   -5.6582    9.3138 C   0  0  0  0  0  0  0  0  0  0  0  0
    0.4210   -6.0796    8.7408 C   0  0  0  0  0  0  0  0  0  0  0  0
   -0.3895   -4.7991    9.0574 C   0  0  0  0  0  0  0  0  0  0  0  0
   -1.2305   -4.7576    9.9289 O   0  0  0  0  0  0  0  0  0  0  0  0
   -0.1686   -3.7014    8.2830 O   0  0  0  0  0  0  0  0  0  0  0  0
    1.1250   -3.4206    7.7262 C   0  0  2  0  0  0  0  0  0  0  0  0
    1.2532   -1.9004    7.0740 C   0  0  1  0  0  0  0  0  0  0  0  0
    0.7312   -1.0073    8.2404 C   0  0  0  0  0  0  0  0  0  0  0  0
    3.5199   -4.1427    4.7363 C   0  0  2  0  0  0  0  0  0  0  0  0
    2.9122   -4.6453    3.5387 O   0  0  0  0  0  0  0  0  0  0  0  0
    4.0923   -2.6254    4.5119 C   0  0  1  0  0  0  0  0  0  0  0  0
    3.6427   -2.0516    3.2672 O   0  0  0  0  0  0  0  0  0  0  0  0
    4.4765   -1.8175    2.2539 C   0  0  0  0  0  0  0  0  0  0  0  0
    5.6474   -2.1151    2.2065 O   0  0  0  0  0  0  0  0  0  0  0  0
    3.5357   -1.0307    0.8921 S   0  0  0  0  0  0  0  0  0  0  0  0
    4.7208   -1.2365   -0.4647 C   0  0  0  0  0  0  0  0  0  0  0  0
    5.5215   -4.1209    0.4773 H   0  0  0  0  0  0  0  0  0  0  0  0
    6.6691   -4.0783   -0.9653 H   0  0  0  0  0  0  0  0  0  0  0  0
    8.3170   -5.3213    0.2320 H   0  0  0  0  0  0  0  0  0  0  0  0
    9.1458   -6.4514    2.1121 H   0  0  0  0  0  0  0  0  0  0  0  0
    8.2138   -6.6153    3.6803 H   0  0  0  0  0  0  0  0  0  0  0  0
    5.5569   -4.2265    2.5648 H   0  0  0  0  0  0  0  0  0  0  0  0
    5.2021   -5.9499    2.5709 H   0  0  0  0  0  0  0  0  0  0  0  0
    6.6066   -5.9622    4.8525 H   0  0  0  0  0  0  0  0  0  0  0  0
    6.5446   -4.2700    4.7371 H   0  0  0  0  0  0  0  0  0  0  0  0
    4.3317   -6.6971    4.0194 H   0  0  0  0  0  0  0  0  0  0  0  0
    4.1986   -5.8475    7.0683 H   0  0  0  0  0  0  0  0  0  0  0  0
    6.8582   -4.4693    6.9312 H   0  0  0  0  0  0  0  0  0  0  0  0
    6.4269   -6.0974    7.3701 H   0  0  0  0  0  0  0  0  0  0  0  0
    5.9892   -4.7651    8.4302 H   0  0  0  0  0  0  0  0  0  0  0  0
    3.5089   -3.8566    8.0065 H   0  0  0  0  0  0  0  0  0  0  0  0
    4.5303    0.2269    4.4720 H   0  0  0  0  0  0  0  0  0  0  0  0
    5.8293   -0.5909    5.2685 H   0  0  0  0  0  0  0  0  0  0  0  0
    4.7622    0.4457    6.2074 H   0  0  0  0  0  0  0  0  0  0  0  0
    2.4334   -1.2878    5.1767 H   0  0  0  0  0  0  0  0  0  0  0  0
    2.9316    1.0482    4.4135 H   0  0  0  0  0  0  0  0  0  0  0  0
    1.7040    1.1636    7.4278 H   0  0  0  0  0  0  0  0  0  0  0  0
    2.3332    2.0973    6.1927 H   0  0  0  0  0  0  0  0  0  0  0  0
    0.7687    3.7273    7.8118 H   0  0  0  0  0  0  0  0  0  0  0  0
    0.0210    2.3036    8.5379 H   0  0  0  0  0  0  0  0  0  0  0  0
   -0.9758    3.4919    7.7125 H   0  0  0  0  0  0  0  0  0  0  0  0
   -2.1503    3.6211    4.8592 H   0  0  0  0  0  0  0  0  0  0  0  0
    1.1650    5.3356    3.0628 H   0  0  0  0  0  0  0  0  0  0  0  0
   -2.4760   -1.3366    5.1442 H   0  0  0  0  0  0  0  0  0  0  0  0
   -2.9721    0.1417    5.9937 H   0  0  0  0  0  0  0  0  0  0  0  0
   -1.7676   -0.9231    6.7764 H   0  0  0  0  0  0  0  0  0  0  0  0
   -1.7269    0.0718    3.2523 H   0  0  0  0  0  0  0  0  0  0  0  0
   -0.5569    1.3890    3.4570 H   0  0  0  0  0  0  0  0  0  0  0  0
   -2.2387    1.5500    4.0518 H   0  0  0  0  0  0  0  0  0  0  0  0
    0.3000   -0.8838    4.1251 H   0  0  0  0  0  0  0  0  0  0  0  0
   -0.5782   -2.4858    6.1095 H   0  0  0  0  0  0  0  0  0  0  0  0
    0.5170   -3.7844    4.6198 H   0  0  0  0  0  0  0  0  0  0  0  0
    1.5467   -2.7068    4.1555 H   0  0  0  0  0  0  0  0  0  0  0  0
    0.7445   -5.2525    5.2446 H   0  0  0  0  0  0  0  0  0  0  0  0
    2.1030   -6.7731    7.5931 H   0  0  0  0  0  0  0  0  0  0  0  0
    2.4999   -4.7809    9.9123 H   0  0  0  0  0  0  0  0  0  0  0  0
    3.8074   -5.6292    9.0941 H   0  0  0  0  0  0  0  0  0  0  0  0
    2.6494   -6.5154    9.9843 H   0  0  0  0  0  0  0  0  0  0  0  0
   -0.2109   -6.6887    8.1037 H   0  0  0  0  0  0  0  0  0  0  0  0
    0.5183   -6.6400    9.6625 H   0  0  0  0  0  0  0  0  0  0  0  0
    1.7293   -3.3282    8.6242 H   0  0  0  0  0  0  0  0  0  0  0  0
    0.1560   -1.5291    9.0006 H   0  0  0  0  0  0  0  0  0  0  0  0
    0.0762   -0.2081    7.9225 H   0  0  0  0  0  0  0  0  0  0  0  0
    1.5721   -0.5788    8.7849 H   0  0  0  0  0  0  0  0  0  0  0  0
    2.5837   -5.5097    3.7353 H   0  0  0  0  0  0  0  0  0  0  0  0
    5.1711   -2.7231    4.4393 H   0  0  0  0  0  0  0  0  0  0  0  0
    4.3591   -0.7473   -1.3681 H   0  0  0  0  0  0  0  0  0  0  0  0
    4.8469   -2.2904   -0.6968 H   0  0  0  0  0  0  0  0  0  0  0  0
    5.6936   -0.8177   -0.2168 H   0  0  0  0  0  0  0  0  0  0  0  0
  1  2  2  0
  1 54  1  0
  1 55  1  0
  2  3  1  0
  2 56  1  0
  3  4  2  0
  3  5  1  0
  4 57  1  0
  4 58  1  0
  5  6  1  0
  5 59  1  0
  5 60  1  0
  6  7  1  0
  6 61  1  0
  6 62  1  0
  7 46  1  0
  7  8  1  1
  7  9  1  0
  8 63  1  0
  9 10  1  0
  9 11  1  0
  9 64  1  1
 10 65  1  0
 10 66  1  0
 10 67  1  0
 11 34  1  0
 11 12  1  0
 11 68  1  1
 12 13  2  0
 12 14  1  6
 14 48  1  0
 14 15  1  6
 14 16  1  0
 15 69  1  0
 15 70  1  0
 15 71  1  0
 16 44  1  0
 16 17  1  0
 16 72  1  1
 17 31  1  0
 17 18  1  6
 17 19  1  0
 18 73  1  0
 19 20  1  0
 19 74  1  0
 19 75  1  0
 20 21  1  1
 20 22  1  0
 20 27  1  0
 21 76  1  0
 21 77  1  0
 21 78  1  0
 22 26  1  0
 22 23  2  0
 23 24  1  0
 23 79  1  0
 24 25  1  0
 25 26  2  0
 25 80  1  0
 27 28  1  0
 28 29  1  0
 28 30  1  0
 28 31  1  0
 29 81  1  0
 29 82  1  0
 29 83  1  0
 30 84  1  0
 30 85  1  0
 30 86  1  0
 31 32  1  0
 31 87  1  6
 32 44  1  0
 32 33  1  0
 32 88  1  1
 34 33  1  6
 33 89  1  0
 33 90  1  0
 34 35  1  0
 34 46  1  0
 35 43  1  0
 35 36  1  6
 35 37  1  0
 36 91  1  0
 37 38  1  0
 37 39  1  0
 37 92  1  6
 38 93  1  0
 38 94  1  0
 38 95  1  0
 39 40  1  0
 39 96  1  0
 39 97  1  0
 40 41  2  0
 40 42  1  0
 42 43  1  0
 43 44  1  0
 43 98  1  1
 44 45  1  1
 45 99  1  0
 45100  1  0
 45101  1  0
 46 47  1  6
 46 48  1  0
 47102  1  0
 48 49  1  0
 48103  1  6
 49 50  1  0
 50 51  2  0
 50 52  1  0
 52 53  1  0
 53104  1  0
 53105  1  0
 53106  1  0
M  END
>  <i_m_ct_stereo_status>  (94) 
1

>  <s_m_source_file>  (94) 
/var/tmp/pbs.5075288.sched01/tmpq0rgj53d/65gxdktgdh.sdf

>  <i_m_source_file_index>  (94) 
28

>  <i_lp_mmshare_version>  (94) 
48012

>  <i_f3d_flags>  (94) 
0

>  <s_epik_input>  (94) 
W0NIMl09W0NIXUMoPVtDSDJdKVtDSDJdW0NIMl1bQ0BAXShbT0hdKShbQ0BASF0oW0NIM10pW0NAQEhdMVtDQF0yMzQpW0NAXTQoW09IXSlbQ0BASF0oT0MoPU8pU1tDSDNdKVtDQEBdKFtTK10xW08tXSkoW0NIM10pW0NIXTVbQ0BAXTYoW09IXSlbQ0BIXShDKFtDSDNdKShbQ0gzXSlPW0NAXShbQ0gyXTYpKFtDSDNdKWM3W2NIXW9bY0hdbjcpW0NAQEhdKFtDSDJdMilbQ0BAXTUoW0NIM10pW0NAQEhdOFtDQF0zKFtPSF0pW0NAQEhdKFtDSDNdKVtDSDJdQyg9TylPOA==

>  <s_epik_cmdline>  (94) 
J2VwaWtfcHl0aG9uJywgJy1waHQnLCAnMi4wJywgJy1waCcsICc3LjAnLCAnLXRuJywgJzgnLCAnLW1hJywgJzIwMCcsICctaW1hZScsICc8aW5maWxlLm1hZT4nLCAnLW9tYWUnLCAnPG91dGZpbGUubWFlPic=

>  <r_lp_tautomer_probability>  (94) 
1

>  <r_epik_Ionization_Penalty>  (94) 
1.09142e-05

>  <r_epik_Ionization_Penalty_Charging>  (94) 
0

>  <r_epik_Ionization_Penalty_Neutral>  (94) 
1.09142e-05

>  <r_epik_State_Penalty>  (94) 
-0

>  <r_epik_Charging_Adjusted_Penalty>  (94) 
0

>  <i_epik_Tot_Q>  (94) 
0

>  <i_epik_Tot_abs_Q>  (94) 
2

>  <s_epik_Chemistry_Notes>  (94) 
This compound has an ester and may undergo hydrolysis at high or low pH.

>  <s_lp_Force_Field>  (94) 
OPLS3e

>  <r_lp_Energy>  (94) 
353.73

>  <b_lp_Chiralities_Consistent>  (94) 
1

>  <s_lp_Variant>  (94) 
26:0-2

>  <s_i_glide_gridfile>  (94) 
pfpi4k_grid

>  <i_i_glide_lignum>  (94) 
28

>  <i_i_glide_rotatable_bonds>  (94) 
12

>  <r_i_docking_score>  (94) 
-1.9377

>  <r_i_glide_ligand_efficiency>  (94) 
-0.0365603

>  <r_i_glide_ligand_efficiency_sa>  (94) 
-0.137331

>  <r_i_glide_ligand_efficiency_ln>  (94) 
-0.389855

>  <r_i_glide_gscore>  (94) 
-1.9377

>  <r_i_glide_lipo>  (94) 
-0.287489

>  <r_i_glide_hbond>  (94) 
-0.0334397

>  <r_i_glide_metal>  (94) 
-0

>  <r_i_glide_rewards>  (94) 
-0.0405741

>  <r_i_glide_evdw>  (94) 
-27.3754

>  <r_i_glide_ecoul>  (94) 
-1.66547

>  <r_i_glide_erotb>  (94) 
0.0533664

>  <r_i_glide_esite>  (94) 
-0.0109682

>  <r_i_glide_emodel>  (94) 
-29.2221

>  <r_i_glide_energy>  (94) 
-29.0409

>  <r_i_glide_einternal>  (94) 
5.15883

>  <r_i_glide_intrahb_reward>  (94) 
-0

>  <i_i_glide_confnum>  (94) 
9

>  <i_i_glide_posenum>  (94) 
17

>  <r_i_glide_eff_state_penalty>  (94) 
0

>  <ligand_id>  (94) 
26

>  <original_smiles>  (94) 
C=CC(=C)CCC1(O)C(C)C2[S+]([O-])C3(C)C4C5(O)CC(C)(c6cocn6)OC(C)(C)C5C5CC2(C2(O)C(C)CC(=O)OC2C54C)C1(O)C3OC(=O)SC

>  <smiles>  (94) 
[H]OC12C([H])([H])C(c3nc([H])oc3[H])(C([H])([H])[H])OC(C([H])([H])[H])(C([H])([H])[H])C1([H])C1([H])C([H])([H])C34C5([H])S(=O)C(C([H])([H])[H])(C([H])(OC(=O)SC([H])([H])[H])C3(O[H])C(O[H])(C([H])([H])C([H])([H])C(=C([H])[H])C([H])=C([H])[H])C5([H])C([H])([H])[H])C2([H])C1(C([H])([H])[H])C1([H])OC(=O)C([H])([H])C([H])(C([H])([H])[H])C14O[H]

$$$$
34:0:0
     RDKit          3D

116123  0  0  1  0  0  0  0  0999 V2000
    0.7328    5.2197    9.0546 C   0  0  0  0  0  0  0  0  0  0  0  0
    1.0061    4.7591    7.7992 C   0  0  0  0  0  0  0  0  0  0  0  0
    2.2385    5.0972    7.0177 C   0  0  1  0  0  0  0  0  0  0  0  0
    3.3519    5.4117    7.8329 O   0  0  0  0  0  0  0  0  0  0  0  0
    2.4974    3.8315    6.1720 C   0  0  0  0  0  0  0  0  0  0  0  0
    1.4836    2.7194    6.5938 C   0  0  1  0  0  0  0  0  0  0  0  0
    2.0899    2.0995    7.7157 O   0  0  0  0  0  0  0  0  0  0  0  0
    0.2930    3.6169    7.0920 C   0  0  1  0  0  0  0  0  0  0  0  0
   -0.6172    3.0136    8.0131 O   0  0  0  0  0  0  0  0  0  0  0  0
   -0.5212    4.1814    5.9027 C   0  0  0  0  0  0  0  0  0  0  0  0
   -0.8629    3.1036    4.8682 C   0  0  1  0  0  0  0  0  0  0  0  0
   -1.5465    3.6835    3.7357 O   0  0  0  0  0  0  0  0  0  0  0  0
   -2.8564    3.4280    3.5591 C   0  0  0  0  0  0  0  0  0  0  0  0
   -3.5689    2.9499    4.4026 O   0  0  0  0  0  0  0  0  0  0  0  0
   -3.3875    3.8798    2.1629 C   0  0  0  0  0  0  0  0  0  0  0  0
   -4.9024    3.8518    1.9087 C   0  0  0  0  0  0  0  0  0  0  0  0
   -5.7279    5.1152    2.2159 C   0  0  0  0  0  0  0  0  0  0  0  0
   -5.0490    6.4263    1.7684 C   0  0  0  0  0  0  0  0  0  0  0  0
    0.3612    2.3590    4.3818 C   0  0  0  0  0  0  0  0  0  0  0  0
    0.7386    2.4609    3.0779 C   0  0  0  0  0  0  0  0  0  0  0  0
    1.1902    1.6133    5.4660 C   0  0  1  0  0  0  0  0  0  0  0  0
    2.4336    1.4609    4.9572 O   0  0  0  0  0  0  0  0  0  0  0  0
    0.5990    0.1324    5.8519 C   0  0  1  0  0  0  0  0  0  0  0  0
   -0.4484    0.6344    6.6890 O   0  0  0  0  0  0  0  0  0  0  0  0
   -0.2233   -0.7300    4.8376 C   0  0  2  0  0  0  0  0  0  0  0  0
   -1.3699   -0.1015    4.0106 C   0  0  0  0  0  0  0  0  0  0  0  0
   -0.8228   -1.8572    5.7312 C   0  0  0  0  0  0  0  0  0  0  0  0
    0.1158   -1.9884    6.9532 C   0  0  1  0  0  0  0  0  0  0  0  0
    0.3263   -3.2982    7.4948 O   0  0  0  0  0  0  0  0  0  0  0  0
   -0.6836   -4.1552    7.7476 C   0  0  0  0  0  0  0  0  0  0  0  0
   -0.1941   -5.4499    8.3733 C   0  0  0  0  0  0  0  0  0  0  0  0
   -1.8789   -3.9666    7.5183 O   0  0  0  0  0  0  0  0  0  0  0  0
    1.3746   -1.1032    6.6026 C   0  0  2  0  0  0  0  0  0  0  0  0
    1.7519   -0.5984    7.8807 O   0  0  0  0  0  0  0  0  0  0  0  0
    2.6661   -2.0016    6.0089 C   0  0  2  0  0  0  0  0  0  0  0  0
    3.3709   -2.6319    7.2637 C   0  0  0  0  0  0  0  0  0  0  0  0
    3.7742   -1.2040    5.1900 C   0  0  1  0  0  0  0  0  0  0  0  0
    5.1190   -1.3100    5.7063 O   0  0  0  0  0  0  0  0  0  0  0  0
    5.6888   -0.3333    6.4368 C   0  0  0  0  0  0  0  0  0  0  0  0
    7.0555   -0.7245    6.9795 C   0  0  0  0  0  0  0  0  0  0  0  0
    5.1984    0.7540    6.6932 O   0  0  0  0  0  0  0  0  0  0  0  0
    3.8279   -1.2715    3.5995 C   0  0  1  0  0  0  0  0  0  0  0  0
    3.9726    0.0996    3.2665 O   0  0  0  0  0  0  0  0  0  0  0  0
    4.9824   -1.9717    2.7872 C   0  0  2  0  0  0  0  0  0  0  0  0
    4.5973   -1.5522    1.4753 O   0  0  0  0  0  0  0  0  0  0  0  0
    3.1655   -1.6663    1.3542 C   0  0  0  0  0  0  0  0  0  0  0  0
    2.6448   -1.8429    2.8186 C   0  0  2  0  0  0  0  0  0  0  0  0
    1.2690   -1.1358    2.8962 C   0  0  0  0  0  0  0  0  0  0  0  0
    0.6018   -1.5615    4.0466 O   0  0  0  0  0  0  0  0  0  0  0  0
    2.5278   -3.3410    3.2123 C   0  0  2  0  0  0  0  0  0  0  0  0
    2.3172   -3.5987    5.0399 S   0  0  0  0  0  0  0  0  0  0  0  0
    0.9156   -4.2070    5.1861 O   0  0  0  0  0  0  0  0  0  0  0  0
    3.6780   -4.2476    2.6903 C   0  0  1  0  0  0  0  0  0  0  0  0
    3.1281   -5.1455    1.5777 C   0  0  0  0  0  0  0  0  0  0  0  0
    4.9893   -3.5011    2.4846 C   0  0  2  0  0  0  0  0  0  0  0  0
    4.9735   -4.6951    3.4082 C   0  0  0  0  0  0  0  0  0  0  0  0
    5.3396   -4.5088    4.8643 C   0  0  0  0  0  0  0  0  0  0  0  0
    5.6615   -5.9815    2.9609 C   0  0  0  0  0  0  0  0  0  0  0  0
   -0.1145    4.8428    9.6041 H   0  0  0  0  0  0  0  0  0  0  0  0
    1.3657    5.9536    9.5306 H   0  0  0  0  0  0  0  0  0  0  0  0
    2.0042    5.9469    6.3741 H   0  0  0  0  0  0  0  0  0  0  0  0
    4.0541    5.6804    7.2595 H   0  0  0  0  0  0  0  0  0  0  0  0
    2.3258    4.1072    5.1346 H   0  0  0  0  0  0  0  0  0  0  0  0
    3.5407    3.4893    6.2160 H   0  0  0  0  0  0  0  0  0  0  0  0
    2.3338    2.7847    8.3241 H   0  0  0  0  0  0  0  0  0  0  0  0
   -0.9478    2.1903    7.6903 H   0  0  0  0  0  0  0  0  0  0  0  0
   -1.4272    4.6611    6.2945 H   0  0  0  0  0  0  0  0  0  0  0  0
    0.0130    4.9830    5.3814 H   0  0  0  0  0  0  0  0  0  0  0  0
   -1.5116    2.4005    5.3890 H   0  0  0  0  0  0  0  0  0  0  0  0
   -2.9420    4.8566    1.9623 H   0  0  0  0  0  0  0  0  0  0  0  0
   -3.0199    3.0946    1.4935 H   0  0  0  0  0  0  0  0  0  0  0  0
   -5.0402    3.6287    0.8641 H   0  0  0  0  0  0  0  0  0  0  0  0
   -5.3688    3.0005    2.3761 H   0  0  0  0  0  0  0  0  0  0  0  0
   -6.7042    5.0591    1.7096 H   0  0  0  0  0  0  0  0  0  0  0  0
   -6.0071    5.1248    3.2760 H   0  0  0  0  0  0  0  0  0  0  0  0
   -5.6843    7.2977    1.9562 H   0  0  0  0  0  0  0  0  0  0  0  0
   -4.8341    6.4016    0.6974 H   0  0  0  0  0  0  0  0  0  0  0  0
   -4.0982    6.5888    2.2771 H   0  0  0  0  0  0  0  0  0  0  0  0
    0.1371    2.9603    2.3501 H   0  0  0  0  0  0  0  0  0  0  0  0
    1.6469    2.0244    2.7197 H   0  0  0  0  0  0  0  0  0  0  0  0
    2.4411    0.8864    4.1737 H   0  0  0  0  0  0  0  0  0  0  0  0
   -0.9453    1.2601    6.1687 H   0  0  0  0  0  0  0  0  0  0  0  0
   -2.0057    0.5721    4.5830 H   0  0  0  0  0  0  0  0  0  0  0  0
   -2.0616   -0.8956    3.7058 H   0  0  0  0  0  0  0  0  0  0  0  0
   -1.0240    0.4228    3.1166 H   0  0  0  0  0  0  0  0  0  0  0  0
   -1.8279   -1.5836    6.0758 H   0  0  0  0  0  0  0  0  0  0  0  0
   -0.9496   -2.7821    5.1676 H   0  0  0  0  0  0  0  0  0  0  0  0
   -0.4084   -1.5024    7.7825 H   0  0  0  0  0  0  0  0  0  0  0  0
    0.1925   -5.2646    9.3756 H   0  0  0  0  0  0  0  0  0  0  0  0
    0.5985   -5.8832    7.7644 H   0  0  0  0  0  0  0  0  0  0  0  0
   -1.0045   -6.1742    8.4418 H   0  0  0  0  0  0  0  0  0  0  0  0
    2.3728    0.1169    7.7665 H   0  0  0  0  0  0  0  0  0  0  0  0
    3.8746   -1.8834    7.8823 H   0  0  0  0  0  0  0  0  0  0  0  0
    4.1248   -3.3612    7.0005 H   0  0  0  0  0  0  0  0  0  0  0  0
    2.6792   -3.1450    7.9296 H   0  0  0  0  0  0  0  0  0  0  0  0
    3.5175   -0.2472    5.4681 H   0  0  0  0  0  0  0  0  0  0  0  0
    6.9224   -1.6003    7.6175 H   0  0  0  0  0  0  0  0  0  0  0  0
    7.5034    0.0884    7.5719 H   0  0  0  0  0  0  0  0  0  0  0  0
    7.7243   -0.9783    6.1536 H   0  0  0  0  0  0  0  0  0  0  0  0
    4.0873    0.1501    2.3298 H   0  0  0  0  0  0  0  0  0  0  0  0
    5.9833   -1.6173    3.0106 H   0  0  0  0  0  0  0  0  0  0  0  0
    2.8086   -0.7363    0.8997 H   0  0  0  0  0  0  0  0  0  0  0  0
    2.8694   -2.4805    0.6850 H   0  0  0  0  0  0  0  0  0  0  0  0
    1.3713   -0.0577    2.8339 H   0  0  0  0  0  0  0  0  0  0  0  0
    0.6427   -1.4696    2.0677 H   0  0  0  0  0  0  0  0  0  0  0  0
    1.5878   -3.7168    2.7636 H   0  0  0  0  0  0  0  0  0  0  0  0
    3.9038   -5.4080    0.8695 H   0  0  0  0  0  0  0  0  0  0  0  0
    2.3403   -4.6541    1.0050 H   0  0  0  0  0  0  0  0  0  0  0  0
    2.7164   -6.0509    2.0230 H   0  0  0  0  0  0  0  0  0  0  0  0
    5.5322   -3.7062    1.5699 H   0  0  0  0  0  0  0  0  0  0  0  0
    6.4105   -4.6590    5.0264 H   0  0  0  0  0  0  0  0  0  0  0  0
    4.7734   -5.2031    5.4836 H   0  0  0  0  0  0  0  0  0  0  0  0
    5.1237   -3.5050    5.1347 H   0  0  0  0  0  0  0  0  0  0  0  0
    6.6998   -6.0064    3.2863 H   0  0  0  0  0  0  0  0  0  0  0  0
    5.6681   -6.0804    1.8836 H   0  0  0  0  0  0  0  0  0  0  0  0
    5.1460   -6.8345    3.3917 H   0  0  0  0  0  0  0  0  0  0  0  0
  1  2  2  0
  1 59  1  0
  1 60  1  0
  2  8  1  0
  2  3  1  0
  3  4  1  0
  3  5  1  0
  3 61  1  6
  4 62  1  0
  5  6  1  0
  5 63  1  0
  5 64  1  0
  6 21  1  0
  6  7  1  1
  6  8  1  0
  7 65  1  0
  8  9  1  1
  8 10  1  0
  9 66  1  0
 10 11  1  0
 10 67  1  0
 10 68  1  0
 11 12  1  0
 11 19  1  0
 11 69  1  1
 12 13  1  0
 13 14  2  0
 13 15  1  0
 15 16  1  0
 15 70  1  0
 15 71  1  0
 16 17  1  0
 16 72  1  0
 16 73  1  0
 17 18  1  0
 17 74  1  0
 17 75  1  0
 18 76  1  0
 18 77  1  0
 18 78  1  0
 19 20  2  0
 19 21  1  0
 20 79  1  0
 20 80  1  0
 21 22  1  6
 21 23  1  0
 22 81  1  0
 23 33  1  0
 23 24  1  1
 23 25  1  0
 24 82  1  0
 25 49  1  0
 25 26  1  6
 25 27  1  0
 26 83  1  0
 26 84  1  0
 26 85  1  0
 27 28  1  0
 27 86  1  0
 27 87  1  0
 28 29  1  0
 28 33  1  0
 28 88  1  1
 29 30  1  0
 30 31  1  0
 30 32  2  0
 31 89  1  0
 31 90  1  0
 31 91  1  0
 33 34  1  1
 33 35  1  0
 34 92  1  0
 51 35  1  1
 35 36  1  1
 35 37  1  0
 36 93  1  0
 36 94  1  0
 36 95  1  0
 37 38  1  0
 37 42  1  0
 37 96  1  6
 38 39  1  0
 39 40  1  0
 39 41  2  0
 40 97  1  0
 40 98  1  0
 40 99  1  0
 42 47  1  0
 42 43  1  6
 42 44  1  0
 43100  1  0
 44 55  1  0
 44 45  1  0
 44101  1  1
 45 46  1  0
 47 46  1  6
 46102  1  0
 46103  1  0
 47 48  1  0
 47 50  1  0
 48 49  1  0
 48104  1  0
 48105  1  0
 50 51  1  0
 50 53  1  0
 50106  1  6
 51 52  2  0
 53 56  1  0
 53 54  1  6
 53 55  1  0
 54107  1  0
 54108  1  0
 54109  1  0
 55 56  1  0
 55110  1  6
 56 57  1  0
 56 58  1  0
 57111  1  0
 57112  1  0
 57113  1  0
 58114  1  0
 58115  1  0
 58116  1  0
M  END
>  <i_m_ct_stereo_status>  (95) 
1

>  <s_m_source_file>  (95) 
/var/tmp/pbs.5075288.sched01/tmpq0rgj53d/65gxdktgdh.sdf

>  <i_m_source_file_index>  (95) 
41

>  <i_lp_mmshare_version>  (95) 
48012

>  <i_f3d_flags>  (95) 
0

>  <s_epik_input>  (95) 
W0NIM11bQ0gyXVtDSDJdW0NIMl1DKD1PKU9bQ0BIXShbQ0gyXVtDQEBdKFtPSF0pKFtDQF0xMltPSF0pQyg9W0NIMl0pW0NAQEhdKFtPSF0pW0NIMl0xKUMoPVtDSDJdKVtDQF0yKFtPSF0pW0NAQF0oW09IXSkoW0NAQF0oW0NIM10pKE9bQ0gyXTMpW0NIMl1bQ0BIXTRPQyg9TylbQ0gzXSlbQ0BdNChbT0hdKVtDQF0oW0NIM10pKFtDQEhdNU9DKD1PKVtDSDNdKVtTK10oW08tXSlbQ0BASF02W0NAXShbQ0gzXSkoQzcoW0NIM10pW0NIM10pW0NASF03W0NASF0oW0NAXTUoW0NAXTM2OClbT0hdKU9bQ0gyXTg=

>  <s_epik_cmdline>  (95) 
J2VwaWtfcHl0aG9uJywgJy1waHQnLCAnMi4wJywgJy1waCcsICc3LjAnLCAnLXRuJywgJzgnLCAnLW1hJywgJzIwMCcsICctaW1hZScsICc8aW5maWxlLm1hZT4nLCAnLW9tYWUnLCAnPG91dGZpbGUubWFlPic=

>  <r_lp_tautomer_probability>  (95) 
1

>  <r_epik_Ionization_Penalty>  (95) 
5.94098e-06

>  <r_epik_Ionization_Penalty_Charging>  (95) 
0

>  <r_epik_Ionization_Penalty_Neutral>  (95) 
5.94098e-06

>  <r_epik_State_Penalty>  (95) 
-0

>  <r_epik_Charging_Adjusted_Penalty>  (95) 
0

>  <i_epik_Tot_Q>  (95) 
0

>  <i_epik_Tot_abs_Q>  (95) 
2

>  <s_epik_Chemistry_Notes>  (95) 
This compound has an ester and may undergo hydrolysis at high or low pH.

>  <s_lp_Force_Field>  (95) 
OPLS3e

>  <r_lp_Energy>  (95) 
186.534

>  <b_lp_Chiralities_Consistent>  (95) 
1

>  <s_lp_Variant>  (95) 
34:0-1

>  <s_i_glide_gridfile>  (95) 
pfpi4k_grid

>  <i_i_glide_lignum>  (95) 
41

>  <i_i_glide_rotatable_bonds>  (95) 
17

>  <r_i_docking_score>  (95) 
-3.22168

>  <r_i_glide_ligand_efficiency>  (95) 
-0.0555463

>  <r_i_glide_ligand_efficiency_sa>  (95) 
-0.215013

>  <r_i_glide_ligand_efficiency_ln>  (95) 
-0.636641

>  <r_i_glide_gscore>  (95) 
-3.22168

>  <r_i_glide_lipo>  (95) 
-0.584242

>  <r_i_glide_hbond>  (95) 
-0.00117507

>  <r_i_glide_metal>  (95) 
-0

>  <r_i_glide_rewards>  (95) 
-1.04415

>  <r_i_glide_evdw>  (95) 
-24.9543

>  <r_i_glide_ecoul>  (95) 
-1.89053

>  <r_i_glide_erotb>  (95) 
0.00686995

>  <r_i_glide_esite>  (95) 
-0.0800934

>  <r_i_glide_emodel>  (95) 
-31.8844

>  <r_i_glide_energy>  (95) 
-26.8448

>  <r_i_glide_einternal>  (95) 
10.608

>  <r_i_glide_intrahb_reward>  (95) 
-1

>  <i_i_glide_confnum>  (95) 
6

>  <i_i_glide_posenum>  (95) 
17

>  <r_i_glide_eff_state_penalty>  (95) 
0

>  <ligand_id>  (95) 
34

>  <original_smiles>  (95) 
C=C1C(O)CC2(O)C1(O)CC(OC(=O)CCCC)C(=C)C2(O)C1(O)C2(C)CC(OC(C)=O)C1(O)C1(C)C(OC(C)=O)C3(O)C4OCC3(CO2)C([S+]1[O-])C1(C)C4C1(C)C

>  <smiles>  (95) 
[H]OC1([H])C(=C([H])[H])C2(O[H])C([H])([H])C([H])(OC(=O)C([H])([H])C([H])([H])C([H])([H])C([H])([H])[H])C(=C([H])[H])C(O[H])(C3(O[H])C4(C([H])([H])[H])OC([H])([H])C56C([H])([H])OC7([H])C8([H])C(C([H])([H])[H])(C([H])([H])[H])C8(C([H])([H])[H])C5([H])S(=O)C(C([H])([H])[H])(C([H])(OC(=O)C([H])([H])[H])C76O[H])C3(O[H])C([H])(OC(=O)C([H])([H])[H])C4([H])[H])C2(O[H])C1([H])[H]

$$$$
34:0:1
     RDKit          3D

116123  0  0  1  0  0  0  0  0999 V2000
    1.4535    3.2168    9.4320 C   0  0  0  0  0  0  0  0  0  0  0  0
    1.7669    3.2308    8.1249 C   0  0  0  0  0  0  0  0  0  0  0  0
    3.0233    3.8225    7.5209 C   0  0  1  0  0  0  0  0  0  0  0  0
    4.1286    3.8115    8.4035 O   0  0  0  0  0  0  0  0  0  0  0  0
    3.2836    2.9854    6.2527 C   0  0  0  0  0  0  0  0  0  0  0  0
    2.2366    1.8238    6.2198 C   0  0  1  0  0  0  0  0  0  0  0  0
    2.8164    0.8122    7.0106 O   0  0  0  0  0  0  0  0  0  0  0  0
    1.0482    2.4912    7.0033 C   0  0  1  0  0  0  0  0  0  0  0  0
    0.1155    1.5565    7.5165 O   0  0  0  0  0  0  0  0  0  0  0  0
    0.2629    3.5038    6.1198 C   0  0  0  0  0  0  0  0  0  0  0  0
   -0.0853    2.9391    4.7278 C   0  0  1  0  0  0  0  0  0  0  0  0
   -0.7546    3.9170    3.9058 O   0  0  0  0  0  0  0  0  0  0  0  0
   -2.1098    3.9447    3.7919 C   0  0  0  0  0  0  0  0  0  0  0  0
   -2.8503    3.2939    4.5292 O   0  0  0  0  0  0  0  0  0  0  0  0
   -2.6661    4.8540    2.6435 C   0  0  0  0  0  0  0  0  0  0  0  0
   -3.7989    4.2041    1.8201 C   0  0  0  0  0  0  0  0  0  0  0  0
   -5.1401    3.9451    2.4925 C   0  0  0  0  0  0  0  0  0  0  0  0
   -6.0803    5.1485    2.3875 C   0  0  0  0  0  0  0  0  0  0  0  0
    1.1639    2.3540    4.0383 C   0  0  0  0  0  0  0  0  0  0  0  0
    1.6068    2.8812    2.8813 C   0  0  0  0  0  0  0  0  0  0  0  0
    1.9395    1.2292    4.7676 C   0  0  1  0  0  0  0  0  0  0  0  0
    3.1950    1.1949    4.1611 O   0  0  0  0  0  0  0  0  0  0  0  0
    1.2736   -0.2496    4.6002 C   0  0  1  0  0  0  0  0  0  0  0  0
    0.0745    0.0177    5.3380 O   0  0  0  0  0  0  0  0  0  0  0  0
    0.7285   -0.7241    3.2096 C   0  0  2  0  0  0  0  0  0  0  0  0
   -0.1248    0.2285    2.3011 C   0  0  0  0  0  0  0  0  0  0  0  0
   -0.0176   -2.0215    3.6359 C   0  0  0  0  0  0  0  0  0  0  0  0
    0.5774   -2.5396    4.9427 C   0  0  1  0  0  0  0  0  0  0  0  0
    0.6383   -3.9626    5.0670 O   0  0  0  0  0  0  0  0  0  0  0  0
   -0.0190   -4.6134    6.0533 C   0  0  0  0  0  0  0  0  0  0  0  0
    0.2997   -6.1033    6.0926 C   0  0  0  0  0  0  0  0  0  0  0  0
   -0.7998   -4.1104    6.8616 O   0  0  0  0  0  0  0  0  0  0  0  0
    1.8691   -1.6962    5.1286 C   0  0  2  0  0  0  0  0  0  0  0  0
    1.9194   -1.6418    6.5447 O   0  0  0  0  0  0  0  0  0  0  0  0
    3.2577   -2.4598    4.5961 C   0  0  2  0  0  0  0  0  0  0  0  0
    3.6794   -3.4644    5.7229 C   0  0  0  0  0  0  0  0  0  0  0  0
    4.4860   -1.5277    4.3113 C   0  0  1  0  0  0  0  0  0  0  0  0
    5.6467   -1.8320    5.1075 O   0  0  0  0  0  0  0  0  0  0  0  0
    5.9878   -1.1825    6.2579 C   0  0  0  0  0  0  0  0  0  0  0  0
    7.3049   -1.6956    6.8385 C   0  0  0  0  0  0  0  0  0  0  0  0
    5.3442   -0.2940    6.8138 O   0  0  0  0  0  0  0  0  0  0  0  0
    4.9042   -1.1962    2.8010 C   0  0  1  0  0  0  0  0  0  0  0  0
    5.2772    0.1578    2.9845 O   0  0  0  0  0  0  0  0  0  0  0  0
    6.2200   -1.6455    2.1042 C   0  0  2  0  0  0  0  0  0  0  0  0
    6.1668   -0.8933    0.8701 O   0  0  0  0  0  0  0  0  0  0  0  0
    4.8152   -0.8447    0.4271 C   0  0  0  0  0  0  0  0  0  0  0  0
    3.9697   -1.4036    1.6136 C   0  0  2  0  0  0  0  0  0  0  0  0
    2.6343   -0.6422    1.6067 C   0  0  0  0  0  0  0  0  0  0  0  0
    1.7457   -1.3318    2.4462 O   0  0  0  0  0  0  0  0  0  0  0  0
    3.8042   -2.9548    1.5372 C   0  0  2  0  0  0  0  0  0  0  0  0
    3.1737   -3.6899    3.1376 S   0  0  0  0  0  0  0  0  0  0  0  0
    1.8139   -4.2900    2.8088 O   0  0  0  0  0  0  0  0  0  0  0  0
    5.0693   -3.7441    1.0716 C   0  0  1  0  0  0  0  0  0  0  0  0
    4.8431   -4.2515   -0.3567 C   0  0  0  0  0  0  0  0  0  0  0  0
    6.3736   -3.0360    1.4225 C   0  0  2  0  0  0  0  0  0  0  0  0
    6.1772   -4.4449    1.9205 C   0  0  0  0  0  0  0  0  0  0  0  0
    6.1505   -4.7333    3.4055 C   0  0  0  0  0  0  0  0  0  0  0  0
    6.9887   -5.5793    1.2843 C   0  0  0  0  0  0  0  0  0  0  0  0
    0.5792    2.7007    9.8026 H   0  0  0  0  0  0  0  0  0  0  0  0
    2.0799    3.7055   10.1664 H   0  0  0  0  0  0  0  0  0  0  0  0
    2.8123    4.8597    7.2586 H   0  0  0  0  0  0  0  0  0  0  0  0
    4.8712    4.1855    7.9560 H   0  0  0  0  0  0  0  0  0  0  0  0
    3.1322    3.6469    5.4005 H   0  0  0  0  0  0  0  0  0  0  0  0
    4.3101    2.6291    6.1814 H   0  0  0  0  0  0  0  0  0  0  0  0
    3.6639    0.5970    6.6421 H   0  0  0  0  0  0  0  0  0  0  0  0
    0.0333    0.8526    6.8777 H   0  0  0  0  0  0  0  0  0  0  0  0
   -0.6415    3.8240    6.6417 H   0  0  0  0  0  0  0  0  0  0  0  0
    0.8413    4.4170    5.9806 H   0  0  0  0  0  0  0  0  0  0  0  0
   -0.7822    2.1207    4.8738 H   0  0  0  0  0  0  0  0  0  0  0  0
   -3.0333    5.8809    2.8412 H   0  0  0  0  0  0  0  0  0  0  0  0
   -1.8001    5.0425    2.0193 H   0  0  0  0  0  0  0  0  0  0  0  0
   -4.1574    4.8813    1.0380 H   0  0  0  0  0  0  0  0  0  0  0  0
   -3.4627    3.2702    1.3537 H   0  0  0  0  0  0  0  0  0  0  0  0
   -5.6020    3.0756    2.0238 H   0  0  0  0  0  0  0  0  0  0  0  0
   -4.9974    3.7001    3.5331 H   0  0  0  0  0  0  0  0  0  0  0  0
   -6.9855    4.9601    2.9484 H   0  0  0  0  0  0  0  0  0  0  0  0
   -6.3569    5.3720    1.3573 H   0  0  0  0  0  0  0  0  0  0  0  0
   -5.6237    6.0396    2.8021 H   0  0  0  0  0  0  0  0  0  0  0  0
    1.0810    3.6911    2.4257 H   0  0  0  0  0  0  0  0  0  0  0  0
    2.4571    2.5023    2.3363 H   0  0  0  0  0  0  0  0  0  0  0  0
    3.4186    2.0873    3.9665 H   0  0  0  0  0  0  0  0  0  0  0  0
   -0.3998    0.7043    4.8966 H   0  0  0  0  0  0  0  0  0  0  0  0
   -0.9268    0.7118    2.8546 H   0  0  0  0  0  0  0  0  0  0  0  0
   -0.6167   -0.2359    1.4492 H   0  0  0  0  0  0  0  0  0  0  0  0
    0.4895    0.9960    1.8282 H   0  0  0  0  0  0  0  0  0  0  0  0
   -1.0795   -1.8309    3.7828 H   0  0  0  0  0  0  0  0  0  0  0  0
    0.1041   -2.8005    2.8939 H   0  0  0  0  0  0  0  0  0  0  0  0
   -0.1561   -2.2272    5.6826 H   0  0  0  0  0  0  0  0  0  0  0  0
    1.3490   -6.2607    6.3446 H   0  0  0  0  0  0  0  0  0  0  0  0
    0.1000   -6.5649    5.1258 H   0  0  0  0  0  0  0  0  0  0  0  0
   -0.3091   -6.6015    6.8481 H   0  0  0  0  0  0  0  0  0  0  0  0
    2.5549   -0.9880    6.7997 H   0  0  0  0  0  0  0  0  0  0  0  0
    4.0205   -2.9647    6.6294 H   0  0  0  0  0  0  0  0  0  0  0  0
    4.4909   -4.1227    5.4278 H   0  0  0  0  0  0  0  0  0  0  0  0
    2.8699   -4.1169    6.0272 H   0  0  0  0  0  0  0  0  0  0  0  0
    4.1703   -0.6179    4.7881 H   0  0  0  0  0  0  0  0  0  0  0  0
    7.2423   -2.7711    7.0064 H   0  0  0  0  0  0  0  0  0  0  0  0
    7.5640   -1.2018    7.7737 H   0  0  0  0  0  0  0  0  0  0  0  0
    8.1260   -1.5138    6.1467 H   0  0  0  0  0  0  0  0  0  0  0  0
    4.5107    0.6307    3.2301 H   0  0  0  0  0  0  0  0  0  0  0  0
    6.9853   -1.3796    2.7897 H   0  0  0  0  0  0  0  0  0  0  0  0
    4.6175    0.2086    0.2055 H   0  0  0  0  0  0  0  0  0  0  0  0
    4.7213   -1.4206   -0.4938 H   0  0  0  0  0  0  0  0  0  0  0  0
    2.7579    0.4113    1.8313 H   0  0  0  0  0  0  0  0  0  0  0  0
    2.2500   -0.6951    0.5933 H   0  0  0  0  0  0  0  0  0  0  0  0
    3.0108   -3.1407    0.8141 H   0  0  0  0  0  0  0  0  0  0  0  0
    5.7755   -4.3452   -0.9145 H   0  0  0  0  0  0  0  0  0  0  0  0
    4.2110   -3.5761   -0.9328 H   0  0  0  0  0  0  0  0  0  0  0  0
    4.3574   -5.2265   -0.3230 H   0  0  0  0  0  0  0  0  0  0  0  0
    7.1410   -2.9995    0.6457 H   0  0  0  0  0  0  0  0  0  0  0  0
    7.1167   -5.1035    3.7674 H   0  0  0  0  0  0  0  0  0  0  0  0
    5.3713   -5.4628    3.6256 H   0  0  0  0  0  0  0  0  0  0  0  0
    5.9214   -3.8130    3.9206 H   0  0  0  0  0  0  0  0  0  0  0  0
    7.9301   -5.7548    1.8104 H   0  0  0  0  0  0  0  0  0  0  0  0
    7.2607   -5.3742    0.2494 H   0  0  0  0  0  0  0  0  0  0  0  0
    6.4151   -6.5069    1.3011 H   0  0  0  0  0  0  0  0  0  0  0  0
  1  2  2  0
  1 59  1  0
  1 60  1  0
  2  8  1  0
  2  3  1  0
  3  4  1  0
  3  5  1  0
  3 61  1  6
  4 62  1  0
  5  6  1  0
  5 63  1  0
  5 64  1  0
  6 21  1  0
  6  7  1  1
  6  8  1  0
  7 65  1  0
  8  9  1  1
  8 10  1  0
  9 66  1  0
 10 11  1  0
 10 67  1  0
 10 68  1  0
 11 12  1  0
 11 19  1  0
 11 69  1  1
 12 13  1  0
 13 14  2  0
 13 15  1  0
 15 16  1  0
 15 70  1  0
 15 71  1  0
 16 17  1  0
 16 72  1  0
 16 73  1  0
 17 18  1  0
 17 74  1  0
 17 75  1  0
 18 76  1  0
 18 77  1  0
 18 78  1  0
 19 20  2  0
 19 21  1  0
 20 79  1  0
 20 80  1  0
 21 22  1  6
 21 23  1  0
 22 81  1  0
 23 33  1  0
 23 24  1  1
 23 25  1  0
 24 82  1  0
 25 49  1  0
 25 26  1  6
 25 27  1  0
 26 83  1  0
 26 84  1  0
 26 85  1  0
 27 28  1  0
 27 86  1  0
 27 87  1  0
 28 29  1  0
 28 33  1  0
 28 88  1  1
 29 30  1  0
 30 31  1  0
 30 32  2  0
 31 89  1  0
 31 90  1  0
 31 91  1  0
 33 34  1  1
 33 35  1  0
 34 92  1  0
 51 35  1  1
 35 36  1  1
 35 37  1  0
 36 93  1  0
 36 94  1  0
 36 95  1  0
 37 38  1  0
 37 42  1  0
 37 96  1  1
 38 39  1  0
 39 40  1  0
 39 41  2  0
 40 97  1  0
 40 98  1  0
 40 99  1  0
 42 47  1  0
 42 43  1  1
 42 44  1  0
 43100  1  0
 44 55  1  0
 44 45  1  0
 44101  1  1
 45 46  1  0
 47 46  1  6
 46102  1  0
 46103  1  0
 47 48  1  0
 47 50  1  0
 48 49  1  0
 48104  1  0
 48105  1  0
 50 51  1  0
 50 53  1  0
 50106  1  6
 51 52  2  0
 53 56  1  0
 53 54  1  6
 53 55  1  0
 54107  1  0
 54108  1  0
 54109  1  0
 55 56  1  0
 55110  1  6
 56 57  1  0
 56 58  1  0
 57111  1  0
 57112  1  0
 57113  1  0
 58114  1  0
 58115  1  0
 58116  1  0
M  END
>  <i_m_ct_stereo_status>  (96) 
1

>  <s_m_source_file>  (96) 
/var/tmp/pbs.5075288.sched01/tmpq0rgj53d/65gxdktgdh.sdf

>  <i_m_source_file_index>  (96) 
41

>  <i_lp_mmshare_version>  (96) 
48012

>  <i_f3d_flags>  (96) 
0

>  <s_epik_input>  (96) 
W0NIM11bQ0gyXVtDSDJdW0NIMl1DKD1PKU9bQ0BIXShbQ0gyXVtDQEBdKFtPSF0pKFtDQF0xMltPSF0pQyg9W0NIMl0pW0NAQEhdKFtPSF0pW0NIMl0xKUMoPVtDSDJdKVtDQF0yKFtPSF0pW0NAQF0oW09IXSkoW0NAQF0oW0NIM10pKE9bQ0gyXTMpW0NIMl1bQ0BIXTRPQyg9TylbQ0gzXSlbQ0BdNChbT0hdKVtDQF0oW0NIM10pKFtDQEhdNU9DKD1PKVtDSDNdKVtTK10oW08tXSlbQ0BASF02W0NAXShbQ0gzXSkoQzcoW0NIM10pW0NIM10pW0NASF03W0NASF0oW0NAXTUoW0NAXTM2OClbT0hdKU9bQ0gyXTg=

>  <s_epik_cmdline>  (96) 
J2VwaWtfcHl0aG9uJywgJy1waHQnLCAnMi4wJywgJy1waCcsICc3LjAnLCAnLXRuJywgJzgnLCAnLW1hJywgJzIwMCcsICctaW1hZScsICc8aW5maWxlLm1hZT4nLCAnLW9tYWUnLCAnPG91dGZpbGUubWFlPic=

>  <r_lp_tautomer_probability>  (96) 
1

>  <r_epik_Ionization_Penalty>  (96) 
5.94098e-06

>  <r_epik_Ionization_Penalty_Charging>  (96) 
0

>  <r_epik_Ionization_Penalty_Neutral>  (96) 
5.94098e-06

>  <r_epik_State_Penalty>  (96) 
-0

>  <r_epik_Charging_Adjusted_Penalty>  (96) 
0

>  <i_epik_Tot_Q>  (96) 
0

>  <i_epik_Tot_abs_Q>  (96) 
2

>  <s_epik_Chemistry_Notes>  (96) 
This compound has an ester and may undergo hydrolysis at high or low pH.

>  <s_lp_Force_Field>  (96) 
OPLS3e

>  <r_lp_Energy>  (96) 
186.534

>  <b_lp_Chiralities_Consistent>  (96) 
1

>  <s_lp_Variant>  (96) 
34:0-1

>  <s_i_glide_gridfile>  (96) 
pfpi4k_grid

>  <i_i_glide_lignum>  (96) 
41

>  <i_i_glide_rotatable_bonds>  (96) 
17

>  <r_i_docking_score>  (96) 
-2.75583

>  <r_i_glide_ligand_efficiency>  (96) 
-0.0475143

>  <r_i_glide_ligand_efficiency_sa>  (96) 
-0.183922

>  <r_i_glide_ligand_efficiency_ln>  (96) 
-0.544583

>  <r_i_glide_gscore>  (96) 
-2.75583

>  <r_i_glide_lipo>  (96) 
-0.759507

>  <r_i_glide_hbond>  (96) 
0

>  <r_i_glide_metal>  (96) 
-0

>  <r_i_glide_rewards>  (96) 
-1.5488

>  <r_i_glide_evdw>  (96) 
-8.03419

>  <r_i_glide_ecoul>  (96) 
-3.06307

>  <r_i_glide_erotb>  (96) 
0.00686995

>  <r_i_glide_esite>  (96) 
-0.081052

>  <r_i_glide_emodel>  (96) 
-20.9835

>  <r_i_glide_energy>  (96) 
-11.0973

>  <r_i_glide_einternal>  (96) 
7.1372

>  <r_i_glide_intrahb_reward>  (96) 
-1.5

>  <i_i_glide_confnum>  (96) 
6

>  <i_i_glide_posenum>  (96) 
25

>  <r_i_glide_eff_state_penalty>  (96) 
0

>  <ligand_id>  (96) 
34

>  <original_smiles>  (96) 
C=C1C(O)CC2(O)C1(O)CC(OC(=O)CCCC)C(=C)C2(O)C1(O)C2(C)CC(OC(C)=O)C1(O)C1(C)C(OC(C)=O)C3(O)C4OCC3(CO2)C([S+]1[O-])C1(C)C4C1(C)C

>  <smiles>  (96) 
[H]OC1([H])C(=C([H])[H])C2(O[H])C([H])([H])C([H])(OC(=O)C([H])([H])C([H])([H])C([H])([H])C([H])([H])[H])C(=C([H])[H])C(O[H])(C3(O[H])C4(C([H])([H])[H])OC([H])([H])C56C([H])([H])OC7([H])C8([H])C(C([H])([H])[H])(C([H])([H])[H])C8(C([H])([H])[H])C5([H])S(=O)C(C([H])([H])[H])(C([H])(OC(=O)C([H])([H])[H])C76O[H])C3(O[H])C([H])(OC(=O)C([H])([H])[H])C4([H])[H])C2(O[H])C1([H])[H]

$$$$
36:0:0
     RDKit          3D

133141  0  0  1  0  0  0  0  0999 V2000
    3.4290  -11.7571    4.3960 C   0  0  0  0  0  0  0  0  0  0  0  0
    2.8162  -10.6409    3.9650 C   0  0  0  0  0  0  0  0  0  0  0  0
    3.4374   -9.2881    3.8349 C   0  0  0  0  0  0  0  0  0  0  0  0
    2.1931   -8.3785    3.7657 C   0  0  1  0  0  0  0  0  0  0  0  0
    2.2752   -7.1613    2.7990 C   0  0  2  0  0  0  0  0  0  0  0  0
    2.6535   -7.6430    1.5181 O   0  0  0  0  0  0  0  0  0  0  0  0
    3.3887   -6.1303    3.1599 C   0  0  0  0  0  0  0  0  0  0  0  0
    3.1503   -5.1702    4.3663 C   0  0  2  0  0  0  0  0  0  0  0  0
    1.7278   -4.8808    4.4600 O   0  0  0  0  0  0  0  0  0  0  0  0
    2.5156   -3.7121    4.1588 C   0  0  2  0  0  0  0  0  0  0  0  0
    2.3777   -3.1823    2.7276 C   0  0  0  0  0  0  0  0  0  0  0  0
    2.2141   -2.5391    5.1630 C   0  0  1  0  0  0  0  0  0  0  0  0
    1.2729   -3.1096    6.0292 O   0  0  0  0  0  0  0  0  0  0  0  0
    3.3401   -1.5226    5.8143 C   0  0  2  0  0  0  0  0  0  0  0  0
    3.6902   -0.7426    4.6847 O   0  0  0  0  0  0  0  0  0  0  0  0
    4.7047   -2.3751    6.0400 C   0  0  0  0  0  0  0  0  0  0  0  0
    5.3428   -2.9354    4.7039 C   0  0  0  0  0  0  0  0  0  0  0  0
    6.0787   -1.7069    6.3799 C   0  0  0  0  0  0  0  0  0  0  0  0
    4.2785   -3.3480    7.1977 C   0  0  2  0  0  0  0  0  0  0  0  0
    4.4746   -2.7614    8.6638 C   0  0  1  0  0  0  0  0  0  0  0  0
    5.8098   -2.9522    9.1025 O   0  0  0  0  0  0  0  0  0  0  0  0
    3.8390   -1.3768    9.1830 C   0  0  1  0  0  0  0  0  0  0  0  0
    3.7449   -1.5233   10.7338 C   0  0  0  0  0  0  0  0  0  0  0  0
    4.8824    0.1501    8.9123 S   0  0  0  0  0  0  0  0  0  0  0  0
    6.3942   -0.0335    9.0163 O   0  0  0  0  0  0  0  0  0  0  0  0
    4.1528    0.5658    7.2245 C   0  0  2  0  0  0  0  0  0  0  0  0
    4.1053    2.0845    7.0777 C   0  0  0  0  0  0  0  0  0  0  0  0
    3.4818    2.4900    5.7453 C   0  0  0  0  0  0  0  0  0  0  0  0
    2.0133    2.9287    5.8989 C   0  0  1  0  0  0  0  0  0  0  0  0
    2.1003    4.3329    6.5959 C   0  0  0  0  0  0  0  0  0  0  0  0
    1.2911    3.1523    4.5334 C   0  0  1  0  0  0  0  0  0  0  0  0
    1.7287    2.2954    3.4913 O   0  0  0  0  0  0  0  0  0  0  0  0
   -0.2374    2.9986    4.7967 C   0  0  1  0  0  0  0  0  0  0  0  0
   -0.9310    4.3285    4.3915 C   0  0  0  0  0  0  0  0  0  0  0  0
   -0.8432    2.0033    3.9825 O   0  0  0  0  0  0  0  0  0  0  0  0
   -0.3256    2.5755    6.3071 C   0  0  1  0  0  0  0  0  0  0  0  0
   -1.7172    2.1729    6.9465 C   0  0  0  0  0  0  0  0  0  0  0  0
   -1.6900    2.2319    8.4908 C   0  0  0  0  0  0  0  0  0  0  0  0
   -2.8957    3.0739    6.5224 C   0  0  0  0  0  0  0  0  0  0  0  0
   -2.1537    0.9086    6.5161 O   0  0  0  0  0  0  0  0  0  0  0  0
    1.0942    1.9375    6.7196 C   0  0  1  0  0  0  0  0  0  0  0  0
    1.4036    0.3248    6.5960 C   0  0  2  0  0  0  0  0  0  0  0  0
    1.0670    0.1574    5.2435 O   0  0  0  0  0  0  0  0  0  0  0  0
    0.4153   -0.6030    7.4507 C   0  0  1  0  0  0  0  0  0  0  0  0
   -0.5412   -1.3781    6.7569 O   0  0  0  0  0  0  0  0  0  0  0  0
    1.1662   -1.3951    8.5803 C   0  0  1  0  0  0  0  0  0  0  0  0
    1.1887   -2.8190    8.6232 O   0  0  0  0  0  0  0  0  0  0  0  0
    0.1752   -3.5227    9.1839 C   0  0  0  0  0  0  0  0  0  0  0  0
    0.3963   -5.0245    9.1526 C   0  0  0  0  0  0  0  0  0  0  0  0
   -0.8538   -3.0514    9.6790 O   0  0  0  0  0  0  0  0  0  0  0  0
    2.5474   -0.7384    8.5216 C   0  0  1  0  0  0  0  0  0  0  0  0
    2.1437    0.5211    9.4621 C   0  0  0  0  0  0  0  0  0  0  0  0
    2.8618   -0.3500    6.9720 C   0  0  1  0  0  0  0  0  0  0  0  0
    4.3682   -4.9197    6.9530 C   0  0  2  0  0  0  0  0  0  0  0  0
    3.9765   -5.6553    8.2591 C   0  0  0  0  0  0  0  0  0  0  0  0
    5.7425   -5.2945    6.6665 O   0  0  0  0  0  0  0  0  0  0  0  0
    5.3525   -6.2739    5.6574 C   0  0  0  0  0  0  0  0  0  0  0  0
    6.2790   -6.0930    4.4401 C   0  0  0  0  0  0  0  0  0  0  0  0
    5.6468   -7.7089    6.1585 C   0  0  0  0  0  0  0  0  0  0  0  0
    3.8814   -5.6923    5.6680 C   0  0  2  0  0  0  0  0  0  0  0  0
    1.0684   -9.2315    3.5462 O   0  0  0  0  0  0  0  0  0  0  0  0
    1.3700  -10.5475    3.7064 C   0  0  0  0  0  0  0  0  0  0  0  0
    0.5723  -11.4815    3.6682 O   0  0  0  0  0  0  0  0  0  0  0  0
    2.9013  -12.6820    4.6029 H   0  0  0  0  0  0  0  0  0  0  0  0
    4.4874  -11.7530    4.6433 H   0  0  0  0  0  0  0  0  0  0  0  0
    3.9451   -9.1362    4.7353 H   0  0  0  0  0  0  0  0  0  0  0  0
    4.0401   -9.2914    2.9064 H   0  0  0  0  0  0  0  0  0  0  0  0
    2.0575   -7.9758    4.7733 H   0  0  0  0  0  0  0  0  0  0  0  0
    1.3054   -6.6471    2.7134 H   0  0  0  0  0  0  0  0  0  0  0  0
    3.3821   -8.2341    1.6319 H   0  0  0  0  0  0  0  0  0  0  0  0
    4.2640   -6.7548    3.3190 H   0  0  0  0  0  0  0  0  0  0  0  0
    3.6736   -5.5504    2.2861 H   0  0  0  0  0  0  0  0  0  0  0  0
    3.1209   -2.3993    2.5443 H   0  0  0  0  0  0  0  0  0  0  0  0
    1.3734   -2.7688    2.5635 H   0  0  0  0  0  0  0  0  0  0  0  0
    2.5127   -3.9440    1.9684 H   0  0  0  0  0  0  0  0  0  0  0  0
    1.5383   -1.9392    4.5604 H   0  0  0  0  0  0  0  0  0  0  0  0
    0.7739   -3.7367    5.5238 H   0  0  0  0  0  0  0  0  0  0  0  0
    3.9098   -1.3174    3.9727 H   0  0  0  0  0  0  0  0  0  0  0  0
    6.1997   -3.5698    4.9136 H   0  0  0  0  0  0  0  0  0  0  0  0
    5.7323   -2.1314    4.0744 H   0  0  0  0  0  0  0  0  0  0  0  0
    4.7836   -3.4844    3.9852 H   0  0  0  0  0  0  0  0  0  0  0  0
    6.9128   -2.4106    6.4248 H   0  0  0  0  0  0  0  0  0  0  0  0
    6.1479   -1.2986    7.3316 H   0  0  0  0  0  0  0  0  0  0  0  0
    6.3704   -0.9174    5.6918 H   0  0  0  0  0  0  0  0  0  0  0  0
    3.2084   -3.2979    7.2708 H   0  0  0  0  0  0  0  0  0  0  0  0
    3.9308   -3.4483    9.3006 H   0  0  0  0  0  0  0  0  0  0  0  0
    6.3738   -2.3655    8.6219 H   0  0  0  0  0  0  0  0  0  0  0  0
    2.7906   -1.9567   11.0352 H   0  0  0  0  0  0  0  0  0  0  0  0
    3.8726   -0.5824   11.2699 H   0  0  0  0  0  0  0  0  0  0  0  0
    4.5209   -2.1682   11.1436 H   0  0  0  0  0  0  0  0  0  0  0  0
    4.9040    0.3558    6.4844 H   0  0  0  0  0  0  0  0  0  0  0  0
    3.6438    2.5860    7.9272 H   0  0  0  0  0  0  0  0  0  0  0  0
    5.1369    2.4452    7.0959 H   0  0  0  0  0  0  0  0  0  0  0  0
    4.0666    3.2983    5.3065 H   0  0  0  0  0  0  0  0  0  0  0  0
    3.5951    1.6870    5.0238 H   0  0  0  0  0  0  0  0  0  0  0  0
    2.2405    4.2578    7.6728 H   0  0  0  0  0  0  0  0  0  0  0  0
    1.2204    4.9557    6.4415 H   0  0  0  0  0  0  0  0  0  0  0  0
    2.9262    4.9337    6.2119 H   0  0  0  0  0  0  0  0  0  0  0  0
    1.5288    4.1586    4.1712 H   0  0  0  0  0  0  0  0  0  0  0  0
    1.4040    2.6430    2.6721 H   0  0  0  0  0  0  0  0  0  0  0  0
   -0.6853    5.1414    5.0780 H   0  0  0  0  0  0  0  0  0  0  0  0
   -2.0114    4.2521    4.3265 H   0  0  0  0  0  0  0  0  0  0  0  0
   -0.6093    4.6402    3.3955 H   0  0  0  0  0  0  0  0  0  0  0  0
   -0.7275    2.2444    3.0752 H   0  0  0  0  0  0  0  0  0  0  0  0
   -0.2794    3.5449    6.7974 H   0  0  0  0  0  0  0  0  0  0  0  0
   -1.6805    3.2660    8.8405 H   0  0  0  0  0  0  0  0  0  0  0  0
   -0.8196    1.7705    8.9430 H   0  0  0  0  0  0  0  0  0  0  0  0
   -2.5736    1.7588    8.9198 H   0  0  0  0  0  0  0  0  0  0  0  0
   -2.6752    4.1278    6.6886 H   0  0  0  0  0  0  0  0  0  0  0  0
   -3.7871    2.8407    7.1056 H   0  0  0  0  0  0  0  0  0  0  0  0
   -3.1792    2.9354    5.4802 H   0  0  0  0  0  0  0  0  0  0  0  0
   -2.0985    0.9079    5.5677 H   0  0  0  0  0  0  0  0  0  0  0  0
    1.2381    2.2202    7.7521 H   0  0  0  0  0  0  0  0  0  0  0  0
    1.6131    0.7280    4.7116 H   0  0  0  0  0  0  0  0  0  0  0  0
   -0.2521    0.0513    7.9798 H   0  0  0  0  0  0  0  0  0  0  0  0
   -0.0404   -1.9682    6.2095 H   0  0  0  0  0  0  0  0  0  0  0  0
    0.6713   -1.1359    9.5192 H   0  0  0  0  0  0  0  0  0  0  0  0
    0.7536   -5.3362    8.1687 H   0  0  0  0  0  0  0  0  0  0  0  0
   -0.5347   -5.5521    9.3666 H   0  0  0  0  0  0  0  0  0  0  0  0
    1.1308   -5.3074    9.9090 H   0  0  0  0  0  0  0  0  0  0  0  0
    1.1497    0.9144    9.3170 H   0  0  0  0  0  0  0  0  0  0  0  0
    2.7564    1.4139    9.4341 H   0  0  0  0  0  0  0  0  0  0  0  0
    2.0767    0.2606   10.5142 H   0  0  0  0  0  0  0  0  0  0  0  0
    3.0185   -5.2985    8.6357 H   0  0  0  0  0  0  0  0  0  0  0  0
    4.7189   -5.5306    9.0482 H   0  0  0  0  0  0  0  0  0  0  0  0
    3.8287   -6.7271    8.1557 H   0  0  0  0  0  0  0  0  0  0  0  0
    6.3250   -7.0000    3.8213 H   0  0  0  0  0  0  0  0  0  0  0  0
    7.3221   -5.8894    4.7315 H   0  0  0  0  0  0  0  0  0  0  0  0
    5.9734   -5.3104    3.7399 H   0  0  0  0  0  0  0  0  0  0  0  0
    5.5435   -8.4280    5.3623 H   0  0  0  0  0  0  0  0  0  0  0  0
    5.0148   -7.9903    6.9995 H   0  0  0  0  0  0  0  0  0  0  0  0
    6.6853   -7.7844    6.5003 H   0  0  0  0  0  0  0  0  0  0  0  0
    3.2603   -6.5096    6.0227 H   0  0  0  0  0  0  0  0  0  0  0  0
  1  2  2  0
  1 64  1  0
  1 65  1  0
  2 62  1  0
  2  3  1  0
  3  4  1  0
  3 66  1  0
  3 67  1  0
  4  5  1  0
  4 61  1  0
  4 68  1  1
  5  6  1  0
  5  7  1  0
  5 69  1  6
  6 70  1  0
  8  7  1  6
  7 71  1  0
  7 72  1  0
  8 10  1  0
  8 60  1  0
  8  9  1  0
  9 10  1  0
 10 11  1  6
 10 12  1  0
 11 73  1  0
 11 74  1  0
 11 75  1  0
 12 13  1  0
 12 14  1  0
 12 76  1  6
 13 77  1  0
 53 14  1  6
 14 15  1  6
 14 16  1  0
 15 78  1  0
 16 17  1  0
 16 18  1  0
 16 19  1  0
 17 79  1  0
 17 80  1  0
 17 81  1  0
 18 82  1  0
 18 83  1  0
 18 84  1  0
 19 20  1  0
 19 54  1  0
 19 85  1  6
 20 21  1  0
 20 22  1  0
 20 86  1  1
 21 87  1  0
 22 51  1  0
 22 23  1  1
 24 22  1  6
 23 88  1  0
 23 89  1  0
 23 90  1  0
 24 25  2  0
 24 26  1  0
 26 53  1  0
 26 27  1  0
 26 91  1  6
 27 28  1  0
 27 92  1  0
 27 93  1  0
 28 29  1  0
 28 94  1  0
 28 95  1  0
 29 41  1  0
 29 30  1  1
 29 31  1  0
 30 96  1  0
 30 97  1  0
 30 98  1  0
 31 32  1  0
 31 33  1  0
 31 99  1  6
 32100  1  0
 33 34  1  0
 33 35  1  6
 33 36  1  0
 34101  1  0
 34102  1  0
 34103  1  0
 35104  1  0
 36 37  1  0
 36 41  1  0
 36105  1  1
 37 38  1  0
 37 39  1  0
 37 40  1  0
 38106  1  0
 38107  1  0
 38108  1  0
 39109  1  0
 39110  1  0
 39111  1  0
 40112  1  0
 41 42  1  0
 41113  1  1
 42 53  1  0
 42 43  1  6
 42 44  1  0
 43114  1  0
 44 45  1  0
 44 46  1  0
 44115  1  1
 45116  1  0
 46 47  1  0
 46 51  1  0
 46117  1  1
 47 48  1  0
 48 49  1  0
 48 50  2  0
 49118  1  0
 49119  1  0
 49120  1  0
 51 52  1  1
 51 53  1  0
 52121  1  0
 52122  1  0
 52123  1  0
 54 60  1  0
 54 55  1  1
 54 56  1  0
 55124  1  0
 55125  1  0
 55126  1  0
 56 57  1  0
 57 58  1  0
 57 59  1  0
 57 60  1  0
 58127  1  0
 58128  1  0
 58129  1  0
 59130  1  0
 59131  1  0
 59132  1  0
 60133  1  1
 61 62  1  0
 62 63  2  0
M  END
>  <i_m_ct_stereo_status>  (97) 
1

>  <s_m_source_file>  (97) 
/var/tmp/pbs.5075288.sched01/tmpq0rgj53d/65gxdktgdh.sdf

>  <i_m_source_file_index>  (97) 
43

>  <i_lp_mmshare_version>  (97) 
48012

>  <i_f3d_flags>  (97) 
0

>  <s_epik_input>  (97) 
W0NIMl09QzFbQ0gyXVtDQEhdKE9DMT1PKVtDQEhdKFtPSF0pW0NIMl1bQ0BdKE8yKShbQ0BdMihbQ0gzXSlbQ0BASF0oW09IXSlbQ0BdMyhbQ0BAXTQ1NilbT0hdKVtDQEBIXTdbQ0BAXShbQ0gzXSkoT0M3KFtDSDNdKVtDSDNdKVtDQEhdKEMzKFtDSDNdKVtDSDNdKVtDQEBIXShbT0hdKVtDQF04KFtDSDNdKVtDQF02KFtDSDNdKVtDQEhdKE9DKD1PKVtDSDNdKVtDQEhdKFtPSF0pW0NAQF01KFtPSF0pW0NASF05W0NAQF0oW0NIM10pKFtDSDJdW0NIMl1bQ0BIXTRbUytdOFtPLV0pW0NAQEhdKFtPSF0pW0NAQF0oW0NIM10pKFtPSF0pW0NASF05QyhbQ0gzXSkoW0NIM10pW09IXQ==

>  <s_epik_cmdline>  (97) 
J2VwaWtfcHl0aG9uJywgJy1waHQnLCAnMi4wJywgJy1waCcsICc3LjAnLCAnLXRuJywgJzgnLCAnLW1hJywgJzIwMCcsICctaW1hZScsICc8aW5maWxlLm1hZT4nLCAnLW9tYWUnLCAnPG91dGZpbGUubWFlPic=

>  <r_lp_tautomer_probability>  (97) 
1

>  <r_epik_Ionization_Penalty>  (97) 
6.76789e-06

>  <r_epik_Ionization_Penalty_Charging>  (97) 
0

>  <r_epik_Ionization_Penalty_Neutral>  (97) 
6.76789e-06

>  <r_epik_State_Penalty>  (97) 
-0

>  <r_epik_Charging_Adjusted_Penalty>  (97) 
0

>  <i_epik_Tot_Q>  (97) 
0

>  <i_epik_Tot_abs_Q>  (97) 
2

>  <s_epik_Chemistry_Notes>  (97) 
This compound has an ester and may undergo hydrolysis at high or low pH.

>  <s_lp_Force_Field>  (97) 
OPLS3e

>  <r_lp_Energy>  (97) 
307.187

>  <b_lp_Chiralities_Consistent>  (97) 
1

>  <s_lp_Variant>  (97) 
36:0-1

>  <s_i_glide_gridfile>  (97) 
pfpi4k_grid

>  <i_i_glide_lignum>  (97) 
43

>  <i_i_glide_rotatable_bonds>  (97) 
15

>  <r_i_docking_score>  (97) 
-5.19683

>  <r_i_glide_ligand_efficiency>  (97) 
-0.0824894

>  <r_i_glide_ligand_efficiency_sa>  (97) 
-0.32823

>  <r_i_glide_ligand_efficiency_ln>  (97) 
-1.01044

>  <r_i_glide_gscore>  (97) 
-5.19683

>  <r_i_glide_lipo>  (97) 
-0.243266

>  <r_i_glide_hbond>  (97) 
-0.16

>  <r_i_glide_metal>  (97) 
-0

>  <r_i_glide_rewards>  (97) 
-2.10159

>  <r_i_glide_evdw>  (97) 
-29.5378

>  <r_i_glide_ecoul>  (97) 
-8.82813

>  <r_i_glide_erotb>  (97) 
0.132976

>  <r_i_glide_esite>  (97) 
-0.023839

>  <r_i_glide_emodel>  (97) 
-70.5697

>  <r_i_glide_energy>  (97) 
-38.3659

>  <r_i_glide_einternal>  (97) 
5.66656

>  <r_i_glide_intrahb_reward>  (97) 
-2

>  <i_i_glide_confnum>  (97) 
1

>  <i_i_glide_posenum>  (97) 
17

>  <r_i_glide_eff_state_penalty>  (97) 
0

>  <ligand_id>  (97) 
36

>  <original_smiles>  (97) 
C=C1CC(C(O)CC23OC2(C)C(O)C2(O)C(C)(C)C(C(O)C4(C)[S+]([O-])C5CCC6(C)C(O)C(C)(O)C(C(C)(C)O)C6C6(O)C(O)C(OC(C)=O)C4(C)C562)C2(C)OC(C)(C)C23)OC1=O

>  <smiles>  (97) 
[H]OC([H])(C([H])([H])C12OC1(C([H])([H])[H])C([H])(O[H])C1(O[H])C(C([H])([H])[H])(C([H])([H])[H])C([H])(C([H])(O[H])C3(C([H])([H])[H])S(=O)C4([H])C([H])([H])C([H])([H])C5(C([H])([H])[H])C([H])(O[H])C(O[H])(C([H])([H])[H])C([H])(C(O[H])(C([H])([H])[H])C([H])([H])[H])C5([H])C5(O[H])C([H])(O[H])C([H])(OC(=O)C([H])([H])[H])C3(C([H])([H])[H])C451)C1(C([H])([H])[H])OC(C([H])([H])[H])(C([H])([H])[H])C12[H])C1([H])OC(=O)C(=C([H])[H])C1([H])[H]

$$$$
36:0:1
     RDKit          3D

133141  0  0  1  0  0  0  0  0999 V2000
    1.0408  -11.2610    3.8443 C   0  0  0  0  0  0  0  0  0  0  0  0
    1.0079   -9.9758    3.4613 C   0  0  0  0  0  0  0  0  0  0  0  0
    2.1174   -8.9846    3.5763 C   0  0  0  0  0  0  0  0  0  0  0  0
    1.3933   -7.6475    3.3299 C   0  0  1  0  0  0  0  0  0  0  0  0
    2.1447   -6.5902    2.4996 C   0  0  2  0  0  0  0  0  0  0  0  0
    2.6174   -7.1396    1.2815 O   0  0  0  0  0  0  0  0  0  0  0  0
    3.3817   -6.0106    3.2249 C   0  0  0  0  0  0  0  0  0  0  0  0
    3.1572   -5.0268    4.3906 C   0  0  2  0  0  0  0  0  0  0  0  0
    1.7524   -4.8001    4.5597 O   0  0  0  0  0  0  0  0  0  0  0  0
    2.4821   -3.6175    4.1769 C   0  0  2  0  0  0  0  0  0  0  0  0
    2.2584   -3.1416    2.7438 C   0  0  0  0  0  0  0  0  0  0  0  0
    2.1912   -2.4228    5.1357 C   0  0  1  0  0  0  0  0  0  0  0  0
    1.3045   -2.9921    6.0408 O   0  0  0  0  0  0  0  0  0  0  0  0
    3.3241   -1.3501    5.6825 C   0  0  2  0  0  0  0  0  0  0  0  0
    3.5537   -0.6046    4.5047 O   0  0  0  0  0  0  0  0  0  0  0  0
    4.7236   -2.1480    5.8526 C   0  0  0  0  0  0  0  0  0  0  0  0
    5.3037   -2.7289    4.5037 C   0  0  0  0  0  0  0  0  0  0  0  0
    6.0855   -1.4242    6.0898 C   0  0  0  0  0  0  0  0  0  0  0  0
    4.4135   -3.1004    7.0598 C   0  0  2  0  0  0  0  0  0  0  0  0
    4.6936   -2.4601    8.4906 C   0  0  1  0  0  0  0  0  0  0  0  0
    6.0519   -2.6039    8.8689 O   0  0  0  0  0  0  0  0  0  0  0  0
    4.0501   -1.0755    9.0016 C   0  0  1  0  0  0  0  0  0  0  0  0
    4.0609   -1.1657   10.5600 C   0  0  0  0  0  0  0  0  0  0  0  0
    5.0096    0.4812    8.5974 S   0  0  0  0  0  0  0  0  0  0  0  0
    6.5321    0.4055    8.6197 O   0  0  0  0  0  0  0  0  0  0  0  0
    4.1548    0.8122    6.9492 C   0  0  2  0  0  0  0  0  0  0  0  0
    4.0373    2.3192    6.7761 C   0  0  0  0  0  0  0  0  0  0  0  0
    3.3177    2.6539    5.4768 C   0  0  0  0  0  0  0  0  0  0  0  0
    1.8530    3.0476    5.7163 C   0  0  1  0  0  0  0  0  0  0  0  0
    1.9321    4.4740    6.3554 C   0  0  0  0  0  0  0  0  0  0  0  0
    1.0333    3.2025    4.3988 C   0  0  1  0  0  0  0  0  0  0  0  0
    1.4130    2.3218    3.3655 O   0  0  0  0  0  0  0  0  0  0  0  0
   -0.4637    2.9980    4.7731 C   0  0  1  0  0  0  0  0  0  0  0  0
   -1.2258    4.2855    4.3700 C   0  0  0  0  0  0  0  0  0  0  0  0
   -1.0688    1.9570    4.0236 O   0  0  0  0  0  0  0  0  0  0  0  0
   -0.4338    2.6279    6.3007 C   0  0  1  0  0  0  0  0  0  0  0  0
   -1.7584    2.2009    7.0429 C   0  0  0  0  0  0  0  0  0  0  0  0
   -1.6332    2.2810    8.5829 C   0  0  0  0  0  0  0  0  0  0  0  0
   -2.9828    3.0768    6.7056 C   0  0  0  0  0  0  0  0  0  0  0  0
   -2.1824    0.9254    6.6391 O   0  0  0  0  0  0  0  0  0  0  0  0
    1.0303    2.0586    6.6354 C   0  0  1  0  0  0  0  0  0  0  0  0
    1.3889    0.4628    6.5268 C   0  0  2  0  0  0  0  0  0  0  0  0
    0.9816    0.2677    5.2010 O   0  0  0  0  0  0  0  0  0  0  0  0
    0.4958   -0.4772    7.4592 C   0  0  1  0  0  0  0  0  0  0  0  0
   -0.4464   -1.3028    6.8270 O   0  0  0  0  0  0  0  0  0  0  0  0
    1.3535   -1.2076    8.5579 C   0  0  1  0  0  0  0  0  0  0  0  0
    1.4497   -2.6289    8.6401 O   0  0  0  0  0  0  0  0  0  0  0  0
    0.4600   -3.3333    9.2249 C   0  0  0  0  0  0  0  0  0  0  0  0
    0.7204   -4.8339    9.2625 C   0  0  0  0  0  0  0  0  0  0  0  0
   -0.5821   -2.8583    9.6809 O   0  0  0  0  0  0  0  0  0  0  0  0
    2.6977   -0.5030    8.4019 C   0  0  1  0  0  0  0  0  0  0  0  0
    2.3019    0.7628    9.3253 C   0  0  0  0  0  0  0  0  0  0  0  0
    2.8858   -0.1527    6.8263 C   0  0  1  0  0  0  0  0  0  0  0  0
    4.5585   -4.6687    6.8592 C   0  0  2  0  0  0  0  0  0  0  0  0
    4.2787   -5.3705    8.2049 C   0  0  0  0  0  0  0  0  0  0  0  0
    5.9227   -5.0513    6.5065 O   0  0  0  0  0  0  0  0  0  0  0  0
    5.4534   -6.0328    5.5211 C   0  0  0  0  0  0  0  0  0  0  0  0
    6.3067   -5.8822    4.2529 C   0  0  0  0  0  0  0  0  0  0  0  0
    5.7421   -7.4603    6.0211 C   0  0  0  0  0  0  0  0  0  0  0  0
    3.9856   -5.4847    5.6422 C   0  0  2  0  0  0  0  0  0  0  0  0
    0.1471   -8.0006    2.7496 O   0  0  0  0  0  0  0  0  0  0  0  0
   -0.1478   -9.3006    2.8610 C   0  0  0  0  0  0  0  0  0  0  0  0
   -1.1940   -9.8099    2.4816 O   0  0  0  0  0  0  0  0  0  0  0  0
    0.1936  -11.9116    3.7218 H   0  0  0  0  0  0  0  0  0  0  0  0
    1.9254  -11.6884    4.2953 H   0  0  0  0  0  0  0  0  0  0  0  0
    2.5914   -9.0226    4.5571 H   0  0  0  0  0  0  0  0  0  0  0  0
    2.8532   -9.2476    2.8149 H   0  0  0  0  0  0  0  0  0  0  0  0
    1.1292   -7.2027    4.2898 H   0  0  0  0  0  0  0  0  0  0  0  0
    1.4347   -5.8063    2.2393 H   0  0  0  0  0  0  0  0  0  0  0  0
    3.0585   -7.9626    1.4752 H   0  0  0  0  0  0  0  0  0  0  0  0
    3.9686   -6.8579    3.5725 H   0  0  0  0  0  0  0  0  0  0  0  0
    4.0031   -5.5134    2.4818 H   0  0  0  0  0  0  0  0  0  0  0  0
    2.9292   -2.3121    2.5078 H   0  0  0  0  0  0  0  0  0  0  0  0
    1.2239   -2.8141    2.6085 H   0  0  0  0  0  0  0  0  0  0  0  0
    2.4716   -3.9155    2.0149 H   0  0  0  0  0  0  0  0  0  0  0  0
    1.4963   -1.8573    4.5330 H   0  0  0  0  0  0  0  0  0  0  0  0
    0.9715   -3.7899    5.6113 H   0  0  0  0  0  0  0  0  0  0  0  0
    3.8143   -1.2058    3.8160 H   0  0  0  0  0  0  0  0  0  0  0  0
    6.1819   -3.3394    4.7018 H   0  0  0  0  0  0  0  0  0  0  0  0
    5.6390   -1.9308    3.8319 H   0  0  0  0  0  0  0  0  0  0  0  0
    4.7273   -3.3225    3.8334 H   0  0  0  0  0  0  0  0  0  0  0  0
    6.9386   -2.1069    6.1186 H   0  0  0  0  0  0  0  0  0  0  0  0
    6.2091   -0.9970    7.0307 H   0  0  0  0  0  0  0  0  0  0  0  0
    6.3066   -0.6463    5.3562 H   0  0  0  0  0  0  0  0  0  0  0  0
    3.3535   -3.0586    7.1995 H   0  0  0  0  0  0  0  0  0  0  0  0
    4.2023   -3.1319    9.1855 H   0  0  0  0  0  0  0  0  0  0  0  0
    6.3417   -3.4881    8.6623 H   0  0  0  0  0  0  0  0  0  0  0  0
    3.1517   -1.6329   10.9390 H   0  0  0  0  0  0  0  0  0  0  0  0
    4.1804   -0.2000   11.0467 H   0  0  0  0  0  0  0  0  0  0  0  0
    4.8945   -1.7545   10.9350 H   0  0  0  0  0  0  0  0  0  0  0  0
    4.8544    0.6152    6.1565 H   0  0  0  0  0  0  0  0  0  0  0  0
    3.6157    2.8251    7.6383 H   0  0  0  0  0  0  0  0  0  0  0  0
    5.0498    2.7183    6.7179 H   0  0  0  0  0  0  0  0  0  0  0  0
    3.8369    3.4672    4.9723 H   0  0  0  0  0  0  0  0  0  0  0  0
    3.4103    1.8301    4.7759 H   0  0  0  0  0  0  0  0  0  0  0  0
    2.1509    4.4449    7.4232 H   0  0  0  0  0  0  0  0  0  0  0  0
    1.0181    5.0557    6.2369 H   0  0  0  0  0  0  0  0  0  0  0  0
    2.7055    5.0827    5.8840 H   0  0  0  0  0  0  0  0  0  0  0  0
    1.2079    4.1983    3.9816 H   0  0  0  0  0  0  0  0  0  0  0  0
    1.2231    1.4454    3.7003 H   0  0  0  0  0  0  0  0  0  0  0  0
   -0.9671    5.1318    5.0023 H   0  0  0  0  0  0  0  0  0  0  0  0
   -2.3038    4.1748    4.3732 H   0  0  0  0  0  0  0  0  0  0  0  0
   -0.9791    4.5711    3.3458 H   0  0  0  0  0  0  0  0  0  0  0  0
   -0.9419    2.1666    3.1009 H   0  0  0  0  0  0  0  0  0  0  0  0
   -0.3938    3.6114    6.7526 H   0  0  0  0  0  0  0  0  0  0  0  0
   -1.6534    3.3241    8.9072 H   0  0  0  0  0  0  0  0  0  0  0  0
   -0.7191    1.8633    8.9898 H   0  0  0  0  0  0  0  0  0  0  0  0
   -2.4749    1.7777    9.0611 H   0  0  0  0  0  0  0  0  0  0  0  0
   -2.7661    4.1373    6.8585 H   0  0  0  0  0  0  0  0  0  0  0  0
   -3.8168    2.8223    7.3589 H   0  0  0  0  0  0  0  0  0  0  0  0
   -3.3517    2.9364    5.6912 H   0  0  0  0  0  0  0  0  0  0  0  0
   -2.1507    0.9181    5.6840 H   0  0  0  0  0  0  0  0  0  0  0  0
    1.2286    2.3819    7.6482 H   0  0  0  0  0  0  0  0  0  0  0  0
    1.1265   -0.6412    4.9740 H   0  0  0  0  0  0  0  0  0  0  0  0
   -0.1785    0.1533    8.0127 H   0  0  0  0  0  0  0  0  0  0  0  0
    0.0688   -2.0051    6.4058 H   0  0  0  0  0  0  0  0  0  0  0  0
    0.9061   -0.9402    9.5190 H   0  0  0  0  0  0  0  0  0  0  0  0
    1.1037   -5.1715    8.2998 H   0  0  0  0  0  0  0  0  0  0  0  0
   -0.1978   -5.3841    9.4780 H   0  0  0  0  0  0  0  0  0  0  0  0
    1.4479   -5.0674   10.0409 H   0  0  0  0  0  0  0  0  0  0  0  0
    1.2825    1.1053    9.2253 H   0  0  0  0  0  0  0  0  0  0  0  0
    2.8710    1.6806    9.2320 H   0  0  0  0  0  0  0  0  0  0  0  0
    2.3145    0.5310   10.3889 H   0  0  0  0  0  0  0  0  0  0  0  0
    3.3446   -5.0271    8.6434 H   0  0  0  0  0  0  0  0  0  0  0  0
    5.0807   -5.1865    8.9165 H   0  0  0  0  0  0  0  0  0  0  0  0
    4.1753   -6.4483    8.1430 H   0  0  0  0  0  0  0  0  0  0  0  0
    6.3170   -6.8062    3.6605 H   0  0  0  0  0  0  0  0  0  0  0  0
    7.3461   -5.6558    4.5091 H   0  0  0  0  0  0  0  0  0  0  0  0
    5.9503   -5.1101    3.5757 H   0  0  0  0  0  0  0  0  0  0  0  0
    5.3916   -8.2156    5.3097 H   0  0  0  0  0  0  0  0  0  0  0  0
    5.2879   -7.7024    6.9718 H   0  0  0  0  0  0  0  0  0  0  0  0
    6.8160   -7.6100    6.1391 H   0  0  0  0  0  0  0  0  0  0  0  0
    3.4409   -6.3414    6.0372 H   0  0  0  0  0  0  0  0  0  0  0  0
  1  2  2  0
  1 64  1  0
  1 65  1  0
  2 62  1  0
  2  3  1  0
  3  4  1  0
  3 66  1  0
  3 67  1  0
  4  5  1  0
  4 61  1  0
  4 68  1  1
  5  6  1  0
  5  7  1  0
  5 69  1  6
  6 70  1  0
  8  7  1  6
  7 71  1  0
  7 72  1  0
  8 10  1  0
  8 60  1  0
  8  9  1  0
  9 10  1  0
 10 11  1  6
 10 12  1  0
 11 73  1  0
 11 74  1  0
 11 75  1  0
 12 13  1  0
 12 14  1  0
 12 76  1  6
 13 77  1  0
 53 14  1  6
 14 15  1  6
 14 16  1  0
 15 78  1  0
 16 17  1  0
 16 18  1  0
 16 19  1  0
 17 79  1  0
 17 80  1  0
 17 81  1  0
 18 82  1  0
 18 83  1  0
 18 84  1  0
 19 20  1  0
 19 54  1  0
 19 85  1  1
 20 21  1  0
 20 22  1  0
 20 86  1  1
 21 87  1  0
 22 51  1  0
 22 23  1  1
 24 22  1  6
 23 88  1  0
 23 89  1  0
 23 90  1  0
 24 25  2  0
 24 26  1  0
 26 53  1  0
 26 27  1  0
 26 91  1  6
 27 28  1  0
 27 92  1  0
 27 93  1  0
 28 29  1  0
 28 94  1  0
 28 95  1  0
 29 41  1  0
 29 30  1  1
 29 31  1  0
 30 96  1  0
 30 97  1  0
 30 98  1  0
 31 32  1  0
 31 33  1  0
 31 99  1  6
 32100  1  0
 33 34  1  0
 33 35  1  6
 33 36  1  0
 34101  1  0
 34102  1  0
 34103  1  0
 35104  1  0
 36 37  1  0
 36 41  1  0
 36105  1  1
 37 38  1  0
 37 39  1  0
 37 40  1  0
 38106  1  0
 38107  1  0
 38108  1  0
 39109  1  0
 39110  1  0
 39111  1  0
 40112  1  0
 41 42  1  0
 41113  1  1
 42 53  1  0
 42 43  1  6
 42 44  1  0
 43114  1  0
 44 45  1  0
 44 46  1  0
 44115  1  1
 45116  1  0
 46 47  1  0
 46 51  1  0
 46117  1  1
 47 48  1  0
 48 49  1  0
 48 50  2  0
 49118  1  0
 49119  1  0
 49120  1  0
 51 52  1  1
 51 53  1  0
 52121  1  0
 52122  1  0
 52123  1  0
 54 60  1  0
 54 55  1  1
 54 56  1  0
 55124  1  0
 55125  1  0
 55126  1  0
 56 57  1  0
 57 58  1  0
 57 59  1  0
 57 60  1  0
 58127  1  0
 58128  1  0
 58129  1  0
 59130  1  0
 59131  1  0
 59132  1  0
 60133  1  1
 61 62  1  0
 62 63  2  0
M  END
>  <i_m_ct_stereo_status>  (98) 
1

>  <s_m_source_file>  (98) 
/var/tmp/pbs.5075288.sched01/tmpq0rgj53d/65gxdktgdh.sdf

>  <i_m_source_file_index>  (98) 
43

>  <i_lp_mmshare_version>  (98) 
48012

>  <i_f3d_flags>  (98) 
0

>  <s_epik_input>  (98) 
W0NIMl09QzFbQ0gyXVtDQEhdKE9DMT1PKVtDQEhdKFtPSF0pW0NIMl1bQ0BdKE8yKShbQ0BdMihbQ0gzXSlbQ0BASF0oW09IXSlbQ0BdMyhbQ0BAXTQ1NilbT0hdKVtDQEBIXTdbQ0BAXShbQ0gzXSkoT0M3KFtDSDNdKVtDSDNdKVtDQEhdKEMzKFtDSDNdKVtDSDNdKVtDQEBIXShbT0hdKVtDQF04KFtDSDNdKVtDQF02KFtDSDNdKVtDQEhdKE9DKD1PKVtDSDNdKVtDQEhdKFtPSF0pW0NAQF01KFtPSF0pW0NASF05W0NAQF0oW0NIM10pKFtDSDJdW0NIMl1bQ0BIXTRbUytdOFtPLV0pW0NAQEhdKFtPSF0pW0NAQF0oW0NIM10pKFtPSF0pW0NASF05QyhbQ0gzXSkoW0NIM10pW09IXQ==

>  <s_epik_cmdline>  (98) 
J2VwaWtfcHl0aG9uJywgJy1waHQnLCAnMi4wJywgJy1waCcsICc3LjAnLCAnLXRuJywgJzgnLCAnLW1hJywgJzIwMCcsICctaW1hZScsICc8aW5maWxlLm1hZT4nLCAnLW9tYWUnLCAnPG91dGZpbGUubWFlPic=

>  <r_lp_tautomer_probability>  (98) 
1

>  <r_epik_Ionization_Penalty>  (98) 
6.76789e-06

>  <r_epik_Ionization_Penalty_Charging>  (98) 
0

>  <r_epik_Ionization_Penalty_Neutral>  (98) 
6.76789e-06

>  <r_epik_State_Penalty>  (98) 
-0

>  <r_epik_Charging_Adjusted_Penalty>  (98) 
0

>  <i_epik_Tot_Q>  (98) 
0

>  <i_epik_Tot_abs_Q>  (98) 
2

>  <s_epik_Chemistry_Notes>  (98) 
This compound has an ester and may undergo hydrolysis at high or low pH.

>  <s_lp_Force_Field>  (98) 
OPLS3e

>  <r_lp_Energy>  (98) 
307.187

>  <b_lp_Chiralities_Consistent>  (98) 
1

>  <s_lp_Variant>  (98) 
36:0-1

>  <s_i_glide_gridfile>  (98) 
pfpi4k_grid

>  <i_i_glide_lignum>  (98) 
43

>  <i_i_glide_rotatable_bonds>  (98) 
15

>  <r_i_docking_score>  (98) 
-4.84814

>  <r_i_glide_ligand_efficiency>  (98) 
-0.0769546

>  <r_i_glide_ligand_efficiency_sa>  (98) 
-0.306207

>  <r_i_glide_ligand_efficiency_ln>  (98) 
-0.942642

>  <r_i_glide_gscore>  (98) 
-4.84814

>  <r_i_glide_lipo>  (98) 
-0.446078

>  <r_i_glide_hbond>  (98) 
-0.16

>  <r_i_glide_metal>  (98) 
-0

>  <r_i_glide_rewards>  (98) 
-1.5

>  <r_i_glide_evdw>  (98) 
-31.8239

>  <r_i_glide_ecoul>  (98) 
-8.25587

>  <r_i_glide_erotb>  (98) 
0.132976

>  <r_i_glide_esite>  (98) 
-0.0454603

>  <r_i_glide_emodel>  (98) 
-67.2333

>  <r_i_glide_energy>  (98) 
-40.0797

>  <r_i_glide_einternal>  (98) 
5.11208

>  <r_i_glide_intrahb_reward>  (98) 
-1.5

>  <i_i_glide_confnum>  (98) 
1

>  <i_i_glide_posenum>  (98) 
18

>  <r_i_glide_eff_state_penalty>  (98) 
0

>  <ligand_id>  (98) 
36

>  <original_smiles>  (98) 
C=C1CC(C(O)CC23OC2(C)C(O)C2(O)C(C)(C)C(C(O)C4(C)[S+]([O-])C5CCC6(C)C(O)C(C)(O)C(C(C)(C)O)C6C6(O)C(O)C(OC(C)=O)C4(C)C562)C2(C)OC(C)(C)C23)OC1=O

>  <smiles>  (98) 
[H]OC([H])(C([H])([H])C12OC1(C([H])([H])[H])C([H])(O[H])C1(O[H])C(C([H])([H])[H])(C([H])([H])[H])C([H])(C([H])(O[H])C3(C([H])([H])[H])S(=O)C4([H])C([H])([H])C([H])([H])C5(C([H])([H])[H])C([H])(O[H])C(O[H])(C([H])([H])[H])C([H])(C(O[H])(C([H])([H])[H])C([H])([H])[H])C5([H])C5(O[H])C([H])(O[H])C([H])(OC(=O)C([H])([H])[H])C3(C([H])([H])[H])C451)C1(C([H])([H])[H])OC(C([H])([H])[H])(C([H])([H])[H])C12[H])C1([H])OC(=O)C(=C([H])[H])C1([H])[H]

$$$$
36:0:2
     RDKit          3D

133141  0  0  1  0  0  0  0  0999 V2000
    0.7521  -10.7053    4.0986 C   0  0  0  0  0  0  0  0  0  0  0  0
    0.8583   -9.4883    3.5808 C   0  0  0  0  0  0  0  0  0  0  0  0
    2.0608   -8.6068    3.6235 C   0  0  0  0  0  0  0  0  0  0  0  0
    1.4890   -7.2327    3.2005 C   0  0  1  0  0  0  0  0  0  0  0  0
    2.3396   -6.3096    2.3015 C   0  0  2  0  0  0  0  0  0  0  0  0
    2.9316   -7.0857    1.2844 O   0  0  0  0  0  0  0  0  0  0  0  0
    3.5147   -5.6422    3.0287 C   0  0  0  0  0  0  0  0  0  0  0  0
    3.1947   -4.6839    4.1730 C   0  0  2  0  0  0  0  0  0  0  0  0
    1.7683   -4.3873    4.1483 O   0  0  0  0  0  0  0  0  0  0  0  0
    2.5817   -3.2173    3.9047 C   0  0  2  0  0  0  0  0  0  0  0  0
    2.5430   -2.7183    2.4819 C   0  0  0  0  0  0  0  0  0  0  0  0
    2.2037   -2.0620    4.8621 C   0  0  1  0  0  0  0  0  0  0  0  0
    1.1873   -2.6205    5.6351 O   0  0  0  0  0  0  0  0  0  0  0  0
    3.2951   -1.0484    5.5850 C   0  0  2  0  0  0  0  0  0  0  0  0
    3.7228   -0.2979    4.4555 O   0  0  0  0  0  0  0  0  0  0  0  0
    4.6305   -1.9065    5.9254 C   0  0  0  0  0  0  0  0  0  0  0  0
    5.3671   -2.4733    4.6518 C   0  0  0  0  0  0  0  0  0  0  0  0
    5.9801   -1.2408    6.3514 C   0  0  0  0  0  0  0  0  0  0  0  0
    4.1301   -2.8779    7.0464 C   0  0  2  0  0  0  0  0  0  0  0  0
    4.2237   -2.2805    8.5200 C   0  0  1  0  0  0  0  0  0  0  0  0
    5.5173   -2.4612    9.0690 O   0  0  0  0  0  0  0  0  0  0  0  0
    3.5705   -0.8841    8.9930 C   0  0  1  0  0  0  0  0  0  0  0  0
    3.3498   -1.0181   10.5313 C   0  0  0  0  0  0  0  0  0  0  0  0
    4.6209    0.6416    8.7780 S   0  0  0  0  0  0  0  0  0  0  0  0
    6.1374    0.4499    8.9918 O   0  0  0  0  0  0  0  0  0  0  0  0
    4.0225    1.0478    7.0359 C   0  0  2  0  0  0  0  0  0  0  0  0
    3.9721    2.5628    6.8958 C   0  0  0  0  0  0  0  0  0  0  0  0
    3.4483    2.9543    5.5174 C   0  0  0  0  0  0  0  0  0  0  0  0
    1.9757    3.3908    5.5691 C   0  0  1  0  0  0  0  0  0  0  0  0
    2.0194    4.8031    6.2517 C   0  0  0  0  0  0  0  0  0  0  0  0
    1.3585    3.6114    4.1598 C   0  0  1  0  0  0  0  0  0  0  0  0
    1.8721    2.7356    3.1726 O   0  0  0  0  0  0  0  0  0  0  0  0
   -0.1810    3.4576    4.2882 C   0  0  1  0  0  0  0  0  0  0  0  0
   -0.8157    4.7959    3.8395 C   0  0  0  0  0  0  0  0  0  0  0  0
   -0.6802    2.4633    3.4100 O   0  0  0  0  0  0  0  0  0  0  0  0
   -0.3904    3.0260    5.7715 C   0  0  1  0  0  0  0  0  0  0  0  0
   -1.8363    2.6719    6.3163 C   0  0  0  0  0  0  0  0  0  0  0  0
   -2.0345    3.1339    7.7823 C   0  0  0  0  0  0  0  0  0  0  0  0
   -3.0122    3.2403    5.5109 C   0  0  0  0  0  0  0  0  0  0  0  0
   -2.1342    1.3248    6.2393 O   0  0  0  0  0  0  0  0  0  0  0  0
    0.9908    2.4177    6.3243 C   0  0  1  0  0  0  0  0  0  0  0  0
    1.3144    0.8134    6.2382 C   0  0  2  0  0  0  0  0  0  0  0  0
    1.0430    0.6040    4.8851 O   0  0  0  0  0  0  0  0  0  0  0  0
    0.2915   -0.0934    7.0612 C   0  0  1  0  0  0  0  0  0  0  0  0
   -0.5956   -0.9113    6.3295 O   0  0  0  0  0  0  0  0  0  0  0  0
    0.9693   -0.9044    8.2106 C   0  0  1  0  0  0  0  0  0  0  0  0
    0.9822   -2.3405    8.2778 O   0  0  0  0  0  0  0  0  0  0  0  0
    0.2042   -2.9854    9.1878 C   0  0  0  0  0  0  0  0  0  0  0  0
    0.3527   -4.5023    9.1711 C   0  0  0  0  0  0  0  0  0  0  0  0
   -0.5802   -2.4608    9.9640 O   0  0  0  0  0  0  0  0  0  0  0  0
    2.3399   -0.2380    8.2343 C   0  0  1  0  0  0  0  0  0  0  0  0
    1.8644    1.0284    9.1353 C   0  0  0  0  0  0  0  0  0  0  0  0
    2.7454    0.1392    6.7071 C   0  0  1  0  0  0  0  0  0  0  0  0
    4.2739   -4.4442    6.8064 C   0  0  2  0  0  0  0  0  0  0  0  0
    3.7900   -5.1505    8.0627 C   0  0  0  0  0  0  0  0  0  0  0  0
    5.6493   -4.8612    6.6032 O   0  0  0  0  0  0  0  0  0  0  0  0
    5.2563   -5.8138    5.5684 C   0  0  0  0  0  0  0  0  0  0  0  0
    6.2879   -5.6626    4.4377 C   0  0  0  0  0  0  0  0  0  0  0  0
    5.4210   -7.2621    6.0579 C   0  0  0  0  0  0  0  0  0  0  0  0
    3.8069   -5.1848    5.4962 C   0  0  2  0  0  0  0  0  0  0  0  0
    0.2403   -7.5342    2.5969 O   0  0  0  0  0  0  0  0  0  0  0  0
   -0.2149   -8.7702    2.8593 C   0  0  0  0  0  0  0  0  0  0  0  0
   -1.2977   -9.2071    2.5114 O   0  0  0  0  0  0  0  0  0  0  0  0
   -0.1628  -11.2742    4.0263 H   0  0  0  0  0  0  0  0  0  0  0  0
    1.5862  -11.1678    4.6134 H   0  0  0  0  0  0  0  0  0  0  0  0
    2.5075   -8.5731    4.6189 H   0  0  0  0  0  0  0  0  0  0  0  0
    2.7842   -9.0489    2.9339 H   0  0  0  0  0  0  0  0  0  0  0  0
    1.2198   -6.6918    4.1013 H   0  0  0  0  0  0  0  0  0  0  0  0
    1.7085   -5.5469    1.8402 H   0  0  0  0  0  0  0  0  0  0  0  0
    2.3000   -7.7125    0.9800 H   0  0  0  0  0  0  0  0  0  0  0  0
    4.0955   -6.4806    3.4104 H   0  0  0  0  0  0  0  0  0  0  0  0
    4.1638   -5.1541    2.2953 H   0  0  0  0  0  0  0  0  0  0  0  0
    3.2913   -1.9255    2.3452 H   0  0  0  0  0  0  0  0  0  0  0  0
    1.5572   -2.3243    2.2290 H   0  0  0  0  0  0  0  0  0  0  0  0
    2.7686   -3.5055    1.7709 H   0  0  0  0  0  0  0  0  0  0  0  0
    1.6152   -1.4513    4.1962 H   0  0  0  0  0  0  0  0  0  0  0  0
    0.8558   -3.3403    5.1047 H   0  0  0  0  0  0  0  0  0  0  0  0
    4.3708    0.3176    4.7377 H   0  0  0  0  0  0  0  0  0  0  0  0
    6.1989   -3.1155    4.9313 H   0  0  0  0  0  0  0  0  0  0  0  0
    5.7985   -1.6696    4.0462 H   0  0  0  0  0  0  0  0  0  0  0  0
    4.8599   -3.0178    3.8926 H   0  0  0  0  0  0  0  0  0  0  0  0
    6.7983   -1.9556    6.4908 H   0  0  0  0  0  0  0  0  0  0  0  0
    5.9678   -0.8176    7.3011 H   0  0  0  0  0  0  0  0  0  0  0  0
    6.3439   -0.4650    5.6701 H   0  0  0  0  0  0  0  0  0  0  0  0
    3.0722   -2.7944    7.0469 H   0  0  0  0  0  0  0  0  0  0  0  0
    3.6299   -2.9584    9.1221 H   0  0  0  0  0  0  0  0  0  0  0  0
    6.1139   -1.8527    8.6634 H   0  0  0  0  0  0  0  0  0  0  0  0
    2.3822   -1.4599   10.7658 H   0  0  0  0  0  0  0  0  0  0  0  0
    3.4306   -0.0700   11.0556 H   0  0  0  0  0  0  0  0  0  0  0  0
    4.1020   -1.6486   10.9950 H   0  0  0  0  0  0  0  0  0  0  0  0
    4.8179    0.8439    6.3426 H   0  0  0  0  0  0  0  0  0  0  0  0
    3.4492    3.0603    7.6989 H   0  0  0  0  0  0  0  0  0  0  0  0
    4.9924    2.9267    6.9829 H   0  0  0  0  0  0  0  0  0  0  0  0
    4.0566    3.7678    5.1145 H   0  0  0  0  0  0  0  0  0  0  0  0
    3.6088    2.1539    4.8046 H   0  0  0  0  0  0  0  0  0  0  0  0
    2.0926    4.7441    7.3399 H   0  0  0  0  0  0  0  0  0  0  0  0
    1.1560    5.4298    6.0279 H   0  0  0  0  0  0  0  0  0  0  0  0
    2.8740    5.3939    5.9066 H   0  0  0  0  0  0  0  0  0  0  0  0
    1.6345    4.6095    3.7956 H   0  0  0  0  0  0  0  0  0  0  0  0
    1.5475    3.0626    2.3451 H   0  0  0  0  0  0  0  0  0  0  0  0
   -0.6501    5.6001    4.5538 H   0  0  0  0  0  0  0  0  0  0  0  0
   -1.8766    4.7143    3.6210 H   0  0  0  0  0  0  0  0  0  0  0  0
   -0.3741    5.1471    2.9057 H   0  0  0  0  0  0  0  0  0  0  0  0
   -0.5747    2.7779    2.5246 H   0  0  0  0  0  0  0  0  0  0  0  0
   -0.3717    3.9998    6.2207 H   0  0  0  0  0  0  0  0  0  0  0  0
   -2.1504    4.2160    7.8460 H   0  0  0  0  0  0  0  0  0  0  0  0
   -1.1847    2.8480    8.3975 H   0  0  0  0  0  0  0  0  0  0  0  0
   -2.9339    2.7015    8.2262 H   0  0  0  0  0  0  0  0  0  0  0  0
   -2.9503    4.3041    5.4456 H   0  0  0  0  0  0  0  0  0  0  0  0
   -3.9635    2.9990    5.9862 H   0  0  0  0  0  0  0  0  0  0  0  0
   -3.0560    2.8489    4.4958 H   0  0  0  0  0  0  0  0  0  0  0  0
   -1.8014    1.0291    5.4050 H   0  0  0  0  0  0  0  0  0  0  0  0
    1.0411    2.7178    7.3622 H   0  0  0  0  0  0  0  0  0  0  0  0
    1.5431    1.2084    4.3471 H   0  0  0  0  0  0  0  0  0  0  0  0
   -0.3801    0.5670    7.5873 H   0  0  0  0  0  0  0  0  0  0  0  0
   -0.0177   -1.4221    5.7895 H   0  0  0  0  0  0  0  0  0  0  0  0
    0.3955   -0.5997    9.0869 H   0  0  0  0  0  0  0  0  0  0  0  0
    0.4367   -4.8797    8.1534 H   0  0  0  0  0  0  0  0  0  0  0  0
   -0.5043   -4.9874    9.6495 H   0  0  0  0  0  0  0  0  0  0  0  0
    1.2411   -4.7739    9.7354 H   0  0  0  0  0  0  0  0  0  0  0  0
    0.8797    1.4408    8.9303 H   0  0  0  0  0  0  0  0  0  0  0  0
    2.4712    1.9304    9.1497 H   0  0  0  0  0  0  0  0  0  0  0  0
    1.7066    0.7574   10.1802 H   0  0  0  0  0  0  0  0  0  0  0  0
    2.8194   -4.7807    8.3172 H   0  0  0  0  0  0  0  0  0  0  0  0
    4.4857   -5.0154    8.8838 H   0  0  0  0  0  0  0  0  0  0  0  0
    3.6591   -6.2193    7.9650 H   0  0  0  0  0  0  0  0  0  0  0  0
    6.3667   -6.5714    3.8416 H   0  0  0  0  0  0  0  0  0  0  0  0
    7.2782   -5.4646    4.8582 H   0  0  0  0  0  0  0  0  0  0  0  0
    6.0407   -4.8660    3.7452 H   0  0  0  0  0  0  0  0  0  0  0  0
    5.1406   -7.9806    5.2914 H   0  0  0  0  0  0  0  0  0  0  0  0
    4.8299   -7.5080    6.9302 H   0  0  0  0  0  0  0  0  0  0  0  0
    6.4563   -7.4485    6.3267 H   0  0  0  0  0  0  0  0  0  0  0  0
    3.1823   -6.0260    5.7919 H   0  0  0  0  0  0  0  0  0  0  0  0
  1  2  2  0
  1 64  1  0
  1 65  1  0
  2 62  1  0
  2  3  1  0
  3  4  1  0
  3 66  1  0
  3 67  1  0
  4  5  1  0
  4 61  1  0
  4 68  1  1
  5  6  1  0
  5  7  1  0
  5 69  1  6
  6 70  1  0
  8  7  1  6
  7 71  1  0
  7 72  1  0
  8 10  1  0
  8 60  1  0
  8  9  1  0
  9 10  1  0
 10 11  1  6
 10 12  1  0
 11 73  1  0
 11 74  1  0
 11 75  1  0
 12 13  1  0
 12 14  1  0
 12 76  1  6
 13 77  1  0
 53 14  1  6
 14 15  1  6
 14 16  1  0
 15 78  1  0
 16 17  1  0
 16 18  1  0
 16 19  1  0
 17 79  1  0
 17 80  1  0
 17 81  1  0
 18 82  1  0
 18 83  1  0
 18 84  1  0
 19 20  1  0
 19 54  1  0
 19 85  1  6
 20 21  1  0
 20 22  1  0
 20 86  1  1
 21 87  1  0
 22 51  1  0
 22 23  1  1
 24 22  1  6
 23 88  1  0
 23 89  1  0
 23 90  1  0
 24 25  2  0
 24 26  1  0
 26 53  1  0
 26 27  1  0
 26 91  1  6
 27 28  1  0
 27 92  1  0
 27 93  1  0
 28 29  1  0
 28 94  1  0
 28 95  1  0
 29 41  1  0
 29 30  1  1
 29 31  1  0
 30 96  1  0
 30 97  1  0
 30 98  1  0
 31 32  1  0
 31 33  1  0
 31 99  1  6
 32100  1  0
 33 34  1  0
 33 35  1  6
 33 36  1  0
 34101  1  0
 34102  1  0
 34103  1  0
 35104  1  0
 36 37  1  0
 36 41  1  0
 36105  1  1
 37 38  1  0
 37 39  1  0
 37 40  1  0
 38106  1  0
 38107  1  0
 38108  1  0
 39109  1  0
 39110  1  0
 39111  1  0
 40112  1  0
 41 42  1  0
 41113  1  1
 42 53  1  0
 42 43  1  6
 42 44  1  0
 43114  1  0
 44 45  1  0
 44 46  1  0
 44115  1  1
 45116  1  0
 46 47  1  0
 46 51  1  0
 46117  1  1
 47 48  1  0
 48 49  1  0
 48 50  2  0
 49118  1  0
 49119  1  0
 49120  1  0
 51 52  1  1
 51 53  1  0
 52121  1  0
 52122  1  0
 52123  1  0
 54 60  1  0
 54 55  1  1
 54 56  1  0
 55124  1  0
 55125  1  0
 55126  1  0
 56 57  1  0
 57 58  1  0
 57 59  1  0
 57 60  1  0
 58127  1  0
 58128  1  0
 58129  1  0
 59130  1  0
 59131  1  0
 59132  1  0
 60133  1  1
 61 62  1  0
 62 63  2  0
M  END
>  <i_m_ct_stereo_status>  (99) 
1

>  <s_m_source_file>  (99) 
/var/tmp/pbs.5075288.sched01/tmpq0rgj53d/65gxdktgdh.sdf

>  <i_m_source_file_index>  (99) 
43

>  <i_lp_mmshare_version>  (99) 
48012

>  <i_f3d_flags>  (99) 
0

>  <s_epik_input>  (99) 
W0NIMl09QzFbQ0gyXVtDQEhdKE9DMT1PKVtDQEhdKFtPSF0pW0NIMl1bQ0BdKE8yKShbQ0BdMihbQ0gzXSlbQ0BASF0oW09IXSlbQ0BdMyhbQ0BAXTQ1NilbT0hdKVtDQEBIXTdbQ0BAXShbQ0gzXSkoT0M3KFtDSDNdKVtDSDNdKVtDQEhdKEMzKFtDSDNdKVtDSDNdKVtDQEBIXShbT0hdKVtDQF04KFtDSDNdKVtDQF02KFtDSDNdKVtDQEhdKE9DKD1PKVtDSDNdKVtDQEhdKFtPSF0pW0NAQF01KFtPSF0pW0NASF05W0NAQF0oW0NIM10pKFtDSDJdW0NIMl1bQ0BIXTRbUytdOFtPLV0pW0NAQEhdKFtPSF0pW0NAQF0oW0NIM10pKFtPSF0pW0NASF05QyhbQ0gzXSkoW0NIM10pW09IXQ==

>  <s_epik_cmdline>  (99) 
J2VwaWtfcHl0aG9uJywgJy1waHQnLCAnMi4wJywgJy1waCcsICc3LjAnLCAnLXRuJywgJzgnLCAnLW1hJywgJzIwMCcsICctaW1hZScsICc8aW5maWxlLm1hZT4nLCAnLW9tYWUnLCAnPG91dGZpbGUubWFlPic=

>  <r_lp_tautomer_probability>  (99) 
1

>  <r_epik_Ionization_Penalty>  (99) 
6.76789e-06

>  <r_epik_Ionization_Penalty_Charging>  (99) 
0

>  <r_epik_Ionization_Penalty_Neutral>  (99) 
6.76789e-06

>  <r_epik_State_Penalty>  (99) 
-0

>  <r_epik_Charging_Adjusted_Penalty>  (99) 
0

>  <i_epik_Tot_Q>  (99) 
0

>  <i_epik_Tot_abs_Q>  (99) 
2

>  <s_epik_Chemistry_Notes>  (99) 
This compound has an ester and may undergo hydrolysis at high or low pH.

>  <s_lp_Force_Field>  (99) 
OPLS3e

>  <r_lp_Energy>  (99) 
307.187

>  <b_lp_Chiralities_Consistent>  (99) 
1

>  <s_lp_Variant>  (99) 
36:0-1

>  <s_i_glide_gridfile>  (99) 
pfpi4k_grid

>  <i_i_glide_lignum>  (99) 
43

>  <i_i_glide_rotatable_bonds>  (99) 
15

>  <r_i_docking_score>  (99) 
-4.42737

>  <r_i_glide_ligand_efficiency>  (99) 
-0.0702757

>  <r_i_glide_ligand_efficiency_sa>  (99) 
-0.279631

>  <r_i_glide_ligand_efficiency_ln>  (99) 
-0.860831

>  <r_i_glide_gscore>  (99) 
-4.42737

>  <r_i_glide_lipo>  (99) 
-0.176414

>  <r_i_glide_hbond>  (99) 
-0.16

>  <r_i_glide_metal>  (99) 
-0

>  <r_i_glide_rewards>  (99) 
-1.5

>  <r_i_glide_evdw>  (99) 
-32.1456

>  <r_i_glide_ecoul>  (99) 
-6.95509

>  <r_i_glide_erotb>  (99) 
0.132976

>  <r_i_glide_esite>  (99) 
-0.0733884

>  <r_i_glide_emodel>  (99) 
-61.1999

>  <r_i_glide_energy>  (99) 
-39.1007

>  <r_i_glide_einternal>  (99) 
9.58869

>  <r_i_glide_intrahb_reward>  (99) 
-1.5

>  <i_i_glide_confnum>  (99) 
1

>  <i_i_glide_posenum>  (99) 
28

>  <r_i_glide_eff_state_penalty>  (99) 
0

>  <ligand_id>  (99) 
36

>  <original_smiles>  (99) 
C=C1CC(C(O)CC23OC2(C)C(O)C2(O)C(C)(C)C(C(O)C4(C)[S+]([O-])C5CCC6(C)C(O)C(C)(O)C(C(C)(C)O)C6C6(O)C(O)C(OC(C)=O)C4(C)C562)C2(C)OC(C)(C)C23)OC1=O

>  <smiles>  (99) 
[H]OC([H])(C([H])([H])C12OC1(C([H])([H])[H])C([H])(O[H])C1(O[H])C(C([H])([H])[H])(C([H])([H])[H])C([H])(C([H])(O[H])C3(C([H])([H])[H])S(=O)C4([H])C([H])([H])C([H])([H])C5(C([H])([H])[H])C([H])(O[H])C(O[H])(C([H])([H])[H])C([H])(C(O[H])(C([H])([H])[H])C([H])([H])[H])C5([H])C5(O[H])C([H])(O[H])C([H])(OC(=O)C([H])([H])[H])C3(C([H])([H])[H])C451)C1(C([H])([H])[H])OC(C([H])([H])[H])(C([H])([H])[H])C12[H])C1([H])OC(=O)C(=C([H])[H])C1([H])[H]

$$$$
38:0:0
     RDKit          3D

 33 37  0  0  1  0  0  0  0  0999 V2000
    3.2258   -3.4279   -3.6829 C   0  0  0  0  0  0  0  0  0  0  0  0
    3.9643   -2.2895   -3.2534 O   0  0  0  0  0  0  0  0  0  0  0  0
    4.6557   -2.4578   -2.0197 C   0  0  1  0  0  0  0  0  0  0  0  0
    5.7657   -3.4805   -2.1457 C   0  0  0  0  0  0  0  0  0  0  0  0
    6.5947   -2.4394   -1.3721 C   0  0  1  0  0  0  0  0  0  0  0  0
    5.6740   -1.4367   -1.8218 O   0  0  0  0  0  0  0  0  0  0  0  0
    6.8131   -2.4224    0.1797 C   0  0  2  0  0  0  0  0  0  0  0  0
    7.8028   -1.4500    0.4580 O   0  0  0  0  0  0  0  0  0  0  0  0
    7.2971   -3.8319    0.4229 C   0  0  0  0  0  0  0  0  0  0  0  0
    8.4766   -4.1946    0.3619 O   0  0  0  0  0  0  0  0  0  0  0  0
    6.2150   -4.5903    0.5920 O   0  0  0  0  0  0  0  0  0  0  0  0
    5.1067   -3.8216    1.0475 C   0  0  2  0  0  0  0  0  0  0  0  0
    3.7762   -3.5653    0.2893 C   0  0  2  0  0  0  0  0  0  0  0  0
    3.7101   -2.4061   -0.7966 C   0  0  1  0  0  0  0  0  0  0  0  0
    3.8432   -1.0590   -0.0251 C   0  0  0  0  0  0  0  0  0  0  0  0
    4.3792   -1.4935    1.3124 C   0  0  2  0  0  0  0  0  0  0  0  0
    5.6518   -2.4260    1.2443 C   0  0  2  0  0  0  0  0  0  0  0  0
    2.9645   -2.6410    1.6698 S   0  0  0  0  0  0  0  0  0  0  0  0
    3.2253   -3.3356    3.0166 O   0  0  0  0  0  0  0  0  0  0  0  0
    2.6568   -3.1794   -4.5760 H   0  0  0  0  0  0  0  0  0  0  0  0
    2.5165   -3.7755   -2.9351 H   0  0  0  0  0  0  0  0  0  0  0  0
    3.8895   -4.2524   -3.9326 H   0  0  0  0  0  0  0  0  0  0  0  0
    5.5184   -4.4301   -1.6856 H   0  0  0  0  0  0  0  0  0  0  0  0
    6.1161   -3.5995   -3.1715 H   0  0  0  0  0  0  0  0  0  0  0  0
    7.5376   -2.3330   -1.9070 H   0  0  0  0  0  0  0  0  0  0  0  0
    7.8568   -1.3231    1.3919 H   0  0  0  0  0  0  0  0  0  0  0  0
    4.8980   -4.2959    2.0044 H   0  0  0  0  0  0  0  0  0  0  0  0
    3.2410   -4.4775    0.0090 H   0  0  0  0  0  0  0  0  0  0  0  0
    2.6832   -2.4061   -1.1622 H   0  0  0  0  0  0  0  0  0  0  0  0
    4.4290   -0.2507   -0.4546 H   0  0  0  0  0  0  0  0  0  0  0  0
    2.8571   -0.6111    0.0942 H   0  0  0  0  0  0  0  0  0  0  0  0
    4.4583   -0.6718    2.0319 H   0  0  0  0  0  0  0  0  0  0  0  0
    6.1049   -2.3937    2.2338 H   0  0  0  0  0  0  0  0  0  0  0  0
  1  2  1  0
  1 20  1  0
  1 21  1  0
  1 22  1  0
  3  2  1  6
  3  6  1  0
  3 14  1  0
  3  4  1  0
  4  5  1  0
  4 23  1  0
  4 24  1  0
  5  6  1  0
  5  7  1  0
  5 25  1  6
  7 17  1  0
  7  8  1  6
  7  9  1  0
  8 26  1  0
  9 10  2  0
  9 11  1  0
 11 12  1  0
 12 17  1  0
 12 13  1  0
 12 27  1  1
 13 18  1  0
 13 14  1  0
 13 28  1  6
 14 15  1  0
 14 29  1  6
 15 16  1  0
 15 30  1  0
 15 31  1  0
 16 17  1  0
 18 16  1  1
 16 32  1  1
 17 33  1  1
 18 19  2  0
M  END
>  <i_m_ct_stereo_status>  (100) 
1

>  <s_m_source_file>  (100) 
/var/tmp/pbs.5075288.sched01/tmpq0rgj53d/65gxdktgdh.sdf

>  <i_m_source_file_index>  (100) 
46

>  <i_lp_mmshare_version>  (100) 
48012

>  <i_f3d_flags>  (100) 
0

>  <s_epik_input>  (100) 
W0NIM11PW0NAQF0xMltDQEhdM1tDQEhdNFtDQEBIXTVbQ0BIXShbQ0BASF0oW0NIMl0zKVtTK100W08tXSlbQ0BAXShbT0hdKShDKD1PKU81KVtDQEhdKE8yKVtDSDJdMQ==

>  <s_epik_cmdline>  (100) 
J2VwaWtfcHl0aG9uJywgJy1waHQnLCAnMi4wJywgJy1waCcsICc3LjAnLCAnLXRuJywgJzgnLCAnLW1hJywgJzIwMCcsICctaW1hZScsICc8aW5maWxlLm1hZT4nLCAnLW9tYWUnLCAnPG91dGZpbGUubWFlPic=

>  <r_lp_tautomer_probability>  (100) 
1

>  <r_epik_Ionization_Penalty>  (100) 
4.30091e-07

>  <r_epik_Ionization_Penalty_Charging>  (100) 
0

>  <r_epik_Ionization_Penalty_Neutral>  (100) 
4.30091e-07

>  <r_epik_State_Penalty>  (100) 
-0

>  <r_epik_Charging_Adjusted_Penalty>  (100) 
0

>  <i_epik_Tot_Q>  (100) 
0

>  <i_epik_Tot_abs_Q>  (100) 
2

>  <s_epik_Chemistry_Notes>  (100) 
This compound has an ester and may undergo hydrolysis at high or low pH.

>  <s_lp_Force_Field>  (100) 
OPLS3e

>  <r_lp_Energy>  (100) 
61.496

>  <b_lp_Chiralities_Consistent>  (100) 
1

>  <s_lp_Variant>  (100) 
38:0-1

>  <s_i_glide_gridfile>  (100) 
pfpi4k_grid

>  <i_i_glide_lignum>  (100) 
46

>  <i_i_glide_rotatable_bonds>  (100) 
2

>  <r_i_docking_score>  (100) 
-4.17292

>  <r_i_glide_ligand_efficiency>  (100) 
-0.219627

>  <r_i_glide_ligand_efficiency_sa>  (100) 
-0.586054

>  <r_i_glide_ligand_efficiency_ln>  (100) 
-1.05792

>  <r_i_glide_gscore>  (100) 
-4.17292

>  <r_i_glide_lipo>  (100) 
-0.56414

>  <r_i_glide_hbond>  (100) 
-0.0426174

>  <r_i_glide_metal>  (100) 
-0

>  <r_i_glide_rewards>  (100) 
-1.68668

>  <r_i_glide_evdw>  (100) 
-22.6332

>  <r_i_glide_ecoul>  (100) 
-4.91024

>  <r_i_glide_erotb>  (100) 
0

>  <r_i_glide_esite>  (100) 
-0.011284

>  <r_i_glide_emodel>  (100) 
-33.1

>  <r_i_glide_energy>  (100) 
-27.5434

>  <r_i_glide_einternal>  (100) 
4.27986

>  <r_i_glide_intrahb_reward>  (100) 
-0

>  <i_i_glide_confnum>  (100) 
2

>  <i_i_glide_posenum>  (100) 
36

>  <r_i_glide_eff_state_penalty>  (100) 
0

>  <ligand_id>  (100) 
38

>  <original_smiles>  (100) 
COC12CC(O1)C1(O)C(=O)OC3C4C2CC(C31)[S+]4[O-]

>  <smiles>  (100) 
[H]OC12C(=O)OC3([H])C4([H])S(=O)C([H])(C([H])([H])C4([H])C4(OC([H])([H])[H])OC1([H])C4([H])[H])C32[H]

$$$$
38:0:1
     RDKit          3D

 33 37  0  0  1  0  0  0  0  0999 V2000
    8.5054   -2.8073   -0.2356 C   0  0  0  0  0  0  0  0  0  0  0  0
    7.6102   -1.7446    0.0696 O   0  0  0  0  0  0  0  0  0  0  0  0
    6.2323   -2.0981    0.1045 C   0  0  1  0  0  0  0  0  0  0  0  0
    5.9251   -3.1076    1.1943 C   0  0  0  0  0  0  0  0  0  0  0  0
    4.7240   -2.1788    1.4813 C   0  0  1  0  0  0  0  0  0  0  0  0
    5.4481   -1.1188    0.8404 O   0  0  0  0  0  0  0  0  0  0  0  0
    3.2748   -2.3953    0.9092 C   0  0  2  0  0  0  0  0  0  0  0  0
    2.3496   -1.5498    1.5741 O   0  0  0  0  0  0  0  0  0  0  0  0
    3.0294   -3.8499    1.2924 C   0  0  0  0  0  0  0  0  0  0  0  0
    2.5373   -4.2335    2.3504 O   0  0  0  0  0  0  0  0  0  0  0  0
    3.5226   -4.5971    0.3063 O   0  0  0  0  0  0  0  0  0  0  0  0
    3.5682   -3.8813   -0.9172 C   0  0  2  0  0  0  0  0  0  0  0  0
    4.8271   -3.5106   -1.7376 C   0  0  2  0  0  0  0  0  0  0  0  0
    5.6535   -2.2143   -1.3253 C   0  0  1  0  0  0  0  0  0  0  0  0
    4.7531   -0.9907   -1.6624 C   0  0  0  0  0  0  0  0  0  0  0  0
    3.3930   -1.6112   -1.8144 C   0  0  2  0  0  0  0  0  0  0  0  0
    2.9561   -2.5474   -0.6216 C   0  0  2  0  0  0  0  0  0  0  0  0
    3.9317   -2.7534   -3.1724 S   0  0  0  0  0  0  0  0  0  0  0  0
    2.7120   -3.5600   -3.6177 O   0  0  0  0  0  0  0  0  0  0  0  0
    9.5171   -2.4138   -0.2990 H   0  0  0  0  0  0  0  0  0  0  0  0
    8.2736   -3.2762   -1.1895 H   0  0  0  0  0  0  0  0  0  0  0  0
    8.5022   -3.5717    0.5395 H   0  0  0  0  0  0  0  0  0  0  0  0
    5.7803   -4.1196    0.8257 H   0  0  0  0  0  0  0  0  0  0  0  0
    6.6441   -3.0886    2.0110 H   0  0  0  0  0  0  0  0  0  0  0  0
    4.6992   -2.0036    2.5587 H   0  0  0  0  0  0  0  0  0  0  0  0
    1.8681   -1.0531    0.9182 H   0  0  0  0  0  0  0  0  0  0  0  0
    2.8591   -4.4196   -1.5196 H   0  0  0  0  0  0  0  0  0  0  0  0
    5.4369   -4.3711   -2.0171 H   0  0  0  0  0  0  0  0  0  0  0  0
    6.4832   -2.1665   -2.0349 H   0  0  0  0  0  0  0  0  0  0  0  0
    4.6987   -0.1529   -0.9744 H   0  0  0  0  0  0  0  0  0  0  0  0
    5.0659   -0.5303   -2.6005 H   0  0  0  0  0  0  0  0  0  0  0  0
    2.6261   -0.9083   -2.1473 H   0  0  0  0  0  0  0  0  0  0  0  0
    1.8829   -2.6860   -0.7209 H   0  0  0  0  0  0  0  0  0  0  0  0
  1  2  1  0
  1 20  1  0
  1 21  1  0
  1 22  1  0
  3  2  1  6
  3  6  1  0
  3 14  1  0
  3  4  1  0
  4  5  1  0
  4 23  1  0
  4 24  1  0
  5  6  1  0
  5  7  1  0
  5 25  1  1
  7 17  1  0
  7  8  1  1
  7  9  1  0
  8 26  1  0
  9 10  2  0
  9 11  1  0
 11 12  1  0
 12 17  1  0
 12 13  1  0
 12 27  1  6
 13 18  1  0
 13 14  1  0
 13 28  1  6
 14 15  1  0
 14 29  1  6
 15 16  1  0
 15 30  1  0
 15 31  1  0
 16 17  1  0
 18 16  1  1
 16 32  1  6
 17 33  1  1
 18 19  2  0
M  END
>  <i_m_ct_stereo_status>  (101) 
1

>  <s_m_source_file>  (101) 
/var/tmp/pbs.5075288.sched01/tmpq0rgj53d/65gxdktgdh.sdf

>  <i_m_source_file_index>  (101) 
46

>  <i_lp_mmshare_version>  (101) 
48012

>  <i_f3d_flags>  (101) 
0

>  <s_epik_input>  (101) 
W0NIM11PW0NAQF0xMltDQEhdM1tDQEhdNFtDQEBIXTVbQ0BIXShbQ0BASF0oW0NIMl0zKVtTK100W08tXSlbQ0BAXShbT0hdKShDKD1PKU81KVtDQEhdKE8yKVtDSDJdMQ==

>  <s_epik_cmdline>  (101) 
J2VwaWtfcHl0aG9uJywgJy1waHQnLCAnMi4wJywgJy1waCcsICc3LjAnLCAnLXRuJywgJzgnLCAnLW1hJywgJzIwMCcsICctaW1hZScsICc8aW5maWxlLm1hZT4nLCAnLW9tYWUnLCAnPG91dGZpbGUubWFlPic=

>  <r_lp_tautomer_probability>  (101) 
1

>  <r_epik_Ionization_Penalty>  (101) 
4.30091e-07

>  <r_epik_Ionization_Penalty_Charging>  (101) 
0

>  <r_epik_Ionization_Penalty_Neutral>  (101) 
4.30091e-07

>  <r_epik_State_Penalty>  (101) 
-0

>  <r_epik_Charging_Adjusted_Penalty>  (101) 
0

>  <i_epik_Tot_Q>  (101) 
0

>  <i_epik_Tot_abs_Q>  (101) 
2

>  <s_epik_Chemistry_Notes>  (101) 
This compound has an ester and may undergo hydrolysis at high or low pH.

>  <s_lp_Force_Field>  (101) 
OPLS3e

>  <r_lp_Energy>  (101) 
61.496

>  <b_lp_Chiralities_Consistent>  (101) 
1

>  <s_lp_Variant>  (101) 
38:0-1

>  <s_i_glide_gridfile>  (101) 
pfpi4k_grid

>  <i_i_glide_lignum>  (101) 
46

>  <i_i_glide_rotatable_bonds>  (101) 
2

>  <r_i_docking_score>  (101) 
-3.23583

>  <r_i_glide_ligand_efficiency>  (101) 
-0.170307

>  <r_i_glide_ligand_efficiency_sa>  (101) 
-0.454448

>  <r_i_glide_ligand_efficiency_ln>  (101) 
-0.820354

>  <r_i_glide_gscore>  (101) 
-3.23583

>  <r_i_glide_lipo>  (101) 
-0.136164

>  <r_i_glide_hbond>  (101) 
-0.102003

>  <r_i_glide_metal>  (101) 
-0

>  <r_i_glide_rewards>  (101) 
-1.6337

>  <r_i_glide_evdw>  (101) 
-21.3946

>  <r_i_glide_ecoul>  (101) 
-1.94068

>  <r_i_glide_erotb>  (101) 
0

>  <r_i_glide_esite>  (101) 
-0.00314057

>  <r_i_glide_emodel>  (101) 
-26.4455

>  <r_i_glide_energy>  (101) 
-23.3352

>  <r_i_glide_einternal>  (101) 
4.76046

>  <r_i_glide_intrahb_reward>  (101) 
-0

>  <i_i_glide_confnum>  (101) 
1

>  <i_i_glide_posenum>  (101) 
31

>  <r_i_glide_eff_state_penalty>  (101) 
0

>  <ligand_id>  (101) 
38

>  <original_smiles>  (101) 
COC12CC(O1)C1(O)C(=O)OC3C4C2CC(C31)[S+]4[O-]

>  <smiles>  (101) 
[H]OC12C(=O)OC3([H])C4([H])S(=O)C([H])(C([H])([H])C4([H])C4(OC([H])([H])[H])OC1([H])C4([H])[H])C32[H]

$$$$
38:0:2
     RDKit          3D

 33 37  0  0  1  0  0  0  0  0999 V2000
    8.5740   -3.7534   -0.1538 C   0  0  0  0  0  0  0  0  0  0  0  0
    7.4426   -4.1037    0.6383 O   0  0  0  0  0  0  0  0  0  0  0  0
    6.2939   -3.2833    0.4538 C   0  0  1  0  0  0  0  0  0  0  0  0
    5.4216   -3.3794    1.6933 C   0  0  0  0  0  0  0  0  0  0  0  0
    5.3104   -1.8493    1.5155 C   0  0  1  0  0  0  0  0  0  0  0  0
    6.5381   -1.8824    0.7702 O   0  0  0  0  0  0  0  0  0  0  0  0
    4.1363   -1.1277    0.7527 C   0  0  2  0  0  0  0  0  0  0  0  0
    4.2079    0.2620    0.9630 O   0  0  0  0  0  0  0  0  0  0  0  0
    2.9261   -1.7157    1.4625 C   0  0  0  0  0  0  0  0  0  0  0  0
    2.4240   -1.2827    2.4985 O   0  0  0  0  0  0  0  0  0  0  0  0
    2.6157   -2.8401    0.8248 O   0  0  0  0  0  0  0  0  0  0  0  0
    3.0660   -2.8097   -0.5209 C   0  0  2  0  0  0  0  0  0  0  0  0
    4.1329   -3.7384   -1.1514 C   0  0  2  0  0  0  0  0  0  0  0  0
    5.6783   -3.4189   -0.9609 C   0  0  1  0  0  0  0  0  0  0  0  0
    5.9586   -2.1419   -1.7840 C   0  0  0  0  0  0  0  0  0  0  0  0
    4.5853   -1.5607   -2.0019 C   0  0  2  0  0  0  0  0  0  0  0  0
    3.6908   -1.4467   -0.7123 C   0  0  2  0  0  0  0  0  0  0  0  0
    3.9541   -3.0678   -2.8749 S   0  0  0  0  0  0  0  0  0  0  0  0
    2.4875   -2.8521   -3.2498 O   0  0  0  0  0  0  0  0  0  0  0  0
    9.4027   -4.4192    0.0899 H   0  0  0  0  0  0  0  0  0  0  0  0
    8.9007   -2.7317    0.0483 H   0  0  0  0  0  0  0  0  0  0  0  0
    8.3868   -3.8533   -1.2243 H   0  0  0  0  0  0  0  0  0  0  0  0
    4.5435   -4.0135    1.5831 H   0  0  0  0  0  0  0  0  0  0  0  0
    5.9876   -3.6502    2.5855 H   0  0  0  0  0  0  0  0  0  0  0  0
    5.4908   -1.3937    2.4913 H   0  0  0  0  0  0  0  0  0  0  0  0
    4.8817    0.6329    0.4060 H   0  0  0  0  0  0  0  0  0  0  0  0
    2.1374   -2.8955   -1.0783 H   0  0  0  0  0  0  0  0  0  0  0  0
    3.8915   -4.7968   -1.0607 H   0  0  0  0  0  0  0  0  0  0  0  0
    6.1809   -4.2422   -1.4691 H   0  0  0  0  0  0  0  0  0  0  0  0
    6.6185   -1.3971   -1.3586 H   0  0  0  0  0  0  0  0  0  0  0  0
    6.4376   -2.4095   -2.7221 H   0  0  0  0  0  0  0  0  0  0  0  0
    4.5805   -0.6696   -2.6350 H   0  0  0  0  0  0  0  0  0  0  0  0
    2.9118   -0.7379   -0.9732 H   0  0  0  0  0  0  0  0  0  0  0  0
  1  2  1  0
  1 20  1  0
  1 21  1  0
  1 22  1  0
  3  2  1  1
  3  6  1  0
  3 14  1  0
  3  4  1  0
  4  5  1  0
  4 23  1  0
  4 24  1  0
  5  6  1  0
  5  7  1  0
  5 25  1  1
  7 17  1  0
  7  8  1  6
  7  9  1  0
  8 26  1  0
  9 10  2  0
  9 11  1  0
 11 12  1  0
 12 17  1  0
 12 13  1  0
 12 27  1  6
 13 18  1  0
 13 14  1  0
 13 28  1  6
 14 15  1  0
 14 29  1  6
 15 16  1  0
 15 30  1  0
 15 31  1  0
 16 17  1  0
 18 16  1  1
 16 32  1  6
 17 33  1  6
 18 19  2  0
M  END
>  <i_m_ct_stereo_status>  (102) 
1

>  <s_m_source_file>  (102) 
/var/tmp/pbs.5075288.sched01/tmpq0rgj53d/65gxdktgdh.sdf

>  <i_m_source_file_index>  (102) 
46

>  <i_lp_mmshare_version>  (102) 
48012

>  <i_f3d_flags>  (102) 
0

>  <s_epik_input>  (102) 
W0NIM11PW0NAQF0xMltDQEhdM1tDQEhdNFtDQEBIXTVbQ0BIXShbQ0BASF0oW0NIMl0zKVtTK100W08tXSlbQ0BAXShbT0hdKShDKD1PKU81KVtDQEhdKE8yKVtDSDJdMQ==

>  <s_epik_cmdline>  (102) 
J2VwaWtfcHl0aG9uJywgJy1waHQnLCAnMi4wJywgJy1waCcsICc3LjAnLCAnLXRuJywgJzgnLCAnLW1hJywgJzIwMCcsICctaW1hZScsICc8aW5maWxlLm1hZT4nLCAnLW9tYWUnLCAnPG91dGZpbGUubWFlPic=

>  <r_lp_tautomer_probability>  (102) 
1

>  <r_epik_Ionization_Penalty>  (102) 
4.30091e-07

>  <r_epik_Ionization_Penalty_Charging>  (102) 
0

>  <r_epik_Ionization_Penalty_Neutral>  (102) 
4.30091e-07

>  <r_epik_State_Penalty>  (102) 
-0

>  <r_epik_Charging_Adjusted_Penalty>  (102) 
0

>  <i_epik_Tot_Q>  (102) 
0

>  <i_epik_Tot_abs_Q>  (102) 
2

>  <s_epik_Chemistry_Notes>  (102) 
This compound has an ester and may undergo hydrolysis at high or low pH.

>  <s_lp_Force_Field>  (102) 
OPLS3e

>  <r_lp_Energy>  (102) 
61.496

>  <b_lp_Chiralities_Consistent>  (102) 
1

>  <s_lp_Variant>  (102) 
38:0-1

>  <s_i_glide_gridfile>  (102) 
pfpi4k_grid

>  <i_i_glide_lignum>  (102) 
46

>  <i_i_glide_rotatable_bonds>  (102) 
2

>  <r_i_docking_score>  (102) 
-3.01246

>  <r_i_glide_ligand_efficiency>  (102) 
-0.15855

>  <r_i_glide_ligand_efficiency_sa>  (102) 
-0.423076

>  <r_i_glide_ligand_efficiency_ln>  (102) 
-0.763723

>  <r_i_glide_gscore>  (102) 
-3.01246

>  <r_i_glide_lipo>  (102) 
-0.262932

>  <r_i_glide_hbond>  (102) 
0

>  <r_i_glide_metal>  (102) 
-0

>  <r_i_glide_rewards>  (102) 
-1.56927

>  <r_i_glide_evdw>  (102) 
-21.4894

>  <r_i_glide_ecoul>  (102) 
-0.466299

>  <r_i_glide_erotb>  (102) 
0

>  <r_i_glide_esite>  (102) 
-0.0358389

>  <r_i_glide_emodel>  (102) 
-27.3466

>  <r_i_glide_energy>  (102) 
-21.9557

>  <r_i_glide_einternal>  (102) 
0.306006

>  <r_i_glide_intrahb_reward>  (102) 
-0

>  <i_i_glide_confnum>  (102) 
1

>  <i_i_glide_posenum>  (102) 
1

>  <r_i_glide_eff_state_penalty>  (102) 
0

>  <ligand_id>  (102) 
38

>  <original_smiles>  (102) 
COC12CC(O1)C1(O)C(=O)OC3C4C2CC(C31)[S+]4[O-]

>  <smiles>  (102) 
[H]OC12C(=O)OC3([H])C4([H])S(=O)C([H])(C([H])([H])C4([H])C4(OC([H])([H])[H])OC1([H])C4([H])[H])C32[H]

$$$$
40:1:0
     RDKit          3D

120127  0  0  1  0  0  0  0  0999 V2000
    1.9742   -5.3377    3.0901 C   0  0  0  0  0  0  0  0  0  0  0  0
    2.6290   -4.4400    4.1515 C   0  0  2  0  0  0  0  0  0  0  0  0
    3.6036   -3.6546    3.4819 O   0  0  0  0  0  0  0  0  0  0  0  0
    4.1345   -2.5876    4.2359 C   0  0  1  0  0  0  0  0  0  0  0  0
    3.0958   -1.7772    4.7757 O   0  0  0  0  0  0  0  0  0  0  0  0
    2.3660   -0.8064    3.9889 C   0  0  1  0  0  0  0  0  0  0  0  0
    1.9594   -1.4850    2.6441 C   0  0  0  0  0  0  0  0  0  0  0  0
    1.0125   -0.4545    4.7813 C   0  0  1  0  0  0  0  0  0  0  0  0
    0.2993   -1.6373    5.1498 O   0  0  0  0  0  0  0  0  0  0  0  0
    1.1768    0.5448    6.0002 C   0  0  1  0  0  0  0  0  0  0  0  0
    2.2187    0.0405    6.6778 O   0  0  0  0  0  0  0  0  0  0  0  0
    2.5107    1.3133    6.0702 C   0  0  2  0  0  0  0  0  0  0  0  0
    3.6071    1.7210    7.0524 C   0  0  0  0  0  0  0  0  0  0  0  0
    2.7080    1.6739    4.5923 C   0  0  1  0  0  0  0  0  0  0  0  0
    2.8954    3.1600    4.1856 C   0  0  2  0  0  0  0  0  0  0  0  0
    3.8413    4.0826    4.9658 C   0  0  0  0  0  0  0  0  0  0  0  0
    3.5127    5.3861    5.7657 C   0  0  1  0  0  0  0  0  0  0  0  0
    3.1985    6.4122    4.8264 O   0  0  0  0  0  0  0  0  0  0  0  0
    2.2730    5.2872    6.7653 C   0  0  2  0  0  0  0  0  0  0  0  0
    0.7723    5.1873    6.1904 C   0  0  1  0  0  0  0  0  0  0  0  0
    0.4288    6.4876    5.6720 O   0  0  0  0  0  0  0  0  0  0  0  0
    0.1756    4.0206    5.2625 C   0  0  1  0  0  0  0  0  0  0  0  0
   -0.9398    4.6946    4.6519 O   0  0  0  0  0  0  0  0  0  0  0  0
    1.2545    3.8934    3.7546 S   0  0  0  0  0  0  0  0  0  0  0  0
    1.5094    5.3313    3.2662 O   0  0  0  0  0  0  0  0  0  0  0  0
   -0.6153    2.6377    5.7630 C   0  0  2  0  0  0  0  0  0  0  0  0
   -1.0359    2.0465    4.5066 O   0  0  0  0  0  0  0  0  0  0  0  0
   -1.9231    3.1003    6.5153 C   0  0  0  0  0  0  0  0  0  0  0  0
   -2.9880    3.2909    5.9356 O   0  0  0  0  0  0  0  0  0  0  0  0
   -1.8051    3.3351    8.0211 C   0  0  1  0  0  0  0  0  0  0  0  0
   -3.0264    3.7744    8.8188 C   0  0  0  0  0  0  0  0  0  0  0  0
   -2.5887    3.3289   10.2339 C   0  0  1  0  0  0  0  0  0  0  0  0
   -1.8856    4.4128   11.0187 C   0  0  0  0  0  0  0  0  0  0  0  0
   -3.6910    2.9736   11.0244 O   0  0  0  0  0  0  0  0  0  0  0  0
   -1.6678    2.2874   10.0478 O   0  0  0  0  0  0  0  0  0  0  0  0
   -1.5154    2.0096    8.6530 C   0  0  2  0  0  0  0  0  0  0  0  0
   -0.1186    1.4595    8.2167 C   0  0  0  0  0  0  0  0  0  0  0  0
    0.9105    2.4269    8.7847 C   0  0  0  0  0  0  0  0  0  0  0  0
    0.1056    0.1158    8.9613 C   0  0  0  0  0  0  0  0  0  0  0  0
   -0.0735    1.3300    6.6144 C   0  0  2  0  0  0  0  0  0  0  0  0
   -1.1360    0.3698    6.4605 O   0  0  0  0  0  0  0  0  0  0  0  0
    2.3746    6.3170    7.9854 C   0  0  0  0  0  0  0  0  0  0  0  0
    2.0972    7.7973    7.6178 C   0  0  0  0  0  0  0  0  0  0  0  0
    1.4395    5.9576    9.1550 C   0  0  0  0  0  0  0  0  0  0  0  0
    3.7940    6.2525    8.6015 C   0  0  0  0  0  0  0  0  0  0  0  0
    4.8443    6.7546    7.6236 C   0  0  0  0  0  0  0  0  0  0  0  0
    4.9307    5.8130    6.4083 C   0  0  1  0  0  0  0  0  0  0  0  0
    5.9136    4.6776    6.8365 C   0  0  0  0  0  0  0  0  0  0  0  0
    5.7220    6.4999    5.4566 O   0  0  0  0  0  0  0  0  0  0  0  0
    3.2628    0.5013    3.7553 C   0  0  1  0  0  0  0  0  0  0  0  0
    4.7861    0.3712    3.9761 C   0  0  0  0  0  0  0  0  0  0  0  0
    3.1239    0.8834    2.4016 O   0  0  0  0  0  0  0  0  0  0  0  0
    4.9353   -3.2144    5.3872 C   0  0  1  0  0  0  0  0  0  0  0  0
    5.6908   -2.2686    6.1428 O   0  0  0  0  0  0  0  0  0  0  0  0
    4.0783   -4.1998    6.2233 C   0  0  1  0  0  0  0  0  0  0  0  0
    3.1131   -3.4745    6.9673 O   0  0  0  0  0  0  0  0  0  0  0  0
    3.3672   -5.1861    5.2656 C   0  0  1  0  0  0  0  0  0  0  0  0
    2.4451   -6.0182    5.9639 O   0  0  0  0  0  0  0  0  0  0  0  0
    1.2005   -5.9644    3.5399 H   0  0  0  0  0  0  0  0  0  0  0  0
    2.7110   -5.9903    2.6065 H   0  0  0  0  0  0  0  0  0  0  0  0
    1.4897   -4.7503    2.3010 H   0  0  0  0  0  0  0  0  0  0  0  0
    1.8518   -3.8189    4.5858 H   0  0  0  0  0  0  0  0  0  0  0  0
    4.7695   -2.0649    3.5375 H   0  0  0  0  0  0  0  0  0  0  0  0
    1.3176   -0.8421    1.9926 H   0  0  0  0  0  0  0  0  0  0  0  0
    1.3718   -2.3722    2.8200 H   0  0  0  0  0  0  0  0  0  0  0  0
    2.8070   -1.7428    2.0310 H   0  0  0  0  0  0  0  0  0  0  0  0
    0.3438    0.0156    4.0608 H   0  0  0  0  0  0  0  0  0  0  0  0
    0.2735   -2.1998    4.3788 H   0  0  0  0  0  0  0  0  0  0  0  0
    4.5980    1.5369    6.6204 H   0  0  0  0  0  0  0  0  0  0  0  0
    3.5874    1.1052    7.9494 H   0  0  0  0  0  0  0  0  0  0  0  0
    3.5664    2.7438    7.3917 H   0  0  0  0  0  0  0  0  0  0  0  0
    1.7209    1.6489    4.1486 H   0  0  0  0  0  0  0  0  0  0  0  0
    3.3411    3.1421    3.1945 H   0  0  0  0  0  0  0  0  0  0  0  0
    4.4512    3.3922    5.5053 H   0  0  0  0  0  0  0  0  0  0  0  0
    4.5167    4.4606    4.2052 H   0  0  0  0  0  0  0  0  0  0  0  0
    2.5948    6.0509    4.1707 H   0  0  0  0  0  0  0  0  0  0  0  0
    2.4385    4.3453    7.2349 H   0  0  0  0  0  0  0  0  0  0  0  0
    0.1394    5.1355    7.0501 H   0  0  0  0  0  0  0  0  0  0  0  0
    0.9656    6.6625    4.9059 H   0  0  0  0  0  0  0  0  0  0  0  0
   -0.7569    4.7281    3.7207 H   0  0  0  0  0  0  0  0  0  0  0  0
   -0.2784    1.8904    3.9548 H   0  0  0  0  0  0  0  0  0  0  0  0
   -1.0097    4.0409    8.2317 H   0  0  0  0  0  0  0  0  0  0  0  0
   -3.1968    4.8478    8.7617 H   0  0  0  0  0  0  0  0  0  0  0  0
   -3.9295    3.2644    8.4890 H   0  0  0  0  0  0  0  0  0  0  0  0
   -1.6258    4.0250   11.9939 H   0  0  0  0  0  0  0  0  0  0  0  0
   -2.5338    5.2893   11.1440 H   0  0  0  0  0  0  0  0  0  0  0  0
   -0.9552    4.7258   10.5028 H   0  0  0  0  0  0  0  0  0  0  0  0
   -3.3962    2.5628   11.8416 H   0  0  0  0  0  0  0  0  0  0  0  0
   -2.3192    1.3252    8.4107 H   0  0  0  0  0  0  0  0  0  0  0  0
    1.8830    1.9805    8.8972 H   0  0  0  0  0  0  0  0  0  0  0  0
    0.6333    2.7726    9.7880 H   0  0  0  0  0  0  0  0  0  0  0  0
    0.9695    3.2968    8.1597 H   0  0  0  0  0  0  0  0  0  0  0  0
    1.1100   -0.2777    8.8264 H   0  0  0  0  0  0  0  0  0  0  0  0
   -0.6012   -0.6480    8.6794 H   0  0  0  0  0  0  0  0  0  0  0  0
   -0.0133    0.2574   10.0412 H   0  0  0  0  0  0  0  0  0  0  0  0
   -1.1474    0.0936    5.5507 H   0  0  0  0  0  0  0  0  0  0  0  0
    2.5197    8.4704    8.3570 H   0  0  0  0  0  0  0  0  0  0  0  0
    1.0316    8.0153    7.5682 H   0  0  0  0  0  0  0  0  0  0  0  0
    2.5306    8.0724    6.6595 H   0  0  0  0  0  0  0  0  0  0  0  0
    1.6008    6.6417    9.9928 H   0  0  0  0  0  0  0  0  0  0  0  0
    1.6285    4.9615    9.5367 H   0  0  0  0  0  0  0  0  0  0  0  0
    0.3898    6.0523    8.9037 H   0  0  0  0  0  0  0  0  0  0  0  0
    3.8332    6.8526    9.5173 H   0  0  0  0  0  0  0  0  0  0  0  0
    4.0188    5.2373    8.8948 H   0  0  0  0  0  0  0  0  0  0  0  0
    4.6534    7.7783    7.3066 H   0  0  0  0  0  0  0  0  0  0  0  0
    5.8005    6.8235    8.1214 H   0  0  0  0  0  0  0  0  0  0  0  0
    5.4493    3.9826    7.5346 H   0  0  0  0  0  0  0  0  0  0  0  0
    6.7999    5.0775    7.3253 H   0  0  0  0  0  0  0  0  0  0  0  0
    6.3080    4.1266    5.9863 H   0  0  0  0  0  0  0  0  0  0  0  0
    5.2202    7.2529    5.1658 H   0  0  0  0  0  0  0  0  0  0  0  0
    5.0082    0.0450    4.9868 H   0  0  0  0  0  0  0  0  0  0  0  0
    5.2568    1.3628    3.9219 H   0  0  0  0  0  0  0  0  0  0  0  0
    5.2574   -0.2870    3.2775 H   0  0  0  0  0  0  0  0  0  0  0  0
    3.7309    1.5856    2.1999 H   0  0  0  0  0  0  0  0  0  0  0  0
    5.6932   -3.8002    4.8789 H   0  0  0  0  0  0  0  0  0  0  0  0
    6.1428   -2.7265    6.8470 H   0  0  0  0  0  0  0  0  0  0  0  0
    4.7222   -4.7677    6.9014 H   0  0  0  0  0  0  0  0  0  0  0  0
    2.7006   -2.8654    6.3601 H   0  0  0  0  0  0  0  0  0  0  0  0
    4.1159   -5.8214    4.7723 H   0  0  0  0  0  0  0  0  0  0  0  0
    2.9414   -6.4921    6.6173 H   0  0  0  0  0  0  0  0  0  0  0  0
  1  2  1  0
  1 59  1  0
  1 60  1  0
  1 61  1  0
  2 57  1  0
  2  3  1  0
  2 62  1  1
  3  4  1  0
  4  5  1  0
  4 53  1  0
  4 63  1  6
  6  5  1  1
  6 50  1  0
  6  7  1  0
  6  8  1  0
  7 64  1  0
  7 65  1  0
  7 66  1  0
  8  9  1  0
  8 10  1  0
  8 67  1  6
  9 68  1  0
 10 12  1  0
 10 40  1  0
 10 11  1  1
 11 12  1  0
 12 13  1  1
 12 14  1  0
 13 69  1  0
 13 70  1  0
 13 71  1  0
 14 15  1  0
 14 50  1  0
 14 72  1  6
 15 24  1  0
 15 16  1  0
 15 73  1  6
 16 17  1  0
 16 74  1  0
 16 75  1  0
 17 47  1  0
 17 18  1  6
 17 19  1  0
 18 76  1  0
 19 20  1  0
 19 42  1  0
 19 77  1  1
 20 21  1  0
 20 22  1  0
 20 78  1  1
 21 79  1  0
 22 23  1  6
 24 22  1  1
 22 26  1  0
 23 80  1  0
 24 25  2  0
 26 40  1  0
 26 27  1  6
 26 28  1  0
 27 81  1  0
 28 29  2  0
 28 30  1  0
 30 36  1  0
 30 31  1  0
 30 82  1  6
 31 32  1  0
 31 83  1  0
 31 84  1  0
 32 33  1  0
 32 34  1  1
 32 35  1  0
 33 85  1  0
 33 86  1  0
 33 87  1  0
 34 88  1  0
 35 36  1  0
 36 37  1  0
 36 89  1  6
 37 38  1  0
 37 39  1  0
 37 40  1  0
 38 90  1  0
 38 91  1  0
 38 92  1  0
 39 93  1  0
 39 94  1  0
 39 95  1  0
 40 41  1  1
 41 96  1  0
 42 43  1  0
 42 44  1  0
 42 45  1  0
 43 97  1  0
 43 98  1  0
 43 99  1  0
 44100  1  0
 44101  1  0
 44102  1  0
 45 46  1  0
 45103  1  0
 45104  1  0
 46 47  1  0
 46105  1  0
 46106  1  0
 47 48  1  0
 47 49  1  6
 48107  1  0
 48108  1  0
 48109  1  0
 49110  1  0
 50 51  1  0
 50 52  1  6
 51111  1  0
 51112  1  0
 51113  1  0
 52114  1  0
 53 54  1  0
 53 55  1  0
 53115  1  6
 54116  1  0
 55 56  1  0
 55 57  1  0
 55117  1  1
 56118  1  0
 57 58  1  0
 57119  1  6
 58120  1  0
M  END
>  <i_m_ct_stereo_status>  (103) 
1

>  <s_m_source_file>  (103) 
/var/tmp/pbs.5075288.sched01/tmpq0rgj53d/65gxdktgdh.sdf

>  <i_m_source_file_index>  (103) 
50

>  <i_lp_mmshare_version>  (103) 
48012

>  <i_f3d_flags>  (103) 
0

>  <s_epik_input>  (103) 
W09IXVtDQEBIXTFbQ0BIXShbT0hdKVtDQEhdKFtPSF0pW0NAQEhdKE9bQ0BIXTFbQ0gzXSlPW0NAQF0oW0NIM10pKFtDQEhdMltPSF0pW0NAQF0oW0NIM10pKFtPSF0pW0NAQEhdKEMoW0NAQF0yMzQpKE8zKVtDSDNdKVtDQEBIXTVbQ0gyXVtDQEBdNihbT0hdKVtDQEBIXShDKFtDSDNdKShbQ0gzXSlbQ0gyXVtDSDJdW0NAXTYoW0NIM10pW09IXSlbQ0hdKFtPSF0pW0NAQF0oW09IXSkoW1MrXTVbTy1dKVtDQEBdNyhbT0hdKVtDQF00KFtPSF0pQyhbQ0gzXSkoW0NIM10pW0NAQEhdOFtDQEBIXShDNz1PKVtDSDJdW0NAQF0oTzgpKFtDSDNdKVtPSF0=

>  <s_epik_cmdline>  (103) 
J2VwaWtfcHl0aG9uJywgJy1waHQnLCAnMi4wJywgJy1waCcsICc3LjAnLCAnLXRuJywgJzgnLCAnLW1hJywgJzIwMCcsICctaW1hZScsICc8aW5maWxlLm1hZT4nLCAnLW9tYWUnLCAnPG91dGZpbGUubWFlPic=

>  <r_lp_tautomer_probability>  (103) 
1

>  <r_epik_Ionization_Penalty>  (103) 
5.67647e-06

>  <r_epik_Ionization_Penalty_Charging>  (103) 
0

>  <r_epik_Ionization_Penalty_Neutral>  (103) 
5.67647e-06

>  <r_epik_State_Penalty>  (103) 
-0

>  <r_epik_Charging_Adjusted_Penalty>  (103) 
0

>  <i_epik_Tot_Q>  (103) 
0

>  <i_epik_Tot_abs_Q>  (103) 
2

>  <s_epik_Chemistry_Notes>  (103) 
This compound contains an acetal/aminal-like group ( X-CH(R)-Y where X, Y are N, S, or O) that may be acid/base labile, releasing an aldehyde.

>  <s_lp_Force_Field>  (103) 
OPLS3e

>  <r_lp_Energy>  (103) 
229.63

>  <b_lp_Chiralities_Consistent>  (103) 
1

>  <s_lp_Variant>  (103) 
40:0-2

>  <s_i_glide_gridfile>  (103) 
pfpi4k_grid

>  <i_i_glide_lignum>  (103) 
50

>  <i_i_glide_rotatable_bonds>  (103) 
14

>  <r_i_docking_score>  (103) 
-5.97435

>  <r_i_glide_ligand_efficiency>  (103) 
-0.103006

>  <r_i_glide_ligand_efficiency_sa>  (103) 
-0.398724

>  <r_i_glide_ligand_efficiency_ln>  (103) 
-1.1806

>  <r_i_glide_gscore>  (103) 
-5.97435

>  <r_i_glide_lipo>  (103) 
-0.128691

>  <r_i_glide_hbond>  (103) 
-0.293833

>  <r_i_glide_metal>  (103) 
-0

>  <r_i_glide_rewards>  (103) 
-1.59749

>  <r_i_glide_evdw>  (103) 
-31.5722

>  <r_i_glide_ecoul>  (103) 
-15.3617

>  <r_i_glide_erotb>  (103) 
0.0605508

>  <r_i_glide_esite>  (103) 
-0.132016

>  <r_i_glide_emodel>  (103) 
-76.1233

>  <r_i_glide_energy>  (103) 
-46.934

>  <r_i_glide_einternal>  (103) 
4.86547

>  <r_i_glide_intrahb_reward>  (103) 
-1.5

>  <i_i_glide_confnum>  (103) 
1

>  <i_i_glide_posenum>  (103) 
1

>  <r_i_glide_eff_state_penalty>  (103) 
0

>  <ligand_id>  (103) 
40

>  <original_smiles>  (103) 
CC1OC(OC2(C)C(O)C34OC3(C)C(C3CC5(O)C(C(O)C(O)([S+]3[O-])C3(O)C(=O)C6CC(C)(O)OC6C(C)(C)C34O)C(C)(C)CCC5(C)O)C2(C)O)C(O)C(O)C1O

>  <smiles>  (103) 
[H]OC1([H])C([H])(OC2(C([H])([H])[H])C([H])(O[H])C34OC3(C([H])([H])[H])C([H])(C3([H])S(=O)C(O[H])(C([H])(O[H])C5([H])C(O[H])(C3([H])[H])C(O[H])(C([H])([H])[H])C([H])([H])C([H])([H])C5(C([H])([H])[H])C([H])([H])[H])C3(O[H])C(=O)C5([H])C([H])([H])C(O[H])(C([H])([H])[H])OC5([H])C(C([H])([H])[H])(C([H])([H])[H])C34O[H])C2(O[H])C([H])([H])[H])OC([H])(C([H])([H])[H])C([H])(O[H])C1([H])O[H]

$$$$
40:1:1
     RDKit          3D

120127  0  0  1  0  0  0  0  0999 V2000
    1.9655   -5.2633    3.0344 C   0  0  0  0  0  0  0  0  0  0  0  0
    2.6279   -4.3681    4.1062 C   0  0  2  0  0  0  0  0  0  0  0  0
    3.5986   -3.5728    3.4292 O   0  0  0  0  0  0  0  0  0  0  0  0
    4.1370   -2.5194    4.1635 C   0  0  1  0  0  0  0  0  0  0  0  0
    3.1331   -1.7130    4.7146 O   0  0  0  0  0  0  0  0  0  0  0  0
    2.3786   -0.7427    3.9525 C   0  0  1  0  0  0  0  0  0  0  0  0
    1.9674   -1.3893    2.5910 C   0  0  0  0  0  0  0  0  0  0  0  0
    1.0134   -0.3970    4.7544 C   0  0  1  0  0  0  0  0  0  0  0  0
    0.2920   -1.5726    5.0857 O   0  0  0  0  0  0  0  0  0  0  0  0
    1.1788    0.5923    5.9829 C   0  0  1  0  0  0  0  0  0  0  0  0
    2.2270    0.0786    6.6608 O   0  0  0  0  0  0  0  0  0  0  0  0
    2.5172    1.3636    6.0625 C   0  0  2  0  0  0  0  0  0  0  0  0
    3.6169    1.7561    7.0530 C   0  0  0  0  0  0  0  0  0  0  0  0
    2.7198    1.7362    4.5863 C   0  0  1  0  0  0  0  0  0  0  0  0
    2.9071    3.2325    4.1988 C   0  0  2  0  0  0  0  0  0  0  0  0
    3.8556    4.1414    4.9949 C   0  0  0  0  0  0  0  0  0  0  0  0
    3.5177    5.4330    5.8132 C   0  0  1  0  0  0  0  0  0  0  0  0
    3.2133    6.4663    4.8810 O   0  0  0  0  0  0  0  0  0  0  0  0
    2.2758    5.3238    6.8119 C   0  0  2  0  0  0  0  0  0  0  0  0
    0.7827    5.2325    6.2269 C   0  0  1  0  0  0  0  0  0  0  0  0
    0.4444    6.5303    5.7180 O   0  0  0  0  0  0  0  0  0  0  0  0
    0.1910    4.0699    5.2827 C   0  0  1  0  0  0  0  0  0  0  0  0
   -0.9160    4.7477    4.6791 O   0  0  0  0  0  0  0  0  0  0  0  0
    1.2649    3.9642    3.7779 S   0  0  0  0  0  0  0  0  0  0  0  0
    1.5272    5.4041    3.3041 O   0  0  0  0  0  0  0  0  0  0  0  0
   -0.6077    2.6783    5.7612 C   0  0  2  0  0  0  0  0  0  0  0  0
   -1.0203    2.1012    4.5032 O   0  0  0  0  0  0  0  0  0  0  0  0
   -1.9075    3.1374    6.5179 C   0  0  0  0  0  0  0  0  0  0  0  0
   -2.9798    3.3326    5.9366 O   0  0  0  0  0  0  0  0  0  0  0  0
   -1.7900    3.3577    8.0191 C   0  0  1  0  0  0  0  0  0  0  0  0
   -3.0016    3.8091    8.7993 C   0  0  0  0  0  0  0  0  0  0  0  0
   -2.5982    3.3809   10.2140 C   0  0  1  0  0  0  0  0  0  0  0  0
   -1.8517    4.4278   11.0252 C   0  0  0  0  0  0  0  0  0  0  0  0
   -3.7562    3.0605   10.9181 O   0  0  0  0  0  0  0  0  0  0  0  0
   -1.7324    2.2837   10.0459 O   0  0  0  0  0  0  0  0  0  0  0  0
   -1.5165    2.0219    8.6545 C   0  0  2  0  0  0  0  0  0  0  0  0
   -0.1163    1.4715    8.2154 C   0  0  0  0  0  0  0  0  0  0  0  0
    0.9113    2.4357    8.7939 C   0  0  0  0  0  0  0  0  0  0  0  0
    0.1131    0.1211    8.9375 C   0  0  0  0  0  0  0  0  0  0  0  0
   -0.0677    1.3619    6.6046 C   0  0  2  0  0  0  0  0  0  0  0  0
   -1.1323    0.4208    6.4260 O   0  0  0  0  0  0  0  0  0  0  0  0
    2.3769    6.3342    8.0446 C   0  0  0  0  0  0  0  0  0  0  0  0
    2.0944    7.8164    7.6959 C   0  0  0  0  0  0  0  0  0  0  0  0
    1.4383    5.9610    9.2074 C   0  0  0  0  0  0  0  0  0  0  0  0
    3.7858    6.2674    8.6623 C   0  0  0  0  0  0  0  0  0  0  0  0
    4.8413    6.7792    7.6892 C   0  0  0  0  0  0  0  0  0  0  0  0
    4.9353    5.8530    6.4691 C   0  0  1  0  0  0  0  0  0  0  0  0
    5.9151    4.7152    6.8848 C   0  0  0  0  0  0  0  0  0  0  0  0
    5.7235    6.5529    5.5236 O   0  0  0  0  0  0  0  0  0  0  0  0
    3.2817    0.5678    3.7406 C   0  0  1  0  0  0  0  0  0  0  0  0
    4.7993    0.4370    3.9718 C   0  0  0  0  0  0  0  0  0  0  0  0
    3.1418    0.9579    2.3904 O   0  0  0  0  0  0  0  0  0  0  0  0
    4.9546   -3.1483    5.3174 C   0  0  1  0  0  0  0  0  0  0  0  0
    5.7393   -2.2328    6.0759 O   0  0  0  0  0  0  0  0  0  0  0  0
    4.1083   -4.1423    6.1659 C   0  0  1  0  0  0  0  0  0  0  0  0
    3.2018   -3.4417    7.0093 O   0  0  0  0  0  0  0  0  0  0  0  0
    3.3661   -5.1239    5.2202 C   0  0  1  0  0  0  0  0  0  0  0  0
    2.4530   -5.9218    5.9557 O   0  0  0  0  0  0  0  0  0  0  0  0
    1.1902   -5.8889    3.4836 H   0  0  0  0  0  0  0  0  0  0  0  0
    2.6973   -5.9125    2.5429 H   0  0  0  0  0  0  0  0  0  0  0  0
    1.4826   -4.6673    2.2517 H   0  0  0  0  0  0  0  0  0  0  0  0
    1.8562   -3.7385    4.5433 H   0  0  0  0  0  0  0  0  0  0  0  0
    4.7787   -2.0026    3.4727 H   0  0  0  0  0  0  0  0  0  0  0  0
    1.3359   -0.7494    1.9573 H   0  0  0  0  0  0  0  0  0  0  0  0
    1.3912   -2.2878    2.7658 H   0  0  0  0  0  0  0  0  0  0  0  0
    2.8338   -1.6555    1.9881 H   0  0  0  0  0  0  0  0  0  0  0  0
    0.3600    0.0896    4.0331 H   0  0  0  0  0  0  0  0  0  0  0  0
    0.2647   -2.1186    4.3085 H   0  0  0  0  0  0  0  0  0  0  0  0
    4.6025    1.5758    6.6210 H   0  0  0  0  0  0  0  0  0  0  0  0
    3.5900    1.1256    7.9394 H   0  0  0  0  0  0  0  0  0  0  0  0
    3.5696    2.7714    7.4063 H   0  0  0  0  0  0  0  0  0  0  0  0
    1.7347    1.7158    4.1445 H   0  0  0  0  0  0  0  0  0  0  0  0
    3.3653    3.2157    3.2122 H   0  0  0  0  0  0  0  0  0  0  0  0
    4.4625    3.4392    5.5408 H   0  0  0  0  0  0  0  0  0  0  0  0
    4.5432    4.5304    4.2562 H   0  0  0  0  0  0  0  0  0  0  0  0
    2.6210    6.1156    4.2131 H   0  0  0  0  0  0  0  0  0  0  0  0
    2.4410    4.3727    7.2670 H   0  0  0  0  0  0  0  0  0  0  0  0
    0.1451    5.1623    7.0829 H   0  0  0  0  0  0  0  0  0  0  0  0
    0.9759    6.7092    4.9513 H   0  0  0  0  0  0  0  0  0  0  0  0
   -0.6920    4.8837    3.7687 H   0  0  0  0  0  0  0  0  0  0  0  0
   -0.2717    1.9935    3.9317 H   0  0  0  0  0  0  0  0  0  0  0  0
   -0.9951    4.0552    8.2494 H   0  0  0  0  0  0  0  0  0  0  0  0
   -3.1929    4.8767    8.7598 H   0  0  0  0  0  0  0  0  0  0  0  0
   -3.9051    3.2791    8.4869 H   0  0  0  0  0  0  0  0  0  0  0  0
   -1.6339    3.9846   11.9959 H   0  0  0  0  0  0  0  0  0  0  0  0
   -2.5188    5.2776   11.1763 H   0  0  0  0  0  0  0  0  0  0  0  0
   -0.9227    4.7291   10.5297 H   0  0  0  0  0  0  0  0  0  0  0  0
   -3.4851    2.6344   11.7340 H   0  0  0  0  0  0  0  0  0  0  0  0
   -2.3194    1.3346    8.3886 H   0  0  0  0  0  0  0  0  0  0  0  0
    1.8842    1.9835    8.8984 H   0  0  0  0  0  0  0  0  0  0  0  0
    0.6265    2.7609    9.7953 H   0  0  0  0  0  0  0  0  0  0  0  0
    0.9719    3.3126    8.1760 H   0  0  0  0  0  0  0  0  0  0  0  0
    1.1171   -0.2711    8.7939 H   0  0  0  0  0  0  0  0  0  0  0  0
   -0.5850   -0.6501    8.6332 H   0  0  0  0  0  0  0  0  0  0  0  0
   -0.0138    0.2506   10.0127 H   0  0  0  0  0  0  0  0  0  0  0  0
   -1.2132    0.2475    5.4945 H   0  0  0  0  0  0  0  0  0  0  0  0
    2.5160    8.4817    8.4483 H   0  0  0  0  0  0  0  0  0  0  0  0
    1.0290    8.0347    7.6477 H   0  0  0  0  0  0  0  0  0  0  0  0
    2.5321    8.1062    6.7429 H   0  0  0  0  0  0  0  0  0  0  0  0
    1.5959    6.6318   10.0528 H   0  0  0  0  0  0  0  0  0  0  0  0
    1.6261    4.9565    9.5771 H   0  0  0  0  0  0  0  0  0  0  0  0
    0.3869    6.0565    8.9533 H   0  0  0  0  0  0  0  0  0  0  0  0
    3.8280    6.8512    9.5876 H   0  0  0  0  0  0  0  0  0  0  0  0
    4.0191    5.2429    8.9458 H   0  0  0  0  0  0  0  0  0  0  0  0
    4.6528    7.8070    7.3880 H   0  0  0  0  0  0  0  0  0  0  0  0
    5.8038    6.8430    8.1962 H   0  0  0  0  0  0  0  0  0  0  0  0
    5.4536    4.0072    7.5729 H   0  0  0  0  0  0  0  0  0  0  0  0
    6.8023    5.1076    7.3802 H   0  0  0  0  0  0  0  0  0  0  0  0
    6.3156    4.1711    6.0272 H   0  0  0  0  0  0  0  0  0  0  0  0
    5.1890    7.2725    5.2053 H   0  0  0  0  0  0  0  0  0  0  0  0
    5.0213    0.0928    4.9728 H   0  0  0  0  0  0  0  0  0  0  0  0
    5.2560    1.4167    3.9574 H   0  0  0  0  0  0  0  0  0  0  0  0
    5.2835   -0.2119    3.2507 H   0  0  0  0  0  0  0  0  0  0  0  0
    3.7668    1.6490    2.1885 H   0  0  0  0  0  0  0  0  0  0  0  0
    5.6959   -3.7507    4.8111 H   0  0  0  0  0  0  0  0  0  0  0  0
    6.0848   -2.6819    6.8423 H   0  0  0  0  0  0  0  0  0  0  0  0
    4.7622   -4.7349    6.8168 H   0  0  0  0  0  0  0  0  0  0  0  0
    2.5769   -4.0595    7.3672 H   0  0  0  0  0  0  0  0  0  0  0  0
    4.0988   -5.7586    4.7086 H   0  0  0  0  0  0  0  0  0  0  0  0
    2.9627   -6.5309    6.4702 H   0  0  0  0  0  0  0  0  0  0  0  0
  1  2  1  0
  1 59  1  0
  1 60  1  0
  1 61  1  0
  2 57  1  0
  2  3  1  0
  2 62  1  1
  3  4  1  0
  4  5  1  0
  4 53  1  0
  4 63  1  6
  6  5  1  1
  6 50  1  0
  6  7  1  0
  6  8  1  0
  7 64  1  0
  7 65  1  0
  7 66  1  0
  8  9  1  0
  8 10  1  0
  8 67  1  6
  9 68  1  0
 10 12  1  0
 10 40  1  0
 10 11  1  1
 11 12  1  0
 12 13  1  1
 12 14  1  0
 13 69  1  0
 13 70  1  0
 13 71  1  0
 14 15  1  0
 14 50  1  0
 14 72  1  6
 15 24  1  0
 15 16  1  0
 15 73  1  6
 16 17  1  0
 16 74  1  0
 16 75  1  0
 17 47  1  0
 17 18  1  6
 17 19  1  0
 18 76  1  0
 19 20  1  0
 19 42  1  0
 19 77  1  1
 20 21  1  0
 20 22  1  0
 20 78  1  1
 21 79  1  0
 22 23  1  6
 24 22  1  1
 22 26  1  0
 23 80  1  0
 24 25  2  0
 26 40  1  0
 26 27  1  6
 26 28  1  0
 27 81  1  0
 28 29  2  0
 28 30  1  0
 30 36  1  0
 30 31  1  0
 30 82  1  6
 31 32  1  0
 31 83  1  0
 31 84  1  0
 32 33  1  0
 32 34  1  1
 32 35  1  0
 33 85  1  0
 33 86  1  0
 33 87  1  0
 34 88  1  0
 35 36  1  0
 36 37  1  0
 36 89  1  6
 37 38  1  0
 37 39  1  0
 37 40  1  0
 38 90  1  0
 38 91  1  0
 38 92  1  0
 39 93  1  0
 39 94  1  0
 39 95  1  0
 40 41  1  6
 41 96  1  0
 42 43  1  0
 42 44  1  0
 42 45  1  0
 43 97  1  0
 43 98  1  0
 43 99  1  0
 44100  1  0
 44101  1  0
 44102  1  0
 45 46  1  0
 45103  1  0
 45104  1  0
 46 47  1  0
 46105  1  0
 46106  1  0
 47 48  1  0
 47 49  1  6
 48107  1  0
 48108  1  0
 48109  1  0
 49110  1  0
 50 51  1  0
 50 52  1  6
 51111  1  0
 51112  1  0
 51113  1  0
 52114  1  0
 53 54  1  0
 53 55  1  0
 53115  1  6
 54116  1  0
 55 56  1  0
 55 57  1  0
 55117  1  1
 56118  1  0
 57 58  1  0
 57119  1  6
 58120  1  0
M  END
>  <i_m_ct_stereo_status>  (104) 
1

>  <s_m_source_file>  (104) 
/var/tmp/pbs.5075288.sched01/tmpq0rgj53d/65gxdktgdh.sdf

>  <i_m_source_file_index>  (104) 
50

>  <i_lp_mmshare_version>  (104) 
48012

>  <i_f3d_flags>  (104) 
0

>  <s_epik_input>  (104) 
W09IXVtDQEBIXTFbQ0BIXShbT0hdKVtDQEhdKFtPSF0pW0NAQEhdKE9bQ0BIXTFbQ0gzXSlPW0NAQF0oW0NIM10pKFtDQEhdMltPSF0pW0NAQF0oW0NIM10pKFtPSF0pW0NAQEhdKEMoW0NAQF0yMzQpKE8zKVtDSDNdKVtDQEBIXTVbQ0gyXVtDQEBdNihbT0hdKVtDQEBIXShDKFtDSDNdKShbQ0gzXSlbQ0gyXVtDSDJdW0NAXTYoW0NIM10pW09IXSlbQ0hdKFtPSF0pW0NAQF0oW09IXSkoW1MrXTVbTy1dKVtDQEBdNyhbT0hdKVtDQF00KFtPSF0pQyhbQ0gzXSkoW0NIM10pW0NAQEhdOFtDQEBIXShDNz1PKVtDSDJdW0NAQF0oTzgpKFtDSDNdKVtPSF0=

>  <s_epik_cmdline>  (104) 
J2VwaWtfcHl0aG9uJywgJy1waHQnLCAnMi4wJywgJy1waCcsICc3LjAnLCAnLXRuJywgJzgnLCAnLW1hJywgJzIwMCcsICctaW1hZScsICc8aW5maWxlLm1hZT4nLCAnLW9tYWUnLCAnPG91dGZpbGUubWFlPic=

>  <r_lp_tautomer_probability>  (104) 
1

>  <r_epik_Ionization_Penalty>  (104) 
5.67647e-06

>  <r_epik_Ionization_Penalty_Charging>  (104) 
0

>  <r_epik_Ionization_Penalty_Neutral>  (104) 
5.67647e-06

>  <r_epik_State_Penalty>  (104) 
-0

>  <r_epik_Charging_Adjusted_Penalty>  (104) 
0

>  <i_epik_Tot_Q>  (104) 
0

>  <i_epik_Tot_abs_Q>  (104) 
2

>  <s_epik_Chemistry_Notes>  (104) 
This compound contains an acetal/aminal-like group ( X-CH(R)-Y where X, Y are N, S, or O) that may be acid/base labile, releasing an aldehyde.

>  <s_lp_Force_Field>  (104) 
OPLS3e

>  <r_lp_Energy>  (104) 
229.63

>  <b_lp_Chiralities_Consistent>  (104) 
1

>  <s_lp_Variant>  (104) 
40:0-2

>  <s_i_glide_gridfile>  (104) 
pfpi4k_grid

>  <i_i_glide_lignum>  (104) 
50

>  <i_i_glide_rotatable_bonds>  (104) 
14

>  <r_i_docking_score>  (104) 
-5.35544

>  <r_i_glide_ligand_efficiency>  (104) 
-0.0923352

>  <r_i_glide_ligand_efficiency_sa>  (104) 
-0.357418

>  <r_i_glide_ligand_efficiency_ln>  (104) 
-1.05829

>  <r_i_glide_gscore>  (104) 
-5.35544

>  <r_i_glide_lipo>  (104) 
-0.131124

>  <r_i_glide_hbond>  (104) 
-0.304

>  <r_i_glide_metal>  (104) 
-0

>  <r_i_glide_rewards>  (104) 
-1.09537

>  <r_i_glide_evdw>  (104) 
-34.1049

>  <r_i_glide_ecoul>  (104) 
-13.683

>  <r_i_glide_erotb>  (104) 
0.0605508

>  <r_i_glide_esite>  (104) 
-0.127795

>  <r_i_glide_emodel>  (104) 
-69.6552

>  <r_i_glide_energy>  (104) 
-47.7879

>  <r_i_glide_einternal>  (104) 
5.20821

>  <r_i_glide_intrahb_reward>  (104) 
-1

>  <i_i_glide_confnum>  (104) 
1

>  <i_i_glide_posenum>  (104) 
22

>  <r_i_glide_eff_state_penalty>  (104) 
0

>  <ligand_id>  (104) 
40

>  <original_smiles>  (104) 
CC1OC(OC2(C)C(O)C34OC3(C)C(C3CC5(O)C(C(O)C(O)([S+]3[O-])C3(O)C(=O)C6CC(C)(O)OC6C(C)(C)C34O)C(C)(C)CCC5(C)O)C2(C)O)C(O)C(O)C1O

>  <smiles>  (104) 
[H]OC1([H])C([H])(OC2(C([H])([H])[H])C([H])(O[H])C34OC3(C([H])([H])[H])C([H])(C3([H])S(=O)C(O[H])(C([H])(O[H])C5([H])C(O[H])(C3([H])[H])C(O[H])(C([H])([H])[H])C([H])([H])C([H])([H])C5(C([H])([H])[H])C([H])([H])[H])C3(O[H])C(=O)C5([H])C([H])([H])C(O[H])(C([H])([H])[H])OC5([H])C(C([H])([H])[H])(C([H])([H])[H])C34O[H])C2(O[H])C([H])([H])[H])OC([H])(C([H])([H])[H])C([H])(O[H])C1([H])O[H]

$$$$
40:1:2
     RDKit          3D

120127  0  0  1  0  0  0  0  0999 V2000
    4.3340   -3.7892   -0.7375 C   0  0  0  0  0  0  0  0  0  0  0  0
    2.8620   -4.1060   -0.3258 C   0  0  2  0  0  0  0  0  0  0  0  0
    2.2973   -3.1304    0.5641 O   0  0  0  0  0  0  0  0  0  0  0  0
    2.8737   -3.0364    1.8557 C   0  0  1  0  0  0  0  0  0  0  0  0
    2.3503   -1.9853    2.6054 O   0  0  0  0  0  0  0  0  0  0  0  0
    3.0208   -0.6977    2.6900 C   0  0  1  0  0  0  0  0  0  0  0  0
    3.4858   -0.2265    1.2578 C   0  0  0  0  0  0  0  0  0  0  0  0
    1.9579    0.4116    3.1923 C   0  0  1  0  0  0  0  0  0  0  0  0
    0.7975    0.4619    2.3670 O   0  0  0  0  0  0  0  0  0  0  0  0
    1.5614    0.2891    4.7303 C   0  0  1  0  0  0  0  0  0  0  0  0
    1.3102   -1.0331    4.8748 O   0  0  0  0  0  0  0  0  0  0  0  0
    2.4902   -0.5887    5.5929 C   0  0  2  0  0  0  0  0  0  0  0  0
    2.4443   -1.6878    6.6642 C   0  0  0  0  0  0  0  0  0  0  0  0
    3.8667   -0.1439    5.0567 C   0  0  1  0  0  0  0  0  0  0  0  0
    4.9477    0.3947    6.0483 C   0  0  2  0  0  0  0  0  0  0  0  0
    5.2694   -0.3452    7.3599 C   0  0  0  0  0  0  0  0  0  0  0  0
    5.0287    0.1912    8.8321 C   0  0  1  0  0  0  0  0  0  0  0  0
    6.0414    1.1616    9.0484 O   0  0  0  0  0  0  0  0  0  0  0  0
    3.6235    0.9169    9.1401 C   0  0  2  0  0  0  0  0  0  0  0  0
    3.3083    2.3693    8.5297 C   0  0  1  0  0  0  0  0  0  0  0  0
    4.1385    3.2899    9.2462 O   0  0  0  0  0  0  0  0  0  0  0  0
    3.2208    2.7576    6.9710 C   0  0  1  0  0  0  0  0  0  0  0  0
    3.4073    4.1791    7.0339 O   0  0  0  0  0  0  0  0  0  0  0  0
    4.8384    2.2522    6.1507 S   0  0  0  0  0  0  0  0  0  0  0  0
    6.0089    2.6990    7.0157 O   0  0  0  0  0  0  0  0  0  0  0  0
    1.8321    2.7218    6.0168 C   0  0  2  0  0  0  0  0  0  0  0  0
    2.3677    3.2532    4.8095 O   0  0  0  0  0  0  0  0  0  0  0  0
    0.8394    3.8101    6.5901 C   0  0  0  0  0  0  0  0  0  0  0  0
    0.8634    4.9635    6.2057 O   0  0  0  0  0  0  0  0  0  0  0  0
   -0.1269    3.3219    7.6602 C   0  0  1  0  0  0  0  0  0  0  0  0
   -1.0827    4.3158    8.2693 C   0  0  0  0  0  0  0  0  0  0  0  0
   -2.1737    3.3530    8.7948 C   0  0  1  0  0  0  0  0  0  0  0  0
   -1.9455    2.9106   10.2453 C   0  0  0  0  0  0  0  0  0  0  0  0
   -3.4088    3.9952    8.7015 O   0  0  0  0  0  0  0  0  0  0  0  0
   -2.1013    2.1995    7.9975 O   0  0  0  0  0  0  0  0  0  0  0  0
   -1.0869    2.3692    6.9959 C   0  0  2  0  0  0  0  0  0  0  0  0
   -0.3365    1.0818    6.5167 C   0  0  0  0  0  0  0  0  0  0  0  0
    0.1623    0.3846    7.7874 C   0  0  0  0  0  0  0  0  0  0  0  0
   -1.3811    0.1486    5.8619 C   0  0  0  0  0  0  0  0  0  0  0  0
    0.8591    1.5002    5.4917 C   0  0  2  0  0  0  0  0  0  0  0  0
    0.0689    2.0974    4.4571 O   0  0  0  0  0  0  0  0  0  0  0  0
    3.2137    0.8670   10.6921 C   0  0  0  0  0  0  0  0  0  0  0  0
    4.0244    1.8072   11.6246 C   0  0  0  0  0  0  0  0  0  0  0  0
    1.7215    1.1892   10.9267 C   0  0  0  0  0  0  0  0  0  0  0  0
    3.3914   -0.5684   11.2160 C   0  0  0  0  0  0  0  0  0  0  0  0
    4.8609   -0.9723   11.2234 C   0  0  0  0  0  0  0  0  0  0  0  0
    5.3936   -1.0597    9.7886 C   0  0  1  0  0  0  0  0  0  0  0  0
    5.0129   -2.4812    9.2747 C   0  0  0  0  0  0  0  0  0  0  0  0
    6.7932   -1.1524    9.9679 O   0  0  0  0  0  0  0  0  0  0  0  0
    4.2626   -0.8447    3.7251 C   0  0  1  0  0  0  0  0  0  0  0  0
    4.8100   -2.2234    4.1163 C   0  0  0  0  0  0  0  0  0  0  0  0
    5.3819   -0.1680    3.1761 O   0  0  0  0  0  0  0  0  0  0  0  0
    2.7299   -4.3906    2.5916 C   0  0  1  0  0  0  0  0  0  0  0  0
    1.4376   -4.6287    3.0849 O   0  0  0  0  0  0  0  0  0  0  0  0
    3.2698   -5.5416    1.7201 C   0  0  1  0  0  0  0  0  0  0  0  0
    3.1801   -6.8167    2.3210 O   0  0  0  0  0  0  0  0  0  0  0  0
    2.7124   -5.5209    0.2751 C   0  0  1  0  0  0  0  0  0  0  0  0
    1.3724   -5.9448    0.2777 O   0  0  0  0  0  0  0  0  0  0  0  0
    4.6863   -4.4676   -1.5254 H   0  0  0  0  0  0  0  0  0  0  0  0
    5.0530   -3.8202    0.0827 H   0  0  0  0  0  0  0  0  0  0  0  0
    4.4146   -2.7936   -1.1592 H   0  0  0  0  0  0  0  0  0  0  0  0
    2.2567   -4.0794   -1.2301 H   0  0  0  0  0  0  0  0  0  0  0  0
    3.9164   -2.8044    1.7120 H   0  0  0  0  0  0  0  0  0  0  0  0
    3.8707    0.7986    1.2867 H   0  0  0  0  0  0  0  0  0  0  0  0
    2.6320   -0.1882    0.5755 H   0  0  0  0  0  0  0  0  0  0  0  0
    4.2504   -0.8450    0.7815 H   0  0  0  0  0  0  0  0  0  0  0  0
    2.4271    1.3861    3.0522 H   0  0  0  0  0  0  0  0  0  0  0  0
    1.0830    0.5055    1.4577 H   0  0  0  0  0  0  0  0  0  0  0  0
    3.1551   -2.4888    6.4648 H   0  0  0  0  0  0  0  0  0  0  0  0
    1.4779   -2.1931    6.6808 H   0  0  0  0  0  0  0  0  0  0  0  0
    2.6164   -1.3464    7.6648 H   0  0  0  0  0  0  0  0  0  0  0  0
    3.7300    0.8305    4.6272 H   0  0  0  0  0  0  0  0  0  0  0  0
    5.8826    0.2615    5.5063 H   0  0  0  0  0  0  0  0  0  0  0  0
    4.8013   -1.3040    7.2231 H   0  0  0  0  0  0  0  0  0  0  0  0
    6.3328   -0.6031    7.3130 H   0  0  0  0  0  0  0  0  0  0  0  0
    6.0997    1.7543    8.2830 H   0  0  0  0  0  0  0  0  0  0  0  0
    2.9172    0.2751    8.6748 H   0  0  0  0  0  0  0  0  0  0  0  0
    2.3200    2.6308    8.8738 H   0  0  0  0  0  0  0  0  0  0  0  0
    5.0367    3.2041    8.9276 H   0  0  0  0  0  0  0  0  0  0  0  0
    2.8342    4.5809    6.3735 H   0  0  0  0  0  0  0  0  0  0  0  0
    1.6272    3.5221    4.2635 H   0  0  0  0  0  0  0  0  0  0  0  0
    0.4029    2.8382    8.4686 H   0  0  0  0  0  0  0  0  0  0  0  0
   -0.6429    4.8932    9.0764 H   0  0  0  0  0  0  0  0  0  0  0  0
   -1.4951    4.9909    7.5182 H   0  0  0  0  0  0  0  0  0  0  0  0
   -2.7427    2.2203   10.5376 H   0  0  0  0  0  0  0  0  0  0  0  0
   -1.9591    3.7736   10.9152 H   0  0  0  0  0  0  0  0  0  0  0  0
   -0.9879    2.3990   10.3329 H   0  0  0  0  0  0  0  0  0  0  0  0
   -4.0422    3.5076    9.2400 H   0  0  0  0  0  0  0  0  0  0  0  0
   -1.5937    2.8575    6.1633 H   0  0  0  0  0  0  0  0  0  0  0  0
    0.3394   -0.6785    7.6454 H   0  0  0  0  0  0  0  0  0  0  0  0
   -0.5801    0.4576    8.5924 H   0  0  0  0  0  0  0  0  0  0  0  0
    1.0625    0.8645    8.1466 H   0  0  0  0  0  0  0  0  0  0  0  0
   -0.9833   -0.8471    5.6456 H   0  0  0  0  0  0  0  0  0  0  0  0
   -1.8121    0.5582    4.9465 H   0  0  0  0  0  0  0  0  0  0  0  0
   -2.2192    0.0156    6.5457 H   0  0  0  0  0  0  0  0  0  0  0  0
    0.5087    2.0038    3.6029 H   0  0  0  0  0  0  0  0  0  0  0  0
    3.9479    1.4758   12.6622 H   0  0  0  0  0  0  0  0  0  0  0  0
    3.6478    2.8329   11.6034 H   0  0  0  0  0  0  0  0  0  0  0  0
    5.0853    1.8350   11.3664 H   0  0  0  0  0  0  0  0  0  0  0  0
    1.4824    1.0605   11.9816 H   0  0  0  0  0  0  0  0  0  0  0  0
    1.0725    0.5206   10.3702 H   0  0  0  0  0  0  0  0  0  0  0  0
    1.4683    2.2238   10.6944 H   0  0  0  0  0  0  0  0  0  0  0  0
    2.9947   -0.6497   12.2306 H   0  0  0  0  0  0  0  0  0  0  0  0
    2.8059   -1.2582   10.6150 H   0  0  0  0  0  0  0  0  0  0  0  0
    5.4760   -0.2957   11.8125 H   0  0  0  0  0  0  0  0  0  0  0  0
    4.9656   -1.9377   11.7133 H   0  0  0  0  0  0  0  0  0  0  0  0
    3.9554   -2.5830    9.0362 H   0  0  0  0  0  0  0  0  0  0  0  0
    5.2360   -3.2406   10.0120 H   0  0  0  0  0  0  0  0  0  0  0  0
    5.5851   -2.8009    8.4020 H   0  0  0  0  0  0  0  0  0  0  0  0
    7.1781   -1.3558    9.1172 H   0  0  0  0  0  0  0  0  0  0  0  0
    4.0232   -2.8209    4.5266 H   0  0  0  0  0  0  0  0  0  0  0  0
    5.5800   -2.1107    4.8999 H   0  0  0  0  0  0  0  0  0  0  0  0
    5.1730   -2.7869    3.2686 H   0  0  0  0  0  0  0  0  0  0  0  0
    5.6569   -0.6447    2.3936 H   0  0  0  0  0  0  0  0  0  0  0  0
    3.3846   -4.3367    3.4543 H   0  0  0  0  0  0  0  0  0  0  0  0
    1.1577   -3.8289    3.5427 H   0  0  0  0  0  0  0  0  0  0  0  0
    4.3269   -5.3434    1.6015 H   0  0  0  0  0  0  0  0  0  0  0  0
    3.6082   -7.4836    1.7777 H   0  0  0  0  0  0  0  0  0  0  0  0
    3.2686   -6.2418   -0.3238 H   0  0  0  0  0  0  0  0  0  0  0  0
    1.3153   -6.6935    0.8777 H   0  0  0  0  0  0  0  0  0  0  0  0
  1  2  1  0
  1 59  1  0
  1 60  1  0
  1 61  1  0
  2 57  1  0
  2  3  1  0
  2 62  1  6
  3  4  1  0
  4  5  1  0
  4 53  1  0
  4 63  1  6
  6  5  1  6
  6 50  1  0
  6  7  1  0
  6  8  1  0
  7 64  1  0
  7 65  1  0
  7 66  1  0
  8  9  1  0
  8 10  1  0
  8 67  1  1
  9 68  1  0
 10 12  1  0
 10 40  1  0
 10 11  1  6
 11 12  1  0
 12 13  1  1
 12 14  1  0
 13 69  1  0
 13 70  1  0
 13 71  1  0
 14 15  1  0
 14 50  1  0
 14 72  1  6
 15 24  1  0
 15 16  1  0
 15 73  1  6
 16 17  1  0
 16 74  1  0
 16 75  1  0
 17 47  1  0
 17 18  1  1
 17 19  1  0
 18 76  1  0
 19 20  1  0
 19 42  1  0
 19 77  1  6
 20 21  1  0
 20 22  1  0
 20 78  1  1
 21 79  1  0
 22 23  1  1
 24 22  1  1
 22 26  1  0
 23 80  1  0
 24 25  2  0
 26 40  1  0
 26 27  1  6
 26 28  1  0
 27 81  1  0
 28 29  2  0
 28 30  1  0
 30 36  1  0
 30 31  1  0
 30 82  1  1
 31 32  1  0
 31 83  1  0
 31 84  1  0
 32 33  1  0
 32 34  1  1
 32 35  1  0
 33 85  1  0
 33 86  1  0
 33 87  1  0
 34 88  1  0
 35 36  1  0
 36 37  1  0
 36 89  1  6
 37 38  1  0
 37 39  1  0
 37 40  1  0
 38 90  1  0
 38 91  1  0
 38 92  1  0
 39 93  1  0
 39 94  1  0
 39 95  1  0
 40 41  1  6
 41 96  1  0
 42 43  1  0
 42 44  1  0
 42 45  1  0
 43 97  1  0
 43 98  1  0
 43 99  1  0
 44100  1  0
 44101  1  0
 44102  1  0
 45 46  1  0
 45103  1  0
 45104  1  0
 46 47  1  0
 46105  1  0
 46106  1  0
 47 48  1  0
 47 49  1  1
 48107  1  0
 48108  1  0
 48109  1  0
 49110  1  0
 50 51  1  0
 50 52  1  6
 51111  1  0
 51112  1  0
 51113  1  0
 52114  1  0
 53 54  1  0
 53 55  1  0
 53115  1  1
 54116  1  0
 55 56  1  0
 55 57  1  0
 55117  1  6
 56118  1  0
 57 58  1  0
 57119  1  6
 58120  1  0
M  END
>  <i_m_ct_stereo_status>  (105) 
1

>  <s_m_source_file>  (105) 
/var/tmp/pbs.5075288.sched01/tmpq0rgj53d/65gxdktgdh.sdf

>  <i_m_source_file_index>  (105) 
50

>  <i_lp_mmshare_version>  (105) 
48012

>  <i_f3d_flags>  (105) 
0

>  <s_epik_input>  (105) 
W09IXVtDQEBIXTFbQ0BIXShbT0hdKVtDQEhdKFtPSF0pW0NAQEhdKE9bQ0BIXTFbQ0gzXSlPW0NAQF0oW0NIM10pKFtDQEhdMltPSF0pW0NAQF0oW0NIM10pKFtPSF0pW0NAQEhdKEMoW0NAQF0yMzQpKE8zKVtDSDNdKVtDQEBIXTVbQ0gyXVtDQEBdNihbT0hdKVtDQEBIXShDKFtDSDNdKShbQ0gzXSlbQ0gyXVtDSDJdW0NAXTYoW0NIM10pW09IXSlbQ0hdKFtPSF0pW0NAQF0oW09IXSkoW1MrXTVbTy1dKVtDQEBdNyhbT0hdKVtDQF00KFtPSF0pQyhbQ0gzXSkoW0NIM10pW0NAQEhdOFtDQEBIXShDNz1PKVtDSDJdW0NAQF0oTzgpKFtDSDNdKVtPSF0=

>  <s_epik_cmdline>  (105) 
J2VwaWtfcHl0aG9uJywgJy1waHQnLCAnMi4wJywgJy1waCcsICc3LjAnLCAnLXRuJywgJzgnLCAnLW1hJywgJzIwMCcsICctaW1hZScsICc8aW5maWxlLm1hZT4nLCAnLW9tYWUnLCAnPG91dGZpbGUubWFlPic=

>  <r_lp_tautomer_probability>  (105) 
1

>  <r_epik_Ionization_Penalty>  (105) 
5.67647e-06

>  <r_epik_Ionization_Penalty_Charging>  (105) 
0

>  <r_epik_Ionization_Penalty_Neutral>  (105) 
5.67647e-06

>  <r_epik_State_Penalty>  (105) 
-0

>  <r_epik_Charging_Adjusted_Penalty>  (105) 
0

>  <i_epik_Tot_Q>  (105) 
0

>  <i_epik_Tot_abs_Q>  (105) 
2

>  <s_epik_Chemistry_Notes>  (105) 
This compound contains an acetal/aminal-like group ( X-CH(R)-Y where X, Y are N, S, or O) that may be acid/base labile, releasing an aldehyde.

>  <s_lp_Force_Field>  (105) 
OPLS3e

>  <r_lp_Energy>  (105) 
229.63

>  <b_lp_Chiralities_Consistent>  (105) 
1

>  <s_lp_Variant>  (105) 
40:0-2

>  <s_i_glide_gridfile>  (105) 
pfpi4k_grid

>  <i_i_glide_lignum>  (105) 
50

>  <i_i_glide_rotatable_bonds>  (105) 
14

>  <r_i_docking_score>  (105) 
-3.85494

>  <r_i_glide_ligand_efficiency>  (105) 
-0.0664644

>  <r_i_glide_ligand_efficiency_sa>  (105) 
-0.257276

>  <r_i_glide_ligand_efficiency_ln>  (105) 
-0.761779

>  <r_i_glide_gscore>  (105) 
-3.85494

>  <r_i_glide_lipo>  (105) 
-0.0847659

>  <r_i_glide_hbond>  (105) 
-0.0236712

>  <r_i_glide_metal>  (105) 
-0

>  <r_i_glide_rewards>  (105) 
-1.00717

>  <r_i_glide_evdw>  (105) 
-37.1247

>  <r_i_glide_ecoul>  (105) 
-6.36458

>  <r_i_glide_erotb>  (105) 
0.0605508

>  <r_i_glide_esite>  (105) 
-0.014337

>  <r_i_glide_emodel>  (105) 
-58.4675

>  <r_i_glide_energy>  (105) 
-43.4893

>  <r_i_glide_einternal>  (105) 
7.80845

>  <r_i_glide_intrahb_reward>  (105) 
-1

>  <i_i_glide_confnum>  (105) 
4

>  <i_i_glide_posenum>  (105) 
19

>  <r_i_glide_eff_state_penalty>  (105) 
0

>  <ligand_id>  (105) 
40

>  <original_smiles>  (105) 
CC1OC(OC2(C)C(O)C34OC3(C)C(C3CC5(O)C(C(O)C(O)([S+]3[O-])C3(O)C(=O)C6CC(C)(O)OC6C(C)(C)C34O)C(C)(C)CCC5(C)O)C2(C)O)C(O)C(O)C1O

>  <smiles>  (105) 
[H]OC1([H])C([H])(OC2(C([H])([H])[H])C([H])(O[H])C34OC3(C([H])([H])[H])C([H])(C3([H])S(=O)C(O[H])(C([H])(O[H])C5([H])C(O[H])(C3([H])[H])C(O[H])(C([H])([H])[H])C([H])([H])C([H])([H])C5(C([H])([H])[H])C([H])([H])[H])C3(O[H])C(=O)C5([H])C([H])([H])C(O[H])(C([H])([H])[H])OC5([H])C(C([H])([H])[H])(C([H])([H])[H])C34O[H])C2(O[H])C([H])([H])[H])OC([H])(C([H])([H])[H])C([H])(O[H])C1([H])O[H]

$$$$
40:3:0
     RDKit          3D

120127  0  0  1  0  0  0  0  0999 V2000
    4.3814   -4.4166   -0.1084 C   0  0  0  0  0  0  0  0  0  0  0  0
    2.8356   -4.4988    0.0799 C   0  0  2  0  0  0  0  0  0  0  0  0
    2.2706   -3.4511    0.8902 O   0  0  0  0  0  0  0  0  0  0  0  0
    2.7857   -3.4045    2.2066 C   0  0  1  0  0  0  0  0  0  0  0  0
    2.2778   -2.2721    2.8807 O   0  0  0  0  0  0  0  0  0  0  0  0
    2.9324   -0.9809    2.7373 C   0  0  1  0  0  0  0  0  0  0  0  0
    3.2638   -0.7530    1.2257 C   0  0  0  0  0  0  0  0  0  0  0  0
    1.9283    0.1619    3.2198 C   0  0  1  0  0  0  0  0  0  0  0  0
    0.7065    0.1033    2.5015 O   0  0  0  0  0  0  0  0  0  0  0  0
    1.6655    0.1508    4.7818 C   0  0  1  0  0  0  0  0  0  0  0  0
    1.3845   -1.0888    5.1199 O   0  0  0  0  0  0  0  0  0  0  0  0
    2.6550   -0.6786    5.6670 C   0  0  2  0  0  0  0  0  0  0  0  0
    2.7649   -1.9984    6.4279 C   0  0  0  0  0  0  0  0  0  0  0  0
    3.9761   -0.2493    4.9800 C   0  0  1  0  0  0  0  0  0  0  0  0
    5.1368    0.2578    5.8794 C   0  0  2  0  0  0  0  0  0  0  0  0
    5.7037   -0.5438    7.0640 C   0  0  0  0  0  0  0  0  0  0  0  0
    5.3006   -0.3289    8.5777 C   0  0  1  0  0  0  0  0  0  0  0  0
    6.1550    0.7091    9.0502 O   0  0  0  0  0  0  0  0  0  0  0  0
    3.7972    0.1649    8.9223 C   0  0  2  0  0  0  0  0  0  0  0  0
    3.4565    1.7036    8.5658 C   0  0  2  0  0  0  0  0  0  0  0  0
    2.3685    2.1997    9.2980 O   0  0  0  0  0  0  0  0  0  0  0  0
    3.3464    2.3756    7.1203 C   0  0  1  0  0  0  0  0  0  0  0  0
    3.5821    3.7362    7.5458 O   0  0  0  0  0  0  0  0  0  0  0  0
    4.9454    2.0769    6.1847 S   0  0  0  0  0  0  0  0  0  0  0  0
    6.1188    2.4958    7.0550 O   0  0  0  0  0  0  0  0  0  0  0  0
    1.9832    2.5316    6.1542 C   0  0  2  0  0  0  0  0  0  0  0  0
    2.5459    3.1492    4.9889 O   0  0  0  0  0  0  0  0  0  0  0  0
    1.0217    3.6038    6.7889 C   0  0  0  0  0  0  0  0  0  0  0  0
    1.1859    4.8159    6.6067 O   0  0  0  0  0  0  0  0  0  0  0  0
   -0.0974    3.0964    7.6991 C   0  0  1  0  0  0  0  0  0  0  0  0
   -1.0502    4.0754    8.3414 C   0  0  0  0  0  0  0  0  0  0  0  0
   -2.2153    3.1239    8.6864 C   0  0  1  0  0  0  0  0  0  0  0  0
   -2.1426    2.5414   10.0995 C   0  0  0  0  0  0  0  0  0  0  0  0
   -3.3955    3.8280    8.5238 O   0  0  0  0  0  0  0  0  0  0  0  0
   -2.1079    2.0373    7.7964 O   0  0  0  0  0  0  0  0  0  0  0  0
   -1.0224    2.2427    6.8913 C   0  0  2  0  0  0  0  0  0  0  0  0
   -0.3011    0.9594    6.3877 C   0  0  0  0  0  0  0  0  0  0  0  0
    0.1190    0.1041    7.5932 C   0  0  0  0  0  0  0  0  0  0  0  0
   -1.3651    0.1615    5.5818 C   0  0  0  0  0  0  0  0  0  0  0  0
    0.9863    1.3839    5.5061 C   0  0  2  0  0  0  0  0  0  0  0  0
    0.3485    2.0799    4.4328 O   0  0  0  0  0  0  0  0  0  0  0  0
    3.3793   -0.1690   10.4476 C   0  0  0  0  0  0  0  0  0  0  0  0
    3.8834    0.8894   11.4666 C   0  0  0  0  0  0  0  0  0  0  0  0
    1.8501   -0.3835   10.5985 C   0  0  0  0  0  0  0  0  0  0  0  0
    3.9358   -1.5272   10.9345 C   0  0  0  0  0  0  0  0  0  0  0  0
    5.4526   -1.6214   10.8257 C   0  0  0  0  0  0  0  0  0  0  0  0
    5.8335   -1.6262    9.3434 C   0  0  1  0  0  0  0  0  0  0  0  0
    5.4670   -3.0268    8.7746 C   0  0  0  0  0  0  0  0  0  0  0  0
    7.2475   -1.6654    9.3177 O   0  0  0  0  0  0  0  0  0  0  0  0
    4.2694   -0.9551    3.6303 C   0  0  1  0  0  0  0  0  0  0  0  0
    5.0181   -2.2903    3.8475 C   0  0  0  0  0  0  0  0  0  0  0  0
    5.2495   -0.1884    2.9462 O   0  0  0  0  0  0  0  0  0  0  0  0
    2.3735   -4.7034    2.9584 C   0  0  1  0  0  0  0  0  0  0  0  0
    1.0143   -4.7814    3.3283 O   0  0  0  0  0  0  0  0  0  0  0  0
    2.8316   -5.9388    2.1433 C   0  0  1  0  0  0  0  0  0  0  0  0
    2.4546   -7.1780    2.7146 O   0  0  0  0  0  0  0  0  0  0  0  0
    2.4174   -5.8579    0.6637 C   0  0  1  0  0  0  0  0  0  0  0  0
    1.0352   -6.0979    0.4800 O   0  0  0  0  0  0  0  0  0  0  0  0
    4.7562   -5.2353   -0.7499 H   0  0  0  0  0  0  0  0  0  0  0  0
    4.9439   -4.4555    0.8345 H   0  0  0  0  0  0  0  0  0  0  0  0
    4.6618   -3.4795   -0.5941 H   0  0  0  0  0  0  0  0  0  0  0  0
    2.3797   -4.4211   -0.9109 H   0  0  0  0  0  0  0  0  0  0  0  0
    3.8166   -3.2918    2.1411 H   0  0  0  0  0  0  0  0  0  0  0  0
    3.6733    0.2391    1.0164 H   0  0  0  0  0  0  0  0  0  0  0  0
    2.3677   -0.8492    0.6274 H   0  0  0  0  0  0  0  0  0  0  0  0
    3.9914   -1.4575    0.8284 H   0  0  0  0  0  0  0  0  0  0  0  0
    2.3688    1.1301    2.9651 H   0  0  0  0  0  0  0  0  0  0  0  0
    0.9046    0.1778    1.5614 H   0  0  0  0  0  0  0  0  0  0  0  0
    3.6603   -2.0789    7.0163 H   0  0  0  0  0  0  0  0  0  0  0  0
    2.7360   -2.8518    5.7497 H   0  0  0  0  0  0  0  0  0  0  0  0
    1.9340   -2.1184    7.1186 H   0  0  0  0  0  0  0  0  0  0  0  0
    3.7954    0.7386    4.5688 H   0  0  0  0  0  0  0  0  0  0  0  0
    5.9994    0.2750    5.2167 H   0  0  0  0  0  0  0  0  0  0  0  0
    5.5992   -1.5731    6.7487 H   0  0  0  0  0  0  0  0  0  0  0  0
    6.7913   -0.4178    7.0179 H   0  0  0  0  0  0  0  0  0  0  0  0
    6.0348    1.4830    8.4983 H   0  0  0  0  0  0  0  0  0  0  0  0
    3.1323   -0.4420    8.3326 H   0  0  0  0  0  0  0  0  0  0  0  0
    4.2760    2.2340    9.0596 H   0  0  0  0  0  0  0  0  0  0  0  0
    1.5763    1.7594    8.9895 H   0  0  0  0  0  0  0  0  0  0  0  0
    2.9784    4.3189    7.0718 H   0  0  0  0  0  0  0  0  0  0  0  0
    1.8019    3.2996    4.3973 H   0  0  0  0  0  0  0  0  0  0  0  0
    0.2986    2.4962    8.5026 H   0  0  0  0  0  0  0  0  0  0  0  0
   -0.6462    4.5465    9.2364 H   0  0  0  0  0  0  0  0  0  0  0  0
   -1.3632    4.8556    7.6460 H   0  0  0  0  0  0  0  0  0  0  0  0
   -2.9892    1.8864   10.2631 H   0  0  0  0  0  0  0  0  0  0  0  0
   -2.1979    3.3474   10.8426 H   0  0  0  0  0  0  0  0  0  0  0  0
   -1.2156    1.9938   10.2444 H   0  0  0  0  0  0  0  0  0  0  0  0
   -4.0990    3.3495    8.9673 H   0  0  0  0  0  0  0  0  0  0  0  0
   -1.4368    2.8251    6.0694 H   0  0  0  0  0  0  0  0  0  0  0  0
    0.1398   -0.9504    7.3407 H   0  0  0  0  0  0  0  0  0  0  0  0
   -0.5759    0.2078    8.4297 H   0  0  0  0  0  0  0  0  0  0  0  0
    1.1013    0.3821    7.9491 H   0  0  0  0  0  0  0  0  0  0  0  0
   -0.9690   -0.7170    5.0831 H   0  0  0  0  0  0  0  0  0  0  0  0
   -1.8686    0.7695    4.8313 H   0  0  0  0  0  0  0  0  0  0  0  0
   -2.1480   -0.1920    6.2512 H   0  0  0  0  0  0  0  0  0  0  0  0
   -0.0883    1.4331    3.8870 H   0  0  0  0  0  0  0  0  0  0  0  0
    3.8934    0.4938   12.4832 H   0  0  0  0  0  0  0  0  0  0  0  0
    3.2573    1.7808   11.5056 H   0  0  0  0  0  0  0  0  0  0  0  0
    4.8954    1.2181   11.2502 H   0  0  0  0  0  0  0  0  0  0  0  0
    1.6057   -0.7599   11.5925 H   0  0  0  0  0  0  0  0  0  0  0  0
    1.4824   -1.1218    9.8890 H   0  0  0  0  0  0  0  0  0  0  0  0
    1.2445    0.5111   10.4863 H   0  0  0  0  0  0  0  0  0  0  0  0
    3.6622   -1.6885   11.9798 H   0  0  0  0  0  0  0  0  0  0  0  0
    3.4561   -2.3448   10.4009 H   0  0  0  0  0  0  0  0  0  0  0  0
    5.9388   -0.8098   11.3601 H   0  0  0  0  0  0  0  0  0  0  0  0
    5.7982   -2.5336   11.3149 H   0  0  0  0  0  0  0  0  0  0  0  0
    4.3982   -3.1773    8.6559 H   0  0  0  0  0  0  0  0  0  0  0  0
    5.8094   -3.8110    9.4489 H   0  0  0  0  0  0  0  0  0  0  0  0
    5.9571   -3.2520    7.8292 H   0  0  0  0  0  0  0  0  0  0  0  0
    7.5507   -0.8407    9.6998 H   0  0  0  0  0  0  0  0  0  0  0  0
    4.3897   -3.0272    4.3193 H   0  0  0  0  0  0  0  0  0  0  0  0
    5.8272   -2.1506    4.5883 H   0  0  0  0  0  0  0  0  0  0  0  0
    5.3546   -2.7126    2.9063 H   0  0  0  0  0  0  0  0  0  0  0  0
    6.0725   -0.2400    3.4270 H   0  0  0  0  0  0  0  0  0  0  0  0
    2.9157   -4.6748    3.8988 H   0  0  0  0  0  0  0  0  0  0  0  0
    0.7670   -3.9122    3.6612 H   0  0  0  0  0  0  0  0  0  0  0  0
    3.9150   -5.9540    2.1676 H   0  0  0  0  0  0  0  0  0  0  0  0
    2.8225   -7.2307    3.5993 H   0  0  0  0  0  0  0  0  0  0  0  0
    2.9222   -6.6650    0.1173 H   0  0  0  0  0  0  0  0  0  0  0  0
    0.8323   -6.8992    0.9634 H   0  0  0  0  0  0  0  0  0  0  0  0
  1  2  1  0
  1 59  1  0
  1 60  1  0
  1 61  1  0
  2 57  1  0
  2  3  1  0
  2 62  1  6
  3  4  1  0
  4  5  1  0
  4 53  1  0
  4 63  1  6
  6  5  1  6
  6 50  1  0
  6  7  1  0
  6  8  1  0
  7 64  1  0
  7 65  1  0
  7 66  1  0
  8  9  1  0
  8 10  1  0
  8 67  1  6
  9 68  1  0
 10 12  1  0
 10 40  1  0
 10 11  1  6
 11 12  1  0
 12 13  1  1
 12 14  1  0
 13 69  1  0
 13 70  1  0
 13 71  1  0
 14 15  1  0
 14 50  1  0
 14 72  1  6
 15 24  1  0
 15 16  1  0
 15 73  1  6
 16 17  1  0
 16 74  1  0
 16 75  1  0
 17 47  1  0
 17 18  1  1
 17 19  1  0
 18 76  1  0
 19 20  1  0
 19 42  1  0
 19 77  1  6
 20 21  1  0
 20 22  1  0
 20 78  1  1
 21 79  1  0
 22 23  1  1
 24 22  1  1
 22 26  1  0
 23 80  1  0
 24 25  2  0
 26 40  1  0
 26 27  1  6
 26 28  1  0
 27 81  1  0
 28 29  2  0
 28 30  1  0
 30 36  1  0
 30 31  1  0
 30 82  1  1
 31 32  1  0
 31 83  1  0
 31 84  1  0
 32 33  1  0
 32 34  1  1
 32 35  1  0
 33 85  1  0
 33 86  1  0
 33 87  1  0
 34 88  1  0
 35 36  1  0
 36 37  1  0
 36 89  1  6
 37 38  1  0
 37 39  1  0
 37 40  1  0
 38 90  1  0
 38 91  1  0
 38 92  1  0
 39 93  1  0
 39 94  1  0
 39 95  1  0
 40 41  1  6
 41 96  1  0
 42 43  1  0
 42 44  1  0
 42 45  1  0
 43 97  1  0
 43 98  1  0
 43 99  1  0
 44100  1  0
 44101  1  0
 44102  1  0
 45 46  1  0
 45103  1  0
 45104  1  0
 46 47  1  0
 46105  1  0
 46106  1  0
 47 48  1  0
 47 49  1  1
 48107  1  0
 48108  1  0
 48109  1  0
 49110  1  0
 50 51  1  0
 50 52  1  6
 51111  1  0
 51112  1  0
 51113  1  0
 52114  1  0
 53 54  1  0
 53 55  1  0
 53115  1  1
 54116  1  0
 55 56  1  0
 55 57  1  0
 55117  1  6
 56118  1  0
 57 58  1  0
 57119  1  6
 58120  1  0
M  END
>  <i_m_ct_stereo_status>  (106) 
1

>  <s_m_source_file>  (106) 
/var/tmp/pbs.5075288.sched01/tmpq0rgj53d/65gxdktgdh.sdf

>  <i_m_source_file_index>  (106) 
52

>  <i_lp_mmshare_version>  (106) 
48012

>  <i_f3d_flags>  (106) 
0

>  <s_epik_input>  (106) 
W09IXVtDQEBIXTFbQ0BIXShbT0hdKVtDQEhdKFtPSF0pW0NAQEhdKE9bQ0BIXTFbQ0gzXSlPW0NAQF0oW0NIM10pKFtDQEhdMltPSF0pW0NAQF0oW0NIM10pKFtPSF0pW0NAQEhdKEMoW0NAQF0yMzQpKE8zKVtDSDNdKVtDQEBIXTVbQ0gyXVtDQEBdNihbT0hdKVtDQEBIXShDKFtDSDNdKShbQ0gzXSlbQ0gyXVtDSDJdW0NAXTYoW0NIM10pW09IXSlbQ0hdKFtPSF0pW0NAQF0oW09IXSkoW1MrXTVbTy1dKVtDQEBdNyhbT0hdKVtDQF00KFtPSF0pQyhbQ0gzXSkoW0NIM10pW0NAQEhdOFtDQEBIXShDNz1PKVtDSDJdW0NAQF0oTzgpKFtDSDNdKVtPSF0=

>  <s_epik_cmdline>  (106) 
J2VwaWtfcHl0aG9uJywgJy1waHQnLCAnMi4wJywgJy1waCcsICc3LjAnLCAnLXRuJywgJzgnLCAnLW1hJywgJzIwMCcsICctaW1hZScsICc8aW5maWxlLm1hZT4nLCAnLW9tYWUnLCAnPG91dGZpbGUubWFlPic=

>  <r_lp_tautomer_probability>  (106) 
1

>  <r_epik_Ionization_Penalty>  (106) 
5.67647e-06

>  <r_epik_Ionization_Penalty_Charging>  (106) 
0

>  <r_epik_Ionization_Penalty_Neutral>  (106) 
5.67647e-06

>  <r_epik_State_Penalty>  (106) 
-0

>  <r_epik_Charging_Adjusted_Penalty>  (106) 
0

>  <i_epik_Tot_Q>  (106) 
0

>  <i_epik_Tot_abs_Q>  (106) 
2

>  <s_epik_Chemistry_Notes>  (106) 
This compound contains an acetal/aminal-like group ( X-CH(R)-Y where X, Y are N, S, or O) that may be acid/base labile, releasing an aldehyde.

>  <s_lp_Force_Field>  (106) 
OPLS3e

>  <r_lp_Energy>  (106) 
225.963

>  <b_lp_Chiralities_Consistent>  (106) 
1

>  <s_lp_Variant>  (106) 
40:0-4

>  <s_i_glide_gridfile>  (106) 
pfpi4k_grid

>  <i_i_glide_lignum>  (106) 
52

>  <i_i_glide_rotatable_bonds>  (106) 
14

>  <r_i_docking_score>  (106) 
-3.32672

>  <r_i_glide_ligand_efficiency>  (106) 
-0.0573573

>  <r_i_glide_ligand_efficiency_sa>  (106) 
-0.222023

>  <r_i_glide_ligand_efficiency_ln>  (106) 
-0.657398

>  <r_i_glide_gscore>  (106) 
-3.32672

>  <r_i_glide_lipo>  (106) 
-0.111405

>  <r_i_glide_hbond>  (106) 
-0.0466068

>  <r_i_glide_metal>  (106) 
-0

>  <r_i_glide_rewards>  (106) 
-0.50769

>  <r_i_glide_evdw>  (106) 
-34.6363

>  <r_i_glide_ecoul>  (106) 
-6.60103

>  <r_i_glide_erotb>  (106) 
0.0605508

>  <r_i_glide_esite>  (106) 
-0.00907338

>  <r_i_glide_emodel>  (106) 
-50.5024

>  <r_i_glide_energy>  (106) 
-41.2373

>  <r_i_glide_einternal>  (106) 
7.11697

>  <r_i_glide_intrahb_reward>  (106) 
-0.5

>  <i_i_glide_confnum>  (106) 
1

>  <i_i_glide_posenum>  (106) 
17

>  <r_i_glide_eff_state_penalty>  (106) 
0

>  <ligand_id>  (106) 
40

>  <original_smiles>  (106) 
CC1OC(OC2(C)C(O)C34OC3(C)C(C3CC5(O)C(C(O)C(O)([S+]3[O-])C3(O)C(=O)C6CC(C)(O)OC6C(C)(C)C34O)C(C)(C)CCC5(C)O)C2(C)O)C(O)C(O)C1O

>  <smiles>  (106) 
[H]OC1([H])C([H])(OC2(C([H])([H])[H])C([H])(O[H])C34OC3(C([H])([H])[H])C([H])(C3([H])S(=O)C(O[H])(C([H])(O[H])C5([H])C(O[H])(C3([H])[H])C(O[H])(C([H])([H])[H])C([H])([H])C([H])([H])C5(C([H])([H])[H])C([H])([H])[H])C3(O[H])C(=O)C5([H])C([H])([H])C(O[H])(C([H])([H])[H])OC5([H])C(C([H])([H])[H])(C([H])([H])[H])C34O[H])C2(O[H])C([H])([H])[H])OC([H])(C([H])([H])[H])C([H])(O[H])C1([H])O[H]

$$$$
40:3:1
     RDKit          3D

120127  0  0  1  0  0  0  0  0999 V2000
    1.5569   -8.3420    1.7062 C   0  0  0  0  0  0  0  0  0  0  0  0
    0.2214   -7.6398    2.0720 C   0  0  2  0  0  0  0  0  0  0  0  0
    0.4767   -6.2767    2.4748 O   0  0  0  0  0  0  0  0  0  0  0  0
    1.2072   -6.1051    3.6832 C   0  0  1  0  0  0  0  0  0  0  0  0
    1.4594   -4.7237    3.9270 O   0  0  0  0  0  0  0  0  0  0  0  0
    2.7988   -4.1473    3.8926 C   0  0  1  0  0  0  0  0  0  0  0  0
    3.7001   -4.9016    2.8607 C   0  0  0  0  0  0  0  0  0  0  0  0
    2.7256   -2.6392    3.4610 C   0  0  1  0  0  0  0  0  0  0  0  0
    2.1972   -2.5363    2.1456 O   0  0  0  0  0  0  0  0  0  0  0  0
    1.9682   -1.6982    4.4956 C   0  0  1  0  0  0  0  0  0  0  0  0
    0.8344   -2.2756    4.7959 O   0  0  0  0  0  0  0  0  0  0  0  0
    1.7260   -2.2792    5.9291 C   0  0  2  0  0  0  0  0  0  0  0  0
    0.6264   -2.8654    6.8024 C   0  0  0  0  0  0  0  0  0  0  0  0
    3.1230   -2.9172    6.1323 C   0  0  1  0  0  0  0  0  0  0  0  0
    3.8848   -2.6376    7.4581 C   0  0  2  0  0  0  0  0  0  0  0  0
    3.2600   -2.8610    8.8508 C   0  0  0  0  0  0  0  0  0  0  0  0
    2.5954   -1.7327    9.7378 C   0  0  1  0  0  0  0  0  0  0  0  0
    3.6731   -1.1332   10.4611 O   0  0  0  0  0  0  0  0  0  0  0  0
    1.8474   -0.5040    8.9976 C   0  0  2  0  0  0  0  0  0  0  0  0
    2.7999    0.5596    8.2607 C   0  0  2  0  0  0  0  0  0  0  0  0
    2.1699    1.7805    8.0480 O   0  0  0  0  0  0  0  0  0  0  0  0
    3.7019    0.3484    6.9726 C   0  0  1  0  0  0  0  0  0  0  0  0
    4.6084    1.4708    7.2358 O   0  0  0  0  0  0  0  0  0  0  0  0
    4.8742   -1.0820    7.2651 S   0  0  0  0  0  0  0  0  0  0  0  0
    5.5858   -0.8629    8.6231 O   0  0  0  0  0  0  0  0  0  0  0  0
    3.2887    0.5949    5.3654 C   0  0  2  0  0  0  0  0  0  0  0  0
    4.4923    0.1766    4.7063 O   0  0  0  0  0  0  0  0  0  0  0  0
    3.1546    2.1253    5.1081 C   0  0  0  0  0  0  0  0  0  0  0  0
    4.1812    2.8463    4.9553 O   0  0  0  0  0  0  0  0  0  0  0  0
    1.7838    2.7630    5.1758 C   0  0  1  0  0  0  0  0  0  0  0  0
    1.6081    4.2387    4.9018 C   0  0  0  0  0  0  0  0  0  0  0  0
    0.0883    4.2767    4.5969 C   0  0  1  0  0  0  0  0  0  0  0  0
   -0.7372    4.5620    5.8468 C   0  0  0  0  0  0  0  0  0  0  0  0
   -0.1985    5.2266    3.6197 O   0  0  0  0  0  0  0  0  0  0  0  0
   -0.2534    2.9680    4.2038 O   0  0  0  0  0  0  0  0  0  0  0  0
    0.9178    2.1522    4.1299 C   0  0  2  0  0  0  0  0  0  0  0  0
    0.6975    0.6451    4.4077 C   0  0  0  0  0  0  0  0  0  0  0  0
   -0.0621    0.4634    5.7277 C   0  0  0  0  0  0  0  0  0  0  0  0
   -0.2371    0.1506    3.2732 C   0  0  0  0  0  0  0  0  0  0  0  0
    2.1166   -0.1153    4.4515 C   0  0  2  0  0  0  0  0  0  0  0  0
    2.5590    0.1096    3.1054 O   0  0  0  0  0  0  0  0  0  0  0  0
    0.8032    0.2556    9.9781 C   0  0  0  0  0  0  0  0  0  0  0  0
    1.4742    1.3137   10.8925 C   0  0  0  0  0  0  0  0  0  0  0  0
   -0.3636    0.9013    9.1909 C   0  0  0  0  0  0  0  0  0  0  0  0
    0.0611   -0.7212   10.9261 C   0  0  0  0  0  0  0  0  0  0  0  0
    1.0071   -1.5470   11.7842 C   0  0  0  0  0  0  0  0  0  0  0  0
    1.7798   -2.5018   10.8709 C   0  0  1  0  0  0  0  0  0  0  0  0
    0.8044   -3.6325   10.4409 C   0  0  0  0  0  0  0  0  0  0  0  0
    2.6668   -3.1940   11.7235 O   0  0  0  0  0  0  0  0  0  0  0  0
    3.3639   -4.2548    5.3715 C   0  0  1  0  0  0  0  0  0  0  0  0
    2.8749   -5.4364    6.2327 C   0  0  0  0  0  0  0  0  0  0  0  0
    4.7618   -4.4843    5.2900 O   0  0  0  0  0  0  0  0  0  0  0  0
    0.4553   -6.7737    4.8681 C   0  0  1  0  0  0  0  0  0  0  0  0
   -0.7053   -6.0959    5.2943 O   0  0  0  0  0  0  0  0  0  0  0  0
    0.1101   -8.2378    4.4998 C   0  0  1  0  0  0  0  0  0  0  0  0
   -0.5787   -8.8732    5.5734 O   0  0  0  0  0  0  0  0  0  0  0  0
   -0.5768   -8.4098    3.1508 C   0  0  1  0  0  0  0  0  0  0  0  0
   -1.9069   -7.9690    3.2120 O   0  0  0  0  0  0  0  0  0  0  0  0
    1.3935   -9.3770    1.3777 H   0  0  0  0  0  0  0  0  0  0  0  0
    2.2883   -8.3636    2.5250 H   0  0  0  0  0  0  0  0  0  0  0  0
    2.0459   -7.8204    0.8795 H   0  0  0  0  0  0  0  0  0  0  0  0
   -0.4096   -7.6064    1.1729 H   0  0  0  0  0  0  0  0  0  0  0  0
    2.1929   -6.5684    3.5685 H   0  0  0  0  0  0  0  0  0  0  0  0
    4.6801   -4.4043    2.7324 H   0  0  0  0  0  0  0  0  0  0  0  0
    3.2724   -4.9015    1.8671 H   0  0  0  0  0  0  0  0  0  0  0  0
    3.8393   -5.9535    3.1030 H   0  0  0  0  0  0  0  0  0  0  0  0
    3.7427   -2.2559    3.3814 H   0  0  0  0  0  0  0  0  0  0  0  0
    2.3323   -1.6397    1.8385 H   0  0  0  0  0  0  0  0  0  0  0  0
    0.9348   -3.0414    7.8193 H   0  0  0  0  0  0  0  0  0  0  0  0
    0.2612   -3.8087    6.4016 H   0  0  0  0  0  0  0  0  0  0  0  0
   -0.2259   -2.1957    6.8489 H   0  0  0  0  0  0  0  0  0  0  0  0
    3.8230   -2.3341    5.5440 H   0  0  0  0  0  0  0  0  0  0  0  0
    4.6655   -3.3914    7.4658 H   0  0  0  0  0  0  0  0  0  0  0  0
    2.6210   -3.7185    8.7235 H   0  0  0  0  0  0  0  0  0  0  0  0
    4.0584   -3.2893    9.4647 H   0  0  0  0  0  0  0  0  0  0  0  0
    4.3399   -0.8348    9.8370 H   0  0  0  0  0  0  0  0  0  0  0  0
    1.2278   -0.9276    8.2303 H   0  0  0  0  0  0  0  0  0  0  0  0
    3.5000    0.8286    9.0737 H   0  0  0  0  0  0  0  0  0  0  0  0
    2.8896    2.4071    7.9347 H   0  0  0  0  0  0  0  0  0  0  0  0
    4.7215    1.9640    6.4003 H   0  0  0  0  0  0  0  0  0  0  0  0
    4.3398    0.3607    3.7657 H   0  0  0  0  0  0  0  0  0  0  0  0
    1.3211    2.5609    6.1370 H   0  0  0  0  0  0  0  0  0  0  0  0
    1.8605    4.8543    5.7677 H   0  0  0  0  0  0  0  0  0  0  0  0
    2.1983    4.5711    4.0460 H   0  0  0  0  0  0  0  0  0  0  0  0
   -1.7862    4.5218    5.5672 H   0  0  0  0  0  0  0  0  0  0  0  0
   -0.5142    5.5506    6.2582 H   0  0  0  0  0  0  0  0  0  0  0  0
   -0.5670    3.8076    6.6257 H   0  0  0  0  0  0  0  0  0  0  0  0
    0.1759    4.9707    2.7699 H   0  0  0  0  0  0  0  0  0  0  0  0
    1.3405    2.3378    3.1446 H   0  0  0  0  0  0  0  0  0  0  0  0
   -0.6745   -0.4340    5.7132 H   0  0  0  0  0  0  0  0  0  0  0  0
   -0.7474    1.2950    5.9144 H   0  0  0  0  0  0  0  0  0  0  0  0
    0.6199    0.4066    6.5635 H   0  0  0  0  0  0  0  0  0  0  0  0
   -0.3942   -0.9236    3.3024 H   0  0  0  0  0  0  0  0  0  0  0  0
    0.1159    0.4103    2.2795 H   0  0  0  0  0  0  0  0  0  0  0  0
   -1.2177    0.6114    3.3834 H   0  0  0  0  0  0  0  0  0  0  0  0
    1.7922   -0.0135    2.5464 H   0  0  0  0  0  0  0  0  0  0  0  0
    0.8357    1.5562   11.7422 H   0  0  0  0  0  0  0  0  0  0  0  0
    1.6597    2.2585   10.3792 H   0  0  0  0  0  0  0  0  0  0  0  0
    2.4196    0.9666   11.2956 H   0  0  0  0  0  0  0  0  0  0  0  0
   -1.1252    1.2737    9.8752 H   0  0  0  0  0  0  0  0  0  0  0  0
   -0.8360    0.1729    8.5393 H   0  0  0  0  0  0  0  0  0  0  0  0
   -0.0919    1.7568    8.5802 H   0  0  0  0  0  0  0  0  0  0  0  0
   -0.5951   -0.1607   11.5898 H   0  0  0  0  0  0  0  0  0  0  0  0
   -0.6067   -1.3608   10.3548 H   0  0  0  0  0  0  0  0  0  0  0  0
    1.6768   -0.9126   12.3535 H   0  0  0  0  0  0  0  0  0  0  0  0
    0.4354   -2.1065   12.5247 H   0  0  0  0  0  0  0  0  0  0  0  0
    0.0598   -3.3128    9.7178 H   0  0  0  0  0  0  0  0  0  0  0  0
    0.2511   -3.9984   11.3073 H   0  0  0  0  0  0  0  0  0  0  0  0
    1.3101   -4.5164   10.0550 H   0  0  0  0  0  0  0  0  0  0  0  0
    3.2490   -2.5263   12.1005 H   0  0  0  0  0  0  0  0  0  0  0  0
    1.8300   -5.3450    6.4164 H   0  0  0  0  0  0  0  0  0  0  0  0
    3.3846   -5.4673    7.2056 H   0  0  0  0  0  0  0  0  0  0  0  0
    3.0394   -6.3656    5.7206 H   0  0  0  0  0  0  0  0  0  0  0  0
    4.8764   -5.3715    4.9425 H   0  0  0  0  0  0  0  0  0  0  0  0
    1.1092   -6.8299    5.6919 H   0  0  0  0  0  0  0  0  0  0  0  0
   -1.1083   -6.6127    6.0101 H   0  0  0  0  0  0  0  0  0  0  0  0
    1.0553   -8.7505    4.4082 H   0  0  0  0  0  0  0  0  0  0  0  0
   -0.8868   -9.7538    5.3131 H   0  0  0  0  0  0  0  0  0  0  0  0
   -0.6433   -9.4665    2.8853 H   0  0  0  0  0  0  0  0  0  0  0  0
   -2.3144   -8.4084    3.9648 H   0  0  0  0  0  0  0  0  0  0  0  0
  1  2  1  0
  1 59  1  0
  1 60  1  0
  1 61  1  0
  2 57  1  0
  2  3  1  0
  2 62  1  6
  3  4  1  0
  4  5  1  0
  4 53  1  0
  4 63  1  6
  6  5  1  1
  6 50  1  0
  6  7  1  0
  6  8  1  0
  7 64  1  0
  7 65  1  0
  7 66  1  0
  8  9  1  0
  8 10  1  0
  8 67  1  6
  9 68  1  0
 10 12  1  0
 10 40  1  0
 10 11  1  6
 11 12  1  0
 12 13  1  1
 12 14  1  0
 13 69  1  0
 13 70  1  0
 13 71  1  0
 14 15  1  0
 14 50  1  0
 14 72  1  6
 15 24  1  0
 15 16  1  0
 15 73  1  1
 16 17  1  0
 16 74  1  0
 16 75  1  0
 17 47  1  0
 17 18  1  1
 17 19  1  0
 18 76  1  0
 19 20  1  0
 19 42  1  0
 19 77  1  6
 20 21  1  0
 20 22  1  0
 20 78  1  1
 21 79  1  0
 22 23  1  1
 24 22  1  1
 22 26  1  0
 23 80  1  0
 24 25  2  0
 26 40  1  0
 26 27  1  6
 26 28  1  0
 27 81  1  0
 28 29  2  0
 28 30  1  0
 30 36  1  0
 30 31  1  0
 30 82  1  1
 31 32  1  0
 31 83  1  0
 31 84  1  0
 32 33  1  0
 32 34  1  6
 32 35  1  0
 33 85  1  0
 33 86  1  0
 33 87  1  0
 34 88  1  0
 35 36  1  0
 36 37  1  0
 36 89  1  6
 37 38  1  0
 37 39  1  0
 37 40  1  0
 38 90  1  0
 38 91  1  0
 38 92  1  0
 39 93  1  0
 39 94  1  0
 39 95  1  0
 40 41  1  6
 41 96  1  0
 42 43  1  0
 42 44  1  0
 42 45  1  0
 43 97  1  0
 43 98  1  0
 43 99  1  0
 44100  1  0
 44101  1  0
 44102  1  0
 45 46  1  0
 45103  1  0
 45104  1  0
 46 47  1  0
 46105  1  0
 46106  1  0
 47 48  1  0
 47 49  1  1
 48107  1  0
 48108  1  0
 48109  1  0
 49110  1  0
 50 51  1  0
 50 52  1  6
 51111  1  0
 51112  1  0
 51113  1  0
 52114  1  0
 53 54  1  0
 53 55  1  0
 53115  1  1
 54116  1  0
 55 56  1  0
 55 57  1  0
 55117  1  6
 56118  1  0
 57 58  1  0
 57119  1  6
 58120  1  0
M  END
>  <i_m_ct_stereo_status>  (107) 
1

>  <s_m_source_file>  (107) 
/var/tmp/pbs.5075288.sched01/tmpq0rgj53d/65gxdktgdh.sdf

>  <i_m_source_file_index>  (107) 
52

>  <i_lp_mmshare_version>  (107) 
48012

>  <i_f3d_flags>  (107) 
0

>  <s_epik_input>  (107) 
W09IXVtDQEBIXTFbQ0BIXShbT0hdKVtDQEhdKFtPSF0pW0NAQEhdKE9bQ0BIXTFbQ0gzXSlPW0NAQF0oW0NIM10pKFtDQEhdMltPSF0pW0NAQF0oW0NIM10pKFtPSF0pW0NAQEhdKEMoW0NAQF0yMzQpKE8zKVtDSDNdKVtDQEBIXTVbQ0gyXVtDQEBdNihbT0hdKVtDQEBIXShDKFtDSDNdKShbQ0gzXSlbQ0gyXVtDSDJdW0NAXTYoW0NIM10pW09IXSlbQ0hdKFtPSF0pW0NAQF0oW09IXSkoW1MrXTVbTy1dKVtDQEBdNyhbT0hdKVtDQF00KFtPSF0pQyhbQ0gzXSkoW0NIM10pW0NAQEhdOFtDQEBIXShDNz1PKVtDSDJdW0NAQF0oTzgpKFtDSDNdKVtPSF0=

>  <s_epik_cmdline>  (107) 
J2VwaWtfcHl0aG9uJywgJy1waHQnLCAnMi4wJywgJy1waCcsICc3LjAnLCAnLXRuJywgJzgnLCAnLW1hJywgJzIwMCcsICctaW1hZScsICc8aW5maWxlLm1hZT4nLCAnLW9tYWUnLCAnPG91dGZpbGUubWFlPic=

>  <r_lp_tautomer_probability>  (107) 
1

>  <r_epik_Ionization_Penalty>  (107) 
5.67647e-06

>  <r_epik_Ionization_Penalty_Charging>  (107) 
0

>  <r_epik_Ionization_Penalty_Neutral>  (107) 
5.67647e-06

>  <r_epik_State_Penalty>  (107) 
-0

>  <r_epik_Charging_Adjusted_Penalty>  (107) 
0

>  <i_epik_Tot_Q>  (107) 
0

>  <i_epik_Tot_abs_Q>  (107) 
2

>  <s_epik_Chemistry_Notes>  (107) 
This compound contains an acetal/aminal-like group ( X-CH(R)-Y where X, Y are N, S, or O) that may be acid/base labile, releasing an aldehyde.

>  <s_lp_Force_Field>  (107) 
OPLS3e

>  <r_lp_Energy>  (107) 
225.963

>  <b_lp_Chiralities_Consistent>  (107) 
1

>  <s_lp_Variant>  (107) 
40:0-4

>  <s_i_glide_gridfile>  (107) 
pfpi4k_grid

>  <i_i_glide_lignum>  (107) 
52

>  <i_i_glide_rotatable_bonds>  (107) 
14

>  <r_i_docking_score>  (107) 
-3.31816

>  <r_i_glide_ligand_efficiency>  (107) 
-0.0572097

>  <r_i_glide_ligand_efficiency_sa>  (107) 
-0.221452

>  <r_i_glide_ligand_efficiency_ln>  (107) 
-0.655706

>  <r_i_glide_gscore>  (107) 
-3.31816

>  <r_i_glide_lipo>  (107) 
-0.000580181

>  <r_i_glide_hbond>  (107) 
-0.0664279

>  <r_i_glide_metal>  (107) 
-0

>  <r_i_glide_rewards>  (107) 
-0.5

>  <r_i_glide_evdw>  (107) 
-35.0889

>  <r_i_glide_ecoul>  (107) 
-7.8481

>  <r_i_glide_erotb>  (107) 
0.0605508

>  <r_i_glide_esite>  (107) 
-0.0563526

>  <r_i_glide_emodel>  (107) 
-50.5441

>  <r_i_glide_energy>  (107) 
-42.937

>  <r_i_glide_einternal>  (107) 
10.2237

>  <r_i_glide_intrahb_reward>  (107) 
-0.5

>  <i_i_glide_confnum>  (107) 
1

>  <i_i_glide_posenum>  (107) 
25

>  <r_i_glide_eff_state_penalty>  (107) 
0

>  <ligand_id>  (107) 
40

>  <original_smiles>  (107) 
CC1OC(OC2(C)C(O)C34OC3(C)C(C3CC5(O)C(C(O)C(O)([S+]3[O-])C3(O)C(=O)C6CC(C)(O)OC6C(C)(C)C34O)C(C)(C)CCC5(C)O)C2(C)O)C(O)C(O)C1O

>  <smiles>  (107) 
[H]OC1([H])C([H])(OC2(C([H])([H])[H])C([H])(O[H])C34OC3(C([H])([H])[H])C([H])(C3([H])S(=O)C(O[H])(C([H])(O[H])C5([H])C(O[H])(C3([H])[H])C(O[H])(C([H])([H])[H])C([H])([H])C([H])([H])C5(C([H])([H])[H])C([H])([H])[H])C3(O[H])C(=O)C5([H])C([H])([H])C(O[H])(C([H])([H])[H])OC5([H])C(C([H])([H])[H])(C([H])([H])[H])C34O[H])C2(O[H])C([H])([H])[H])OC([H])(C([H])([H])[H])C([H])(O[H])C1([H])O[H]

$$$$
40:3:2
     RDKit          3D

120127  0  0  1  0  0  0  0  0999 V2000
    4.3253   -4.8890    0.2796 C   0  0  0  0  0  0  0  0  0  0  0  0
    2.7738   -4.8981    0.4303 C   0  0  2  0  0  0  0  0  0  0  0  0
    2.2691   -3.8063    1.2211 O   0  0  0  0  0  0  0  0  0  0  0  0
    2.7355   -3.7514    2.5513 C   0  0  1  0  0  0  0  0  0  0  0  0
    2.2276   -2.5907    3.1652 O   0  0  0  0  0  0  0  0  0  0  0  0
    2.8845   -1.3003    2.9365 C   0  0  1  0  0  0  0  0  0  0  0  0
    3.1816   -1.1586    1.4133 C   0  0  0  0  0  0  0  0  0  0  0  0
    1.8758   -0.1342    3.3636 C   0  0  1  0  0  0  0  0  0  0  0  0
    0.6566   -0.2451    2.6381 O   0  0  0  0  0  0  0  0  0  0  0  0
    1.6325   -0.0246    4.9093 C   0  0  1  0  0  0  0  0  0  0  0  0
    1.3755   -1.2589    5.3497 O   0  0  0  0  0  0  0  0  0  0  0  0
    2.6602   -0.7864    5.8456 C   0  0  2  0  0  0  0  0  0  0  0  0
    2.7943   -2.0431    6.6925 C   0  0  0  0  0  0  0  0  0  0  0  0
    3.9568   -0.3995    5.1090 C   0  0  1  0  0  0  0  0  0  0  0  0
    5.1306    0.1837    5.9405 C   0  0  2  0  0  0  0  0  0  0  0  0
    5.7265   -0.5245    7.1765 C   0  0  0  0  0  0  0  0  0  0  0  0
    5.3400   -0.2016    8.6734 C   0  0  1  0  0  0  0  0  0  0  0  0
    6.1701    0.8917    9.0623 O   0  0  0  0  0  0  0  0  0  0  0  0
    3.8361    0.2980    9.0150 C   0  0  2  0  0  0  0  0  0  0  0  0
    3.4789    1.8044    8.5599 C   0  0  2  0  0  0  0  0  0  0  0  0
    2.3840    2.3376    9.2694 O   0  0  0  0  0  0  0  0  0  0  0  0
    3.3368    2.3678    7.0711 C   0  0  1  0  0  0  0  0  0  0  0  0
    3.5366    3.7692    7.4042 O   0  0  0  0  0  0  0  0  0  0  0  0
    4.9105    2.0157    6.1235 S   0  0  0  0  0  0  0  0  0  0  0  0
    6.1094    2.5076    6.9503 O   0  0  0  0  0  0  0  0  0  0  0  0
    1.9651    2.4401    6.1138 C   0  0  2  0  0  0  0  0  0  0  0  0
    2.5165    2.9667    4.8951 O   0  0  0  0  0  0  0  0  0  0  0  0
    0.9972    3.5326    6.6912 C   0  0  0  0  0  0  0  0  0  0  0  0
    1.1435    4.7369    6.4008 O   0  0  0  0  0  0  0  0  0  0  0  0
   -0.0965    3.0925    7.6559 C   0  0  1  0  0  0  0  0  0  0  0  0
   -1.0553    4.1005    8.2403 C   0  0  0  0  0  0  0  0  0  0  0  0
   -2.1961    3.1683    8.6745 C   0  0  1  0  0  0  0  0  0  0  0  0
   -2.1028    2.7152   10.1295 C   0  0  0  0  0  0  0  0  0  0  0  0
   -3.4033    3.8415    8.4853 O   0  0  0  0  0  0  0  0  0  0  0  0
   -2.0980    2.0204    7.8699 O   0  0  0  0  0  0  0  0  0  0  0  0
   -1.0332    2.1749    6.9330 C   0  0  2  0  0  0  0  0  0  0  0  0
   -0.2990    0.8742    6.4984 C   0  0  0  0  0  0  0  0  0  0  0  0
    0.1431    0.1047    7.7579 C   0  0  0  0  0  0  0  0  0  0  0  0
   -1.3675    0.0119    5.7675 C   0  0  0  0  0  0  0  0  0  0  0  0
    0.9542    1.2426    5.5638 C   0  0  2  0  0  0  0  0  0  0  0  0
    0.2720    1.8991    4.4708 O   0  0  0  0  0  0  0  0  0  0  0  0
    3.4554    0.0681   10.5624 C   0  0  0  0  0  0  0  0  0  0  0  0
    3.9589    1.2063   11.4961 C   0  0  0  0  0  0  0  0  0  0  0  0
    1.9312   -0.1441   10.7598 C   0  0  0  0  0  0  0  0  0  0  0  0
    4.0344   -1.2414   11.1393 C   0  0  0  0  0  0  0  0  0  0  0  0
    5.5506   -1.3313   11.0052 C   0  0  0  0  0  0  0  0  0  0  0  0
    5.8993   -1.4346    9.5236 C   0  0  1  0  0  0  0  0  0  0  0  0
    5.5423   -2.8790    9.0609 C   0  0  0  0  0  0  0  0  0  0  0  0
    7.3183   -1.4505    9.4737 O   0  0  0  0  0  0  0  0  0  0  0  0
    4.2309   -1.1939    3.8032 C   0  0  1  0  0  0  0  0  0  0  0  0
    5.0261   -2.4947    4.0973 C   0  0  0  0  0  0  0  0  0  0  0  0
    5.1676   -0.4324    3.0471 O   0  0  0  0  0  0  0  0  0  0  0  0
    2.2176   -5.0228    3.3290 C   0  0  1  0  0  0  0  0  0  0  0  0
    0.8297   -5.0302    3.6936 O   0  0  0  0  0  0  0  0  0  0  0  0
    2.6273   -6.2638    2.5222 C   0  0  1  0  0  0  0  0  0  0  0  0
    2.1377   -7.4497    3.0947 O   0  0  0  0  0  0  0  0  0  0  0  0
    2.2611   -6.2112    1.0350 C   0  0  1  0  0  0  0  0  0  0  0  0
    0.8637   -6.3409    0.8050 O   0  0  0  0  0  0  0  0  0  0  0  0
    4.6703   -5.7202   -0.3634 H   0  0  0  0  0  0  0  0  0  0  0  0
    4.8569   -4.9200    1.2377 H   0  0  0  0  0  0  0  0  0  0  0  0
    4.6540   -3.9739   -0.2166 H   0  0  0  0  0  0  0  0  0  0  0  0
    2.3298   -4.8114   -0.5569 H   0  0  0  0  0  0  0  0  0  0  0  0
    3.7616   -3.6912    2.5177 H   0  0  0  0  0  0  0  0  0  0  0  0
    3.5550   -0.1724    1.1232 H   0  0  0  0  0  0  0  0  0  0  0  0
    2.2656   -1.3135    0.8578 H   0  0  0  0  0  0  0  0  0  0  0  0
    3.9178   -1.8749    1.0445 H   0  0  0  0  0  0  0  0  0  0  0  0
    2.3148    0.8181    3.0317 H   0  0  0  0  0  0  0  0  0  0  0  0
    0.8442   -0.1407    1.7169 H   0  0  0  0  0  0  0  0  0  0  0  0
    3.7039   -2.0726    7.2681 H   0  0  0  0  0  0  0  0  0  0  0  0
    2.7595   -2.9444    6.0767 H   0  0  0  0  0  0  0  0  0  0  0  0
    1.9784   -2.1123    7.4067 H   0  0  0  0  0  0  0  0  0  0  0  0
    3.7593    0.5508    4.6300 H   0  0  0  0  0  0  0  0  0  0  0  0
    5.9751    0.1436    5.2554 H   0  0  0  0  0  0  0  0  0  0  0  0
    5.6380   -1.5788    6.9380 H   0  0  0  0  0  0  0  0  0  0  0  0
    6.8111   -0.3802    7.1039 H   0  0  0  0  0  0  0  0  0  0  0  0
    6.0800    1.5981    8.4276 H   0  0  0  0  0  0  0  0  0  0  0  0
    3.1703   -0.3532    8.4741 H   0  0  0  0  0  0  0  0  0  0  0  0
    4.2999    2.3826    8.9906 H   0  0  0  0  0  0  0  0  0  0  0  0
    1.6141    1.8731    8.9989 H   0  0  0  0  0  0  0  0  0  0  0  0
    2.9574    4.2957    6.8656 H   0  0  0  0  0  0  0  0  0  0  0  0
    1.7840    3.3148    4.4037 H   0  0  0  0  0  0  0  0  0  0  0  0
    0.3108    2.5466    8.4968 H   0  0  0  0  0  0  0  0  0  0  0  0
   -0.6413    4.6405    9.0884 H   0  0  0  0  0  0  0  0  0  0  0  0
   -1.3843    4.8238    7.4897 H   0  0  0  0  0  0  0  0  0  0  0  0
   -2.9359    2.0547   10.3501 H   0  0  0  0  0  0  0  0  0  0  0  0
   -2.1519    3.5646   10.8109 H   0  0  0  0  0  0  0  0  0  0  0  0
   -1.1698    2.1713   10.2932 H   0  0  0  0  0  0  0  0  0  0  0  0
   -4.0761    3.4011    8.9738 H   0  0  0  0  0  0  0  0  0  0  0  0
   -1.4750    2.6970    6.0823 H   0  0  0  0  0  0  0  0  0  0  0  0
    0.1686   -0.9645    7.5739 H   0  0  0  0  0  0  0  0  0  0  0  0
   -0.5450    0.2652    8.5887 H   0  0  0  0  0  0  0  0  0  0  0  0
    1.1290    0.4196    8.0766 H   0  0  0  0  0  0  0  0  0  0  0  0
   -0.9741   -0.9024    5.3317 H   0  0  0  0  0  0  0  0  0  0  0  0
   -1.8799    0.5635    4.9793 H   0  0  0  0  0  0  0  0  0  0  0  0
   -2.1323   -0.2814    6.4779 H   0  0  0  0  0  0  0  0  0  0  0  0
    0.7871    1.8469    3.6795 H   0  0  0  0  0  0  0  0  0  0  0  0
    3.9869    0.8810   12.5349 H   0  0  0  0  0  0  0  0  0  0  0  0
    3.3217    2.0879   11.4762 H   0  0  0  0  0  0  0  0  0  0  0  0
    4.9660    1.5273   11.2385 H   0  0  0  0  0  0  0  0  0  0  0  0
    1.7172   -0.4496   11.7823 H   0  0  0  0  0  0  0  0  0  0  0  0
    1.5612   -0.9375   10.1108 H   0  0  0  0  0  0  0  0  0  0  0  0
    1.3190    0.7352   10.5953 H   0  0  0  0  0  0  0  0  0  0  0  0
    3.7833   -1.3251   12.1961 H   0  0  0  0  0  0  0  0  0  0  0  0
    3.5511   -2.1016   10.6748 H   0  0  0  0  0  0  0  0  0  0  0  0
    6.0395   -0.4728   11.4618 H   0  0  0  0  0  0  0  0  0  0  0  0
    5.9223   -2.1992   11.5577 H   0  0  0  0  0  0  0  0  0  0  0  0
    4.4717   -3.0499    8.9710 H   0  0  0  0  0  0  0  0  0  0  0  0
    5.9015   -3.6136    9.7844 H   0  0  0  0  0  0  0  0  0  0  0  0
    6.0193   -3.1674    8.1253 H   0  0  0  0  0  0  0  0  0  0  0  0
    7.6125   -2.1883    9.9799 H   0  0  0  0  0  0  0  0  0  0  0  0
    4.4061   -3.2172    4.6158 H   0  0  0  0  0  0  0  0  0  0  0  0
    5.8286   -2.2773    4.8379 H   0  0  0  0  0  0  0  0  0  0  0  0
    5.3424   -2.9864    3.1899 H   0  0  0  0  0  0  0  0  0  0  0  0
    5.3765   -0.9248    2.2686 H   0  0  0  0  0  0  0  0  0  0  0  0
    2.7461   -4.9728    4.2636 H   0  0  0  0  0  0  0  0  0  0  0  0
    0.6244   -4.1395    3.9215 H   0  0  0  0  0  0  0  0  0  0  0  0
    3.7109   -6.3464    2.5891 H   0  0  0  0  0  0  0  0  0  0  0  0
    1.2096   -7.3227    3.2076 H   0  0  0  0  0  0  0  0  0  0  0  0
    2.7209   -7.0577    0.5286 H   0  0  0  0  0  0  0  0  0  0  0  0
    0.5684   -7.1590    1.1805 H   0  0  0  0  0  0  0  0  0  0  0  0
  1  2  1  0
  1 59  1  0
  1 60  1  0
  1 61  1  0
  2 57  1  0
  2  3  1  0
  2 62  1  6
  3  4  1  0
  4  5  1  0
  4 53  1  0
  4 63  1  6
  6  5  1  6
  6 50  1  0
  6  7  1  0
  6  8  1  0
  7 64  1  0
  7 65  1  0
  7 66  1  0
  8  9  1  0
  8 10  1  0
  8 67  1  6
  9 68  1  0
 10 12  1  0
 10 40  1  0
 10 11  1  6
 11 12  1  0
 12 13  1  1
 12 14  1  0
 13 69  1  0
 13 70  1  0
 13 71  1  0
 14 15  1  0
 14 50  1  0
 14 72  1  6
 15 24  1  0
 15 16  1  0
 15 73  1  6
 16 17  1  0
 16 74  1  0
 16 75  1  0
 17 47  1  0
 17 18  1  1
 17 19  1  0
 18 76  1  0
 19 20  1  0
 19 42  1  0
 19 77  1  6
 20 21  1  0
 20 22  1  0
 20 78  1  1
 21 79  1  0
 22 23  1  1
 24 22  1  1
 22 26  1  0
 23 80  1  0
 24 25  2  0
 26 40  1  0
 26 27  1  6
 26 28  1  0
 27 81  1  0
 28 29  2  0
 28 30  1  0
 30 36  1  0
 30 31  1  0
 30 82  1  1
 31 32  1  0
 31 83  1  0
 31 84  1  0
 32 33  1  0
 32 34  1  1
 32 35  1  0
 33 85  1  0
 33 86  1  0
 33 87  1  0
 34 88  1  0
 35 36  1  0
 36 37  1  0
 36 89  1  6
 37 38  1  0
 37 39  1  0
 37 40  1  0
 38 90  1  0
 38 91  1  0
 38 92  1  0
 39 93  1  0
 39 94  1  0
 39 95  1  0
 40 41  1  6
 41 96  1  0
 42 43  1  0
 42 44  1  0
 42 45  1  0
 43 97  1  0
 43 98  1  0
 43 99  1  0
 44100  1  0
 44101  1  0
 44102  1  0
 45 46  1  0
 45103  1  0
 45104  1  0
 46 47  1  0
 46105  1  0
 46106  1  0
 47 48  1  0
 47 49  1  1
 48107  1  0
 48108  1  0
 48109  1  0
 49110  1  0
 50 51  1  0
 50 52  1  6
 51111  1  0
 51112  1  0
 51113  1  0
 52114  1  0
 53 54  1  0
 53 55  1  0
 53115  1  1
 54116  1  0
 55 56  1  0
 55 57  1  0
 55117  1  6
 56118  1  0
 57 58  1  0
 57119  1  6
 58120  1  0
M  END
>  <i_m_ct_stereo_status>  (108) 
1

>  <s_m_source_file>  (108) 
/var/tmp/pbs.5075288.sched01/tmpq0rgj53d/65gxdktgdh.sdf

>  <i_m_source_file_index>  (108) 
52

>  <i_lp_mmshare_version>  (108) 
48012

>  <i_f3d_flags>  (108) 
0

>  <s_epik_input>  (108) 
W09IXVtDQEBIXTFbQ0BIXShbT0hdKVtDQEhdKFtPSF0pW0NAQEhdKE9bQ0BIXTFbQ0gzXSlPW0NAQF0oW0NIM10pKFtDQEhdMltPSF0pW0NAQF0oW0NIM10pKFtPSF0pW0NAQEhdKEMoW0NAQF0yMzQpKE8zKVtDSDNdKVtDQEBIXTVbQ0gyXVtDQEBdNihbT0hdKVtDQEBIXShDKFtDSDNdKShbQ0gzXSlbQ0gyXVtDSDJdW0NAXTYoW0NIM10pW09IXSlbQ0hdKFtPSF0pW0NAQF0oW09IXSkoW1MrXTVbTy1dKVtDQEBdNyhbT0hdKVtDQF00KFtPSF0pQyhbQ0gzXSkoW0NIM10pW0NAQEhdOFtDQEBIXShDNz1PKVtDSDJdW0NAQF0oTzgpKFtDSDNdKVtPSF0=

>  <s_epik_cmdline>  (108) 
J2VwaWtfcHl0aG9uJywgJy1waHQnLCAnMi4wJywgJy1waCcsICc3LjAnLCAnLXRuJywgJzgnLCAnLW1hJywgJzIwMCcsICctaW1hZScsICc8aW5maWxlLm1hZT4nLCAnLW9tYWUnLCAnPG91dGZpbGUubWFlPic=

>  <r_lp_tautomer_probability>  (108) 
1

>  <r_epik_Ionization_Penalty>  (108) 
5.67647e-06

>  <r_epik_Ionization_Penalty_Charging>  (108) 
0

>  <r_epik_Ionization_Penalty_Neutral>  (108) 
5.67647e-06

>  <r_epik_State_Penalty>  (108) 
-0

>  <r_epik_Charging_Adjusted_Penalty>  (108) 
0

>  <i_epik_Tot_Q>  (108) 
0

>  <i_epik_Tot_abs_Q>  (108) 
2

>  <s_epik_Chemistry_Notes>  (108) 
This compound contains an acetal/aminal-like group ( X-CH(R)-Y where X, Y are N, S, or O) that may be acid/base labile, releasing an aldehyde.

>  <s_lp_Force_Field>  (108) 
OPLS3e

>  <r_lp_Energy>  (108) 
225.963

>  <b_lp_Chiralities_Consistent>  (108) 
1

>  <s_lp_Variant>  (108) 
40:0-4

>  <s_i_glide_gridfile>  (108) 
pfpi4k_grid

>  <i_i_glide_lignum>  (108) 
52

>  <i_i_glide_rotatable_bonds>  (108) 
14

>  <r_i_docking_score>  (108) 
-3.06209

>  <r_i_glide_ligand_efficiency>  (108) 
-0.0527946

>  <r_i_glide_ligand_efficiency_sa>  (108) 
-0.204361

>  <r_i_glide_ligand_efficiency_ln>  (108) 
-0.605103

>  <r_i_glide_gscore>  (108) 
-3.06209

>  <r_i_glide_lipo>  (108) 
-0.115107

>  <r_i_glide_hbond>  (108) 
0

>  <r_i_glide_metal>  (108) 
-0

>  <r_i_glide_rewards>  (108) 
-0.506528

>  <r_i_glide_evdw>  (108) 
-35.8386

>  <r_i_glide_ecoul>  (108) 
-6.2671

>  <r_i_glide_erotb>  (108) 
0.0605508

>  <r_i_glide_esite>  (108) 
-0.00847866

>  <r_i_glide_emodel>  (108) 
-50.6998

>  <r_i_glide_energy>  (108) 
-42.1057

>  <r_i_glide_einternal>  (108) 
6.37269

>  <r_i_glide_intrahb_reward>  (108) 
-0.5

>  <i_i_glide_confnum>  (108) 
1

>  <i_i_glide_posenum>  (108) 
13

>  <r_i_glide_eff_state_penalty>  (108) 
0

>  <ligand_id>  (108) 
40

>  <original_smiles>  (108) 
CC1OC(OC2(C)C(O)C34OC3(C)C(C3CC5(O)C(C(O)C(O)([S+]3[O-])C3(O)C(=O)C6CC(C)(O)OC6C(C)(C)C34O)C(C)(C)CCC5(C)O)C2(C)O)C(O)C(O)C1O

>  <smiles>  (108) 
[H]OC1([H])C([H])(OC2(C([H])([H])[H])C([H])(O[H])C34OC3(C([H])([H])[H])C([H])(C3([H])S(=O)C(O[H])(C([H])(O[H])C5([H])C(O[H])(C3([H])[H])C(O[H])(C([H])([H])[H])C([H])([H])C([H])([H])C5(C([H])([H])[H])C([H])([H])[H])C3(O[H])C(=O)C5([H])C([H])([H])C(O[H])(C([H])([H])[H])OC5([H])C(C([H])([H])[H])(C([H])([H])[H])C34O[H])C2(O[H])C([H])([H])[H])OC([H])(C([H])([H])[H])C([H])(O[H])C1([H])O[H]

$$$$
41:0:0
     RDKit          3D

101106  0  0  1  0  0  0  0  0999 V2000
    2.1028    0.4470    2.2598 C   0  0  0  0  0  0  0  0  0  0  0  0
    2.3316   -0.9662    1.6943 C   0  0  0  0  0  0  0  0  0  0  0  0
    3.4634   -1.7320    2.3877 C   0  0  0  0  0  0  0  0  0  0  0  0
    3.9655   -1.3403    3.4431 O   0  0  0  0  0  0  0  0  0  0  0  0
    3.8329   -2.8493    1.7116 O   0  0  0  0  0  0  0  0  0  0  0  0
    4.9136   -3.6711    2.1698 C   0  0  2  0  0  0  0  0  0  0  0  0
    6.1860   -2.9218    1.6761 C   0  0  0  0  0  0  0  0  0  0  0  0
    4.7700   -5.2079    1.7493 C   0  0  1  0  0  0  0  0  0  0  0  0
    5.0528   -5.1926    0.1953 C   0  0  0  0  0  0  0  0  0  0  0  0
    5.7883   -6.1961    2.5557 C   0  0  0  0  0  0  0  0  0  0  0  0
    6.7108   -6.9360    1.5172 C   0  0  0  0  0  0  0  0  0  0  0  0
    6.9195   -5.4898    3.3749 C   0  0  0  0  0  0  0  0  0  0  0  0
    4.9127   -7.2150    3.5005 C   0  0  2  0  0  0  0  0  0  0  0  0
    5.7591   -8.6574    3.5367 C   0  0  0  0  0  0  0  0  0  0  0  0
    5.1557   -9.8086    4.4467 C   0  0  1  0  0  0  0  0  0  0  0  0
    4.3001   -9.7389    3.3979 O   0  0  0  0  0  0  0  0  0  0  0  0
    4.7533  -11.3293    4.2697 C   0  0  0  0  0  0  0  0  0  0  0  0
    3.2442  -11.6624    4.6971 C   0  0  0  0  0  0  0  0  0  0  0  0
    2.0144  -10.7922    4.1804 C   0  0  0  0  0  0  0  0  0  0  0  0
    1.8278  -11.1626    2.6984 C   0  0  0  0  0  0  0  0  0  0  0  0
    0.7772  -11.5121    4.7527 C   0  0  0  0  0  0  0  0  0  0  0  0
    2.0093   -9.1504    4.5051 C   0  0  2  0  0  0  0  0  0  0  0  0
    2.1416   -8.0722    3.2749 C   0  0  1  0  0  0  0  0  0  0  0  0
    0.9654   -7.2313    3.2993 O   0  0  0  0  0  0  0  0  0  0  0  0
   -0.3554   -7.5765    2.9429 C   0  0  0  0  0  0  0  0  0  0  0  0
   -0.6151   -9.0245    2.6144 C   0  0  0  0  0  0  0  0  0  0  0  0
   -1.2275   -6.7466    2.7810 O   0  0  0  0  0  0  0  0  0  0  0  0
    3.4876   -7.2719    2.6948 C   0  0  2  0  0  0  0  0  0  0  0  0
    3.8120   -7.9965    1.5081 O   0  0  0  0  0  0  0  0  0  0  0  0
    3.2972   -5.8330    2.0223 C   0  0  1  0  0  0  0  0  0  0  0  0
    2.6680   -5.0590    3.0105 O   0  0  0  0  0  0  0  0  0  0  0  0
    2.2996   -5.6860    0.8074 C   0  0  0  0  0  0  0  0  0  0  0  0
    1.2627   -6.7390    0.4812 C   0  0  0  0  0  0  0  0  0  0  0  0
    2.2320   -4.6431    0.1653 O   0  0  0  0  0  0  0  0  0  0  0  0
    2.2877   -8.6361    5.9926 C   0  0  1  0  0  0  0  0  0  0  0  0
    1.0637   -9.1202    6.8819 C   0  0  0  0  0  0  0  0  0  0  0  0
    3.5720   -9.2940    6.6191 C   0  0  0  0  0  0  0  0  0  0  0  0
    3.4734   -9.8020    7.7433 O   0  0  0  0  0  0  0  0  0  0  0  0
    4.9777   -9.3125    5.9395 C   0  0  1  0  0  0  0  0  0  0  0  0
    5.7681  -10.2652    6.6380 O   0  0  0  0  0  0  0  0  0  0  0  0
    5.8408   -7.7004    6.1561 S   0  0  0  0  0  0  0  0  0  0  0  0
    5.8832   -7.3103    7.6567 O   0  0  0  0  0  0  0  0  0  0  0  0
    4.7926   -6.6402    5.0512 C   0  0  2  0  0  0  0  0  0  0  0  0
    3.4934   -6.1419    5.8211 C   0  0  2  0  0  0  0  0  0  0  0  0
    3.2742   -4.6007    5.6796 C   0  0  0  0  0  0  0  0  0  0  0  0
    3.8235   -6.0337    7.2371 O   0  0  0  0  0  0  0  0  0  0  0  0
    2.5604   -6.5931    7.6255 C   0  0  0  0  0  0  0  0  0  0  0  0
    2.2926   -7.0673    6.1939 C   0  0  2  0  0  0  0  0  0  0  0  0
    1.0307   -6.5615    5.8013 O   0  0  0  0  0  0  0  0  0  0  0  0
    1.2650    0.9353    1.7587 H   0  0  0  0  0  0  0  0  0  0  0  0
    2.9804    1.0794    2.1218 H   0  0  0  0  0  0  0  0  0  0  0  0
    1.8748    0.4191    3.3263 H   0  0  0  0  0  0  0  0  0  0  0  0
    1.4153   -1.5484    1.7875 H   0  0  0  0  0  0  0  0  0  0  0  0
    2.5581   -0.9024    0.6291 H   0  0  0  0  0  0  0  0  0  0  0  0
    4.9112   -3.6309    3.2545 H   0  0  0  0  0  0  0  0  0  0  0  0
    7.0891   -3.5181    1.6676 H   0  0  0  0  0  0  0  0  0  0  0  0
    6.3861   -2.0562    2.3068 H   0  0  0  0  0  0  0  0  0  0  0  0
    6.0725   -2.5529    0.6571 H   0  0  0  0  0  0  0  0  0  0  0  0
    4.8394   -6.1516   -0.2800 H   0  0  0  0  0  0  0  0  0  0  0  0
    6.0587   -4.8901   -0.0797 H   0  0  0  0  0  0  0  0  0  0  0  0
    4.4637   -4.4490   -0.3377 H   0  0  0  0  0  0  0  0  0  0  0  0
    7.5064   -7.5166    1.9804 H   0  0  0  0  0  0  0  0  0  0  0  0
    7.2735   -6.2556    0.8809 H   0  0  0  0  0  0  0  0  0  0  0  0
    6.1676   -7.6100    0.8673 H   0  0  0  0  0  0  0  0  0  0  0  0
    7.4107   -6.1905    4.0550 H   0  0  0  0  0  0  0  0  0  0  0  0
    6.5806   -4.6560    3.9653 H   0  0  0  0  0  0  0  0  0  0  0  0
    7.7419   -5.1282    2.7565 H   0  0  0  0  0  0  0  0  0  0  0  0
    6.0917   -9.0306    2.5550 H   0  0  0  0  0  0  0  0  0  0  0  0
    6.7603   -8.4580    3.9172 H   0  0  0  0  0  0  0  0  0  0  0  0
    4.5752  -10.3866    2.7633 H   0  0  0  0  0  0  0  0  0  0  0  0
    4.9968  -11.7844    3.2992 H   0  0  0  0  0  0  0  0  0  0  0  0
    5.3810  -11.9334    4.9248 H   0  0  0  0  0  0  0  0  0  0  0  0
    3.0716  -12.6936    4.3836 H   0  0  0  0  0  0  0  0  0  0  0  0
    3.2025  -11.7612    5.7848 H   0  0  0  0  0  0  0  0  0  0  0  0
    0.8389  -10.9778    2.3344 H   0  0  0  0  0  0  0  0  0  0  0  0
    1.8977  -12.2434    2.5589 H   0  0  0  0  0  0  0  0  0  0  0  0
    2.5571  -10.7173    2.0334 H   0  0  0  0  0  0  0  0  0  0  0  0
   -0.1103  -10.8895    4.7944 H   0  0  0  0  0  0  0  0  0  0  0  0
    0.8647  -11.7428    5.7630 H   0  0  0  0  0  0  0  0  0  0  0  0
    0.5017  -12.4657    4.2976 H   0  0  0  0  0  0  0  0  0  0  0  0
    0.9611   -9.0562    4.6055 H   0  0  0  0  0  0  0  0  0  0  0  0
    1.9272   -8.7033    2.4279 H   0  0  0  0  0  0  0  0  0  0  0  0
    0.1054   -9.2709    1.8604 H   0  0  0  0  0  0  0  0  0  0  0  0
   -1.6120   -9.2305    2.2364 H   0  0  0  0  0  0  0  0  0  0  0  0
   -0.5191   -9.5980    3.5092 H   0  0  0  0  0  0  0  0  0  0  0  0
    3.9515   -8.9012    1.7524 H   0  0  0  0  0  0  0  0  0  0  0  0
    3.1887   -5.0616    3.7972 H   0  0  0  0  0  0  0  0  0  0  0  0
    0.4562   -6.4334    1.0899 H   0  0  0  0  0  0  0  0  0  0  0  0
    1.5523   -7.7748    0.6480 H   0  0  0  0  0  0  0  0  0  0  0  0
    0.8288   -6.6232   -0.5125 H   0  0  0  0  0  0  0  0  0  0  0  0
    0.0854   -8.9059    6.4467 H   0  0  0  0  0  0  0  0  0  0  0  0
    1.0241   -8.6480    7.8604 H   0  0  0  0  0  0  0  0  0  0  0  0
    1.0856  -10.1830    7.0892 H   0  0  0  0  0  0  0  0  0  0  0  0
    6.5377  -10.4469    6.1256 H   0  0  0  0  0  0  0  0  0  0  0  0
    5.4002   -5.7599    5.1549 H   0  0  0  0  0  0  0  0  0  0  0  0
    2.2580   -4.3385    5.3905 H   0  0  0  0  0  0  0  0  0  0  0  0
    3.9581   -4.1454    4.9714 H   0  0  0  0  0  0  0  0  0  0  0  0
    3.4568   -4.0274    6.5933 H   0  0  0  0  0  0  0  0  0  0  0  0
    2.6812   -7.3707    8.3768 H   0  0  0  0  0  0  0  0  0  0  0  0
    1.8665   -5.8382    8.0000 H   0  0  0  0  0  0  0  0  0  0  0  0
    0.9186   -6.7950    4.8885 H   0  0  0  0  0  0  0  0  0  0  0  0
  1  2  1  0
  1 50  1  0
  1 51  1  0
  1 52  1  0
  2  3  1  0
  2 53  1  0
  2 54  1  0
  3  4  2  0
  3  5  1  0
  5  6  1  0
  6  7  1  0
  6  8  1  0
  6 55  1  1
  7 56  1  0
  7 57  1  0
  7 58  1  0
  8 30  1  0
  8  9  1  6
  8 10  1  0
  9 59  1  0
  9 60  1  0
  9 61  1  0
 10 11  1  0
 10 12  1  0
 13 10  1  6
 11 62  1  0
 11 63  1  0
 11 64  1  0
 12 65  1  0
 12 66  1  0
 12 67  1  0
 13 28  1  0
 13 43  1  0
 13 14  1  0
 14 15  1  0
 14 68  1  0
 14 69  1  0
 15 39  1  0
 15 16  1  6
 15 17  1  0
 16 70  1  0
 17 18  1  0
 17 71  1  0
 17 72  1  0
 18 19  1  0
 18 73  1  0
 18 74  1  0
 19 20  1  0
 19 21  1  0
 19 22  1  0
 20 75  1  0
 20 76  1  0
 20 77  1  0
 21 78  1  0
 21 79  1  0
 21 80  1  0
 22 23  1  0
 22 35  1  0
 22 81  1  1
 23 24  1  0
 23 28  1  0
 23 82  1  6
 24 25  1  0
 25 26  1  0
 25 27  2  0
 26 83  1  0
 26 84  1  0
 26 85  1  0
 28 29  1  6
 28 30  1  0
 29 86  1  0
 30 31  1  1
 30 32  1  0
 31 87  1  0
 32 33  1  0
 32 34  2  0
 33 88  1  0
 33 89  1  0
 33 90  1  0
 35 48  1  0
 35 36  1  1
 35 37  1  0
 36 91  1  0
 36 92  1  0
 36 93  1  0
 37 38  2  0
 37 39  1  0
 39 40  1  1
 41 39  1  1
 40 94  1  0
 41 42  2  0
 41 43  1  0
 43 44  1  0
 43 95  1  6
 44 48  1  0
 44 45  1  6
 44 46  1  0
 45 96  1  0
 45 97  1  0
 45 98  1  0
 46 47  1  0
 47 48  1  0
 47 99  1  0
 47100  1  0
 48 49  1  6
 49101  1  0
M  END
>  <i_m_ct_stereo_status>  (109) 
1

>  <s_m_source_file>  (109) 
/var/tmp/pbs.5075288.sched01/tmpq0rgj53d/65gxdktgdh.sdf

>  <i_m_source_file_index>  (109) 
53

>  <i_lp_mmshare_version>  (109) 
48012

>  <i_f3d_flags>  (109) 
0

>  <s_epik_input>  (109) 
W0NIM11bQ0gyXUMoPU8pT1tDQEhdKFtDSDNdKVtDQEBdKFtDSDNdKShDMShbQ0gzXSlbQ0gzXSlbQ0BAXShbT0hdKShDKD1PKVtDSDNdKVtDQF0oW0NAXTEyMykoW09IXSlbQ0BIXShPQyg9TylbQ0gzXSlbQ0BASF00W0NAXTUoW0NIM10pW0NAXTYoW09IXSlbQ0BAXShbQ0gzXSkoT1tDSDJdNilbQ0BIXTNbUytdKFtPLV0pW0NAXShDNT1PKShbT0hdKVtDQF0oW0NIMl0yKShbT0hdKVtDSDJdW0NIMl1DNChbQ0gzXSlbQ0gzXQ==

>  <s_epik_cmdline>  (109) 
J2VwaWtfcHl0aG9uJywgJy1waHQnLCAnMi4wJywgJy1waCcsICc3LjAnLCAnLXRuJywgJzgnLCAnLW1hJywgJzIwMCcsICctaW1hZScsICc8aW5maWxlLm1hZT4nLCAnLW9tYWUnLCAnPG91dGZpbGUubWFlPic=

>  <r_lp_tautomer_probability>  (109) 
1

>  <r_epik_Ionization_Penalty>  (109) 
8.27951e-07

>  <r_epik_Ionization_Penalty_Charging>  (109) 
0

>  <r_epik_Ionization_Penalty_Neutral>  (109) 
8.27951e-07

>  <r_epik_State_Penalty>  (109) 
-0

>  <r_epik_Charging_Adjusted_Penalty>  (109) 
0

>  <i_epik_Tot_Q>  (109) 
0

>  <i_epik_Tot_abs_Q>  (109) 
2

>  <s_epik_Chemistry_Notes>  (109) 
This compound has an ester and may undergo hydrolysis at high or low pH.

>  <s_lp_Force_Field>  (109) 
OPLS3e

>  <r_lp_Energy>  (109) 
296.873

>  <b_lp_Chiralities_Consistent>  (109) 
1

>  <s_lp_Variant>  (109) 
41:0-1

>  <s_i_glide_gridfile>  (109) 
pfpi4k_grid

>  <i_i_glide_lignum>  (109) 
53

>  <i_i_glide_rotatable_bonds>  (109) 
12

>  <r_i_docking_score>  (109) 
-2.4126

>  <r_i_glide_ligand_efficiency>  (109) 
-0.0492367

>  <r_i_glide_ligand_efficiency_sa>  (109) 
-0.180172

>  <r_i_glide_ligand_efficiency_ln>  (109) 
-0.49319

>  <r_i_glide_gscore>  (109) 
-2.4126

>  <r_i_glide_lipo>  (109) 
-0.360714

>  <r_i_glide_hbond>  (109) 
-0.167615

>  <r_i_glide_metal>  (109) 
-0

>  <r_i_glide_rewards>  (109) 
-0.5

>  <r_i_glide_evdw>  (109) 
-21.1575

>  <r_i_glide_ecoul>  (109) 
-4.24871

>  <r_i_glide_erotb>  (109) 
0.169131

>  <r_i_glide_esite>  (109) 
-0.122239

>  <r_i_glide_emodel>  (109) 
-24.2081

>  <r_i_glide_energy>  (109) 
-25.4062

>  <r_i_glide_einternal>  (109) 
11.9448

>  <r_i_glide_intrahb_reward>  (109) 
-0.5

>  <i_i_glide_confnum>  (109) 
1

>  <i_i_glide_posenum>  (109) 
29

>  <r_i_glide_eff_state_penalty>  (109) 
0

>  <ligand_id>  (109) 
41

>  <original_smiles>  (109) 
CCC(=O)OC(C)C1(C)C(C)(C)C23CC4(O)CCC(C)(C)C(C(OC(C)=O)C2(O)C1(O)C(C)=O)C1(C)C(=O)C4(O)[S+]([O-])C3C2(C)OCC21O

>  <smiles>  (109) 
[H]OC12C(=O)C3(C([H])([H])[H])C4([H])C([H])(OC(=O)C([H])([H])[H])C5(O[H])C(O[H])(C(=O)C([H])([H])[H])C(C([H])([H])[H])(C([H])(OC(=O)C([H])([H])C([H])([H])[H])C([H])([H])[H])C(C([H])([H])[H])(C([H])([H])[H])C5(C([H])([H])C1(O[H])C([H])([H])C([H])([H])C4(C([H])([H])[H])C([H])([H])[H])C([H])(S2=O)C1(C([H])([H])[H])OC([H])([H])C13O[H]

$$$$
48:0:0
     RDKit          3D

 72 76  0  0  1  0  0  0  0  0999 V2000
   -2.6028    2.9745    4.7474 C   0  0  0  0  0  0  0  0  0  0  0  0
   -1.4472    2.3033    4.6571 C   0  0  0  0  0  0  0  0  0  0  0  0
   -0.3508    2.6455    3.5941 C   0  0  1  0  0  0  0  0  0  0  0  0
   -0.3667    4.0302    3.2930 O   0  0  0  0  0  0  0  0  0  0  0  0
    0.9475    2.0579    4.2139 C   0  0  1  0  0  0  0  0  0  0  0  0
    0.5327    0.4184    3.8537 C   0  0  1  0  0  0  0  0  0  0  0  0
    0.2762    0.1365    2.4850 O   0  0  0  0  0  0  0  0  0  0  0  0
    1.1100   -0.9498    4.4341 C   0  0  0  0  0  0  0  0  0  0  0  0
    2.0057   -1.1305    5.7026 C   0  0  0  0  0  0  0  0  0  0  0  0
    2.9327    0.0074    6.2254 C   0  0  1  0  0  0  0  0  0  0  0  0
    3.0244   -0.2413    7.7776 C   0  0  0  0  0  0  0  0  0  0  0  0
    4.4722   -0.1416    5.8892 C   0  0  1  0  0  0  0  0  0  0  0  0
    4.9068   -1.4845    6.1504 O   0  0  0  0  0  0  0  0  0  0  0  0
    6.0316   -1.7454    6.8524 C   0  0  0  0  0  0  0  0  0  0  0  0
    6.2684   -3.2388    7.0305 C   0  0  0  0  0  0  0  0  0  0  0  0
    6.8122   -0.9095    7.3057 O   0  0  0  0  0  0  0  0  0  0  0  0
    5.0534    0.2570    4.5321 C   0  0  0  0  0  0  0  0  0  0  0  0
    4.2777   -0.2155    3.3304 C   0  0  1  0  0  0  0  0  0  0  0  0
    4.0485   -1.6086    3.3273 O   0  0  0  0  0  0  0  0  0  0  0  0
    3.0380    0.6102    3.0092 C   0  0  0  0  0  0  0  0  0  0  0  0
    2.8025    0.7013    1.6818 C   0  0  0  0  0  0  0  0  0  0  0  0
    2.3778    1.6247    4.0506 C   0  0  1  0  0  0  0  0  0  0  0  0
    2.8346    2.7884    3.3637 O   0  0  0  0  0  0  0  0  0  0  0  0
    2.1827    1.3320    5.7622 C   0  0  1  0  0  0  0  0  0  0  0  0
    0.5825    1.2995    6.6600 C   0  0  1  0  0  0  0  0  0  0  0  0
    0.0863    2.6019    7.4016 C   0  0  1  0  0  0  0  0  0  0  0  0
    0.3167    2.7007    8.8030 O   0  0  0  0  0  0  0  0  0  0  0  0
    0.4170    3.7698    6.5046 C   0  0  1  0  0  0  0  0  0  0  0  0
    0.7443    4.9134    7.2825 O   0  0  0  0  0  0  0  0  0  0  0  0
    1.4515    3.2508    5.4543 C   0  0  2  0  0  0  0  0  0  0  0  0
    1.8259    4.5262    4.9270 O   0  0  0  0  0  0  0  0  0  0  0  0
    2.7439    2.6920    6.2128 C   0  0  0  0  0  0  0  0  0  0  0  0
    2.9756    2.8519    7.7530 C   0  0  0  0  0  0  0  0  0  0  0  0
    4.1622    3.2628    5.7871 C   0  0  0  0  0  0  0  0  0  0  0  0
   -1.1724    0.9254    5.9701 S   0  0  0  0  0  0  0  0  0  0  0  0
   -2.2801    0.9427    7.0306 O   0  0  0  0  0  0  0  0  0  0  0  0
   -3.3318    2.7612    5.5126 H   0  0  0  0  0  0  0  0  0  0  0  0
   -2.8396    3.7594    4.0413 H   0  0  0  0  0  0  0  0  0  0  0  0
   -0.6815    2.2177    2.6510 H   0  0  0  0  0  0  0  0  0  0  0  0
   -0.1877    4.1479    2.3397 H   0  0  0  0  0  0  0  0  0  0  0  0
   -0.5214    0.2015    3.8348 H   0  0  0  0  0  0  0  0  0  0  0  0
    1.0784    0.2390    1.9912 H   0  0  0  0  0  0  0  0  0  0  0  0
    0.2376   -1.5774    4.6288 H   0  0  0  0  0  0  0  0  0  0  0  0
    1.5739   -1.5069    3.6216 H   0  0  0  0  0  0  0  0  0  0  0  0
    1.3114   -1.3972    6.5035 H   0  0  0  0  0  0  0  0  0  0  0  0
    2.5716   -2.0599    5.5859 H   0  0  0  0  0  0  0  0  0  0  0  0
    3.8050    0.3484    8.2522 H   0  0  0  0  0  0  0  0  0  0  0  0
    3.2879   -1.2788    7.9890 H   0  0  0  0  0  0  0  0  0  0  0  0
    2.1387   -0.0911    8.3785 H   0  0  0  0  0  0  0  0  0  0  0  0
    5.0055    0.5098    6.5789 H   0  0  0  0  0  0  0  0  0  0  0  0
    6.2818   -3.7403    6.0634 H   0  0  0  0  0  0  0  0  0  0  0  0
    5.4752   -3.6790    7.6338 H   0  0  0  0  0  0  0  0  0  0  0  0
    7.2227   -3.4239    7.5256 H   0  0  0  0  0  0  0  0  0  0  0  0
    5.1925    1.3294    4.4514 H   0  0  0  0  0  0  0  0  0  0  0  0
    6.0730   -0.1330    4.4598 H   0  0  0  0  0  0  0  0  0  0  0  0
    4.9682   -0.0643    2.4983 H   0  0  0  0  0  0  0  0  0  0  0  0
    3.4999   -1.8170    4.0662 H   0  0  0  0  0  0  0  0  0  0  0  0
    3.3516    0.1012    0.9684 H   0  0  0  0  0  0  0  0  0  0  0  0
    2.0852    1.3960    1.2745 H   0  0  0  0  0  0  0  0  0  0  0  0
    3.6718    2.6023    2.9553 H   0  0  0  0  0  0  0  0  0  0  0  0
    0.5816    0.5207    7.4037 H   0  0  0  0  0  0  0  0  0  0  0  0
   -0.9898    2.7132    7.5121 H   0  0  0  0  0  0  0  0  0  0  0  0
    1.2433    2.7316    8.9746 H   0  0  0  0  0  0  0  0  0  0  0  0
   -0.4708    4.1198    5.9928 H   0  0  0  0  0  0  0  0  0  0  0  0
    1.5438    4.7395    7.7442 H   0  0  0  0  0  0  0  0  0  0  0  0
    2.3151    4.3221    4.1346 H   0  0  0  0  0  0  0  0  0  0  0  0
    2.7836    3.8565    8.1229 H   0  0  0  0  0  0  0  0  0  0  0  0
    4.0107    2.6710    8.0466 H   0  0  0  0  0  0  0  0  0  0  0  0
    2.4809    2.1225    8.3696 H   0  0  0  0  0  0  0  0  0  0  0  0
    4.2730    4.2711    6.1964 H   0  0  0  0  0  0  0  0  0  0  0  0
    4.4506    3.4042    4.7593 H   0  0  0  0  0  0  0  0  0  0  0  0
    4.9833    2.6794    6.2082 H   0  0  0  0  0  0  0  0  0  0  0  0
  1  2  2  0
  1 37  1  0
  1 38  1  0
 35  2  1  6
  2  3  1  0
  3  4  1  0
  3  5  1  0
  3 39  1  6
  4 40  1  0
  5 22  1  0
  5 30  1  1
  5  6  1  0
  6  7  1  0
  6  8  1  0
  6 41  1  1
  7 42  1  0
  8  9  1  0
  8 43  1  0
  8 44  1  0
  9 10  1  0
  9 45  1  0
  9 46  1  0
 10 24  1  0
 10 11  1  1
 10 12  1  0
 11 47  1  0
 11 48  1  0
 11 49  1  0
 12 13  1  0
 12 17  1  0
 12 50  1  1
 13 14  1  0
 14 15  1  0
 14 16  2  0
 15 51  1  0
 15 52  1  0
 15 53  1  0
 17 18  1  0
 17 54  1  0
 17 55  1  0
 18 19  1  0
 18 20  1  0
 18 56  1  6
 19 57  1  0
 20 21  2  0
 20 22  1  0
 21 58  1  0
 21 59  1  0
 22 23  1  1
 22 24  1  0
 23 60  1  0
 24 32  1  1
 24 25  1  0
 25 26  1  0
 25 35  1  0
 25 61  1  1
 26 27  1  0
 26 28  1  0
 26 62  1  1
 27 63  1  0
 28 29  1  0
 28 30  1  0
 28 64  1  6
 29 65  1  0
 30 31  1  6
 30 32  1  0
 31 66  1  0
 32 33  1  0
 32 34  1  0
 33 67  1  0
 33 68  1  0
 33 69  1  0
 34 70  1  0
 34 71  1  0
 34 72  1  0
 35 36  2  0
M  END
>  <i_m_ct_stereo_status>  (110) 
1

>  <s_m_source_file>  (110) 
/var/tmp/pbs.5075288.sched01/tmpq0rgj53d/65gxdktgdh.sdf

>  <i_m_source_file_index>  (110) 
59

>  <i_lp_mmshare_version>  (110) 
48012

>  <i_f3d_flags>  (110) 
0

>  <s_epik_input>  (110) 
W0NIM11DMShbQ0gzXSlbQ0BdMihbT0hdKVtDQEhdKFtPSF0pW0NASF0oW09IXSlbQ0BASF0oW1MrXShbTy1dKUMoPVtDSDJdKVtDQEhdM1tPSF0pW0NAXTEoW0NAQF00KEMyMzUpW09IXSlbQ0BAXShbQ0gzXSkoW0NIMl1bQ0gyXVtDQEBIXTVbT0hdKVtDQEBIXShPQyg9TylbQ0gzXSlbQ0gyXVtDQEBIXShbT0hdKUM0PVtDSDJd

>  <s_epik_cmdline>  (110) 
J2VwaWtfcHl0aG9uJywgJy1waHQnLCAnMi4wJywgJy1waCcsICc3LjAnLCAnLXRuJywgJzgnLCAnLW1hJywgJzIwMCcsICctaW1hZScsICc8aW5maWxlLm1hZT4nLCAnLW9tYWUnLCAnPG91dGZpbGUubWFlPic=

>  <r_lp_tautomer_probability>  (110) 
1

>  <r_epik_Ionization_Penalty>  (110) 
1.19056e-06

>  <r_epik_Ionization_Penalty_Charging>  (110) 
0

>  <r_epik_Ionization_Penalty_Neutral>  (110) 
1.19056e-06

>  <r_epik_State_Penalty>  (110) 
-0

>  <r_epik_Charging_Adjusted_Penalty>  (110) 
0

>  <i_epik_Tot_Q>  (110) 
0

>  <i_epik_Tot_abs_Q>  (110) 
2

>  <s_epik_Chemistry_Notes>  (110) 
This compound has an ester and may undergo hydrolysis at high or low pH.

>  <s_lp_Force_Field>  (110) 
OPLS3e

>  <r_lp_Energy>  (110) 
460.618

>  <b_lp_Chiralities_Consistent>  (110) 
1

>  <s_lp_Variant>  (110) 
48:0-1

>  <s_i_glide_gridfile>  (110) 
pfpi4k_grid

>  <i_i_glide_lignum>  (110) 
59

>  <i_i_glide_rotatable_bonds>  (110) 
9

>  <r_i_docking_score>  (110) 
-3.90059

>  <r_i_glide_ligand_efficiency>  (110) 
-0.10835

>  <r_i_glide_ligand_efficiency_sa>  (110) 
-0.357763

>  <r_i_glide_ligand_efficiency_ln>  (110) 
-0.851003

>  <r_i_glide_gscore>  (110) 
-3.90059

>  <r_i_glide_lipo>  (110) 
-0.243132

>  <r_i_glide_hbond>  (110) 
-0.152

>  <r_i_glide_metal>  (110) 
-0

>  <r_i_glide_rewards>  (110) 
-0.530178

>  <r_i_glide_evdw>  (110) 
-25.5016

>  <r_i_glide_ecoul>  (110) 
-11.5817

>  <r_i_glide_erotb>  (110) 
0.07373

>  <r_i_glide_esite>  (110) 
-0.0366705

>  <r_i_glide_emodel>  (110) 
-50.9948

>  <r_i_glide_energy>  (110) 
-37.0833

>  <r_i_glide_einternal>  (110) 
1.55299

>  <r_i_glide_intrahb_reward>  (110) 
-0.5

>  <i_i_glide_confnum>  (110) 
2

>  <i_i_glide_posenum>  (110) 
27

>  <r_i_glide_eff_state_penalty>  (110) 
0

>  <ligand_id>  (110) 
48

>  <original_smiles>  (110) 
C=C1C(O)C23C(O)CCC4(C)C(OC(C)=O)CC(O)C(=C)C2(O)C42C(C(O)C(O)C3(O)C2(C)C)[S+]1[O-]

>  <smiles>  (110) 
[H]OC1([H])C(=C([H])[H])C2(O[H])C34C([H])(O[H])C(=C([H])[H])S(=O)C5([H])C([H])(O[H])C([H])(O[H])C3(O[H])C(C([H])([H])[H])(C([H])([H])[H])C25C(C([H])([H])[H])(C([H])([H])C([H])([H])C4([H])O[H])C([H])(OC(=O)C([H])([H])[H])C1([H])[H]

$$$$
48:0:1
     RDKit          3D

 72 76  0  0  1  0  0  0  0  0999 V2000
   -1.4175    4.4847    3.2874 C   0  0  0  0  0  0  0  0  0  0  0  0
   -0.7980    3.3947    3.7820 C   0  0  0  0  0  0  0  0  0  0  0  0
    0.6137    2.9139    3.2839 C   0  0  1  0  0  0  0  0  0  0  0  0
    1.4294    3.9882    2.8841 O   0  0  0  0  0  0  0  0  0  0  0  0
    1.1165    2.0080    4.4388 C   0  0  1  0  0  0  0  0  0  0  0  0
    0.0617    0.6953    4.0368 C   0  0  1  0  0  0  0  0  0  0  0  0
    0.2033    0.1431    2.7323 O   0  0  0  0  0  0  0  0  0  0  0  0
   -0.3705   -0.5707    4.9002 C   0  0  0  0  0  0  0  0  0  0  0  0
   -0.2061   -0.7611    6.4382 C   0  0  0  0  0  0  0  0  0  0  0  0
    0.9267   -0.0366    7.2209 C   0  0  1  0  0  0  0  0  0  0  0  0
    0.3462    0.1359    8.6751 C   0  0  0  0  0  0  0  0  0  0  0  0
    2.1786   -0.9084    7.5794 C   0  0  1  0  0  0  0  0  0  0  0  0
    1.7814   -2.1564    8.1630 O   0  0  0  0  0  0  0  0  0  0  0  0
    2.2070   -2.6296    9.3723 C   0  0  0  0  0  0  0  0  0  0  0  0
    3.2056   -1.7524   10.1446 C   0  0  0  0  0  0  0  0  0  0  0  0
    1.8210   -3.7007    9.8356 O   0  0  0  0  0  0  0  0  0  0  0  0
    3.3061   -1.2298    6.6019 C   0  0  0  0  0  0  0  0  0  0  0  0
    2.8838   -1.6375    5.2203 C   0  0  1  0  0  0  0  0  0  0  0  0
    1.9826   -2.7310    5.2352 O   0  0  0  0  0  0  0  0  0  0  0  0
    2.4399   -0.4744    4.3385 C   0  0  0  0  0  0  0  0  0  0  0  0
    2.7742   -0.6668    3.0413 C   0  0  0  0  0  0  0  0  0  0  0  0
    2.0738    0.9726    4.9256 C   0  0  1  0  0  0  0  0  0  0  0  0
    3.2717    1.5628    4.4589 O   0  0  0  0  0  0  0  0  0  0  0  0
    1.1797    1.2877    6.3986 C   0  0  1  0  0  0  0  0  0  0  0  0
   -0.4081    2.2021    6.5209 C   0  0  1  0  0  0  0  0  0  0  0  0
   -0.3753    3.7350    6.8832 C   0  0  1  0  0  0  0  0  0  0  0  0
   -0.6406    4.0973    8.2297 O   0  0  0  0  0  0  0  0  0  0  0  0
    0.7871    4.3370    6.1429 C   0  0  1  0  0  0  0  0  0  0  0  0
    1.3806    5.3720    6.9019 O   0  0  0  0  0  0  0  0  0  0  0  0
    1.7064    3.1641    5.6779 C   0  0  2  0  0  0  0  0  0  0  0  0
    2.7758    4.0110    5.2389 O   0  0  0  0  0  0  0  0  0  0  0  0
    2.1733    2.3277    6.9571 C   0  0  0  0  0  0  0  0  0  0  0  0
    1.9164    2.7910    8.4342 C   0  0  0  0  0  0  0  0  0  0  0  0
    3.7281    2.0820    7.1511 C   0  0  0  0  0  0  0  0  0  0  0  0
   -1.7456    2.4661    5.1638 S   0  0  0  0  0  0  0  0  0  0  0  0
   -2.9504    3.2879    5.6368 O   0  0  0  0  0  0  0  0  0  0  0  0
   -2.3885    4.7557    3.6735 H   0  0  0  0  0  0  0  0  0  0  0  0
   -0.9740    5.0965    2.5212 H   0  0  0  0  0  0  0  0  0  0  0  0
    0.4688    2.4173    2.3351 H   0  0  0  0  0  0  0  0  0  0  0  0
    1.0780    4.2511    2.0269 H   0  0  0  0  0  0  0  0  0  0  0  0
   -0.8754    0.9720    3.5853 H   0  0  0  0  0  0  0  0  0  0  0  0
    0.1554    0.8231    2.0734 H   0  0  0  0  0  0  0  0  0  0  0  0
   -1.4457   -0.6797    4.7415 H   0  0  0  0  0  0  0  0  0  0  0  0
    0.0089   -1.4737    4.4192 H   0  0  0  0  0  0  0  0  0  0  0  0
   -1.1572   -0.4376    6.8652 H   0  0  0  0  0  0  0  0  0  0  0  0
   -0.1928   -1.8348    6.6589 H   0  0  0  0  0  0  0  0  0  0  0  0
    1.1079    0.4441    9.3882 H   0  0  0  0  0  0  0  0  0  0  0  0
   -0.0366   -0.8028    9.0731 H   0  0  0  0  0  0  0  0  0  0  0  0
   -0.4808    0.8163    8.8358 H   0  0  0  0  0  0  0  0  0  0  0  0
    2.7045   -0.2999    8.3125 H   0  0  0  0  0  0  0  0  0  0  0  0
    2.7863   -0.7720   10.3315 H   0  0  0  0  0  0  0  0  0  0  0  0
    4.1270   -1.6546    9.5799 H   0  0  0  0  0  0  0  0  0  0  0  0
    3.4533   -2.1957   11.1182 H   0  0  0  0  0  0  0  0  0  0  0  0
    4.0026   -0.4022    6.5147 H   0  0  0  0  0  0  0  0  0  0  0  0
    3.9166   -2.0286    7.0279 H   0  0  0  0  0  0  0  0  0  0  0  0
    3.7979   -2.0407    4.7753 H   0  0  0  0  0  0  0  0  0  0  0  0
    1.2230   -2.4841    5.7509 H   0  0  0  0  0  0  0  0  0  0  0  0
    3.1438   -1.6243    2.6986 H   0  0  0  0  0  0  0  0  0  0  0  0
    2.6814    0.1021    2.2931 H   0  0  0  0  0  0  0  0  0  0  0  0
    3.1935    1.6907    3.5234 H   0  0  0  0  0  0  0  0  0  0  0  0
   -1.0441    1.7437    7.2492 H   0  0  0  0  0  0  0  0  0  0  0  0
   -1.1917    4.3450    6.4994 H   0  0  0  0  0  0  0  0  0  0  0  0
    0.0854    3.8063    8.7723 H   0  0  0  0  0  0  0  0  0  0  0  0
    0.4434    4.8921    5.2756 H   0  0  0  0  0  0  0  0  0  0  0  0
    2.1100    5.6799    6.3712 H   0  0  0  0  0  0  0  0  0  0  0  0
    2.5339    4.2869    4.3595 H   0  0  0  0  0  0  0  0  0  0  0  0
    2.1468    3.8419    8.5996 H   0  0  0  0  0  0  0  0  0  0  0  0
    2.5466    2.2745    9.1553 H   0  0  0  0  0  0  0  0  0  0  0  0
    0.9423    2.5564    8.8255 H   0  0  0  0  0  0  0  0  0  0  0  0
    4.1913    3.0135    7.4894 H   0  0  0  0  0  0  0  0  0  0  0  0
    4.3822    1.7814    6.3447 H   0  0  0  0  0  0  0  0  0  0  0  0
    3.9413    1.3510    7.9269 H   0  0  0  0  0  0  0  0  0  0  0  0
  1  2  2  0
  1 37  1  0
  1 38  1  0
 35  2  1  6
  2  3  1  0
  3  4  1  0
  3  5  1  0
  3 39  1  6
  4 40  1  0
  5 22  1  0
  5 30  1  1
  5  6  1  0
  6  7  1  0
  6  8  1  0
  6 41  1  6
  7 42  1  0
  8  9  1  0
  8 43  1  0
  8 44  1  0
  9 10  1  0
  9 45  1  0
  9 46  1  0
 10 24  1  0
 10 11  1  1
 10 12  1  0
 11 47  1  0
 11 48  1  0
 11 49  1  0
 12 13  1  0
 12 17  1  0
 12 50  1  1
 13 14  1  0
 14 15  1  0
 14 16  2  0
 15 51  1  0
 15 52  1  0
 15 53  1  0
 17 18  1  0
 17 54  1  0
 17 55  1  0
 18 19  1  0
 18 20  1  0
 18 56  1  6
 19 57  1  0
 20 21  2  0
 20 22  1  0
 21 58  1  0
 21 59  1  0
 22 23  1  1
 22 24  1  0
 23 60  1  0
 24 32  1  1
 24 25  1  0
 25 26  1  0
 25 35  1  0
 25 61  1  1
 26 27  1  0
 26 28  1  0
 26 62  1  6
 27 63  1  0
 28 29  1  0
 28 30  1  0
 28 64  1  6
 29 65  1  0
 30 31  1  6
 30 32  1  0
 31 66  1  0
 32 33  1  0
 32 34  1  0
 33 67  1  0
 33 68  1  0
 33 69  1  0
 34 70  1  0
 34 71  1  0
 34 72  1  0
 35 36  2  0
M  END
>  <i_m_ct_stereo_status>  (111) 
1

>  <s_m_source_file>  (111) 
/var/tmp/pbs.5075288.sched01/tmpq0rgj53d/65gxdktgdh.sdf

>  <i_m_source_file_index>  (111) 
59

>  <i_lp_mmshare_version>  (111) 
48012

>  <i_f3d_flags>  (111) 
0

>  <s_epik_input>  (111) 
W0NIM11DMShbQ0gzXSlbQ0BdMihbT0hdKVtDQEhdKFtPSF0pW0NASF0oW09IXSlbQ0BASF0oW1MrXShbTy1dKUMoPVtDSDJdKVtDQEhdM1tPSF0pW0NAXTEoW0NAQF00KEMyMzUpW09IXSlbQ0BAXShbQ0gzXSkoW0NIMl1bQ0gyXVtDQEBIXTVbT0hdKVtDQEBIXShPQyg9TylbQ0gzXSlbQ0gyXVtDQEBIXShbT0hdKUM0PVtDSDJd

>  <s_epik_cmdline>  (111) 
J2VwaWtfcHl0aG9uJywgJy1waHQnLCAnMi4wJywgJy1waCcsICc3LjAnLCAnLXRuJywgJzgnLCAnLW1hJywgJzIwMCcsICctaW1hZScsICc8aW5maWxlLm1hZT4nLCAnLW9tYWUnLCAnPG91dGZpbGUubWFlPic=

>  <r_lp_tautomer_probability>  (111) 
1

>  <r_epik_Ionization_Penalty>  (111) 
1.19056e-06

>  <r_epik_Ionization_Penalty_Charging>  (111) 
0

>  <r_epik_Ionization_Penalty_Neutral>  (111) 
1.19056e-06

>  <r_epik_State_Penalty>  (111) 
-0

>  <r_epik_Charging_Adjusted_Penalty>  (111) 
0

>  <i_epik_Tot_Q>  (111) 
0

>  <i_epik_Tot_abs_Q>  (111) 
2

>  <s_epik_Chemistry_Notes>  (111) 
This compound has an ester and may undergo hydrolysis at high or low pH.

>  <s_lp_Force_Field>  (111) 
OPLS3e

>  <r_lp_Energy>  (111) 
460.618

>  <b_lp_Chiralities_Consistent>  (111) 
1

>  <s_lp_Variant>  (111) 
48:0-1

>  <s_i_glide_gridfile>  (111) 
pfpi4k_grid

>  <i_i_glide_lignum>  (111) 
59

>  <i_i_glide_rotatable_bonds>  (111) 
9

>  <r_i_docking_score>  (111) 
-2.35358

>  <r_i_glide_ligand_efficiency>  (111) 
-0.0653773

>  <r_i_glide_ligand_efficiency_sa>  (111) 
-0.215871

>  <r_i_glide_ligand_efficiency_ln>  (111) 
-0.513488

>  <r_i_glide_gscore>  (111) 
-2.35358

>  <r_i_glide_lipo>  (111) 
0

>  <r_i_glide_hbond>  (111) 
0

>  <r_i_glide_metal>  (111) 
-0

>  <r_i_glide_rewards>  (111) 
-0.506912

>  <r_i_glide_evdw>  (111) 
-21.8867

>  <r_i_glide_ecoul>  (111) 
-5.50711

>  <r_i_glide_erotb>  (111) 
0.07373

>  <r_i_glide_esite>  (111) 
0

>  <r_i_glide_emodel>  (111) 
-34.7418

>  <r_i_glide_energy>  (111) 
-27.3938

>  <r_i_glide_einternal>  (111) 
6.13066

>  <r_i_glide_intrahb_reward>  (111) 
-0.5

>  <i_i_glide_confnum>  (111) 
2

>  <i_i_glide_posenum>  (111) 
21

>  <r_i_glide_eff_state_penalty>  (111) 
0

>  <ligand_id>  (111) 
48

>  <original_smiles>  (111) 
C=C1C(O)C23C(O)CCC4(C)C(OC(C)=O)CC(O)C(=C)C2(O)C42C(C(O)C(O)C3(O)C2(C)C)[S+]1[O-]

>  <smiles>  (111) 
[H]OC1([H])C(=C([H])[H])C2(O[H])C34C([H])(O[H])C(=C([H])[H])S(=O)C5([H])C([H])(O[H])C([H])(O[H])C3(O[H])C(C([H])([H])[H])(C([H])([H])[H])C25C(C([H])([H])[H])(C([H])([H])C([H])([H])C4([H])O[H])C([H])(OC(=O)C([H])([H])[H])C1([H])[H]

$$$$
55:0:0
     RDKit          3D

 69 72  0  0  1  0  0  0  0  0999 V2000
   -1.7672   -4.5579    7.2913 C   0  0  0  0  0  0  0  0  0  0  0  0
   -0.4944   -5.1010    6.5525 C   0  0  0  0  0  0  0  0  0  0  0  0
   -0.5386   -6.0659    5.7872 O   0  0  0  0  0  0  0  0  0  0  0  0
    0.6225   -4.4162    6.8171 O   0  0  0  0  0  0  0  0  0  0  0  0
    0.6356   -3.1213    7.3935 C   0  0  0  0  0  0  0  0  0  0  0  0
    0.4738   -1.9321    6.3747 C   0  0  1  0  0  0  0  0  0  0  0  0
   -0.8946   -2.0400    5.6259 C   0  0  0  0  0  0  0  0  0  0  0  0
    0.3170   -0.6063    7.2206 C   0  0  1  0  0  0  0  0  0  0  0  0
    1.2358   -0.4378    8.3033 O   0  0  0  0  0  0  0  0  0  0  0  0
    0.8971   -0.7488    9.5668 C   0  0  0  0  0  0  0  0  0  0  0  0
    2.0379   -0.4963   10.5439 C   0  0  0  0  0  0  0  0  0  0  0  0
   -0.1813   -1.2051    9.9344 O   0  0  0  0  0  0  0  0  0  0  0  0
    0.2741    0.6463    6.3269 C   0  0  1  0  0  0  0  0  0  0  0  0
   -0.0093    1.8282    7.0727 O   0  0  0  0  0  0  0  0  0  0  0  0
   -1.2660    2.1230    7.4593 C   0  0  0  0  0  0  0  0  0  0  0  0
   -1.3392    3.4827    8.1544 C   0  0  0  0  0  0  0  0  0  0  0  0
   -2.2574    1.4133    7.2977 O   0  0  0  0  0  0  0  0  0  0  0  0
    1.5256    0.7977    5.4247 C   0  0  2  0  0  0  0  0  0  0  0  0
    2.6309    1.0551    6.2848 O   0  0  0  0  0  0  0  0  0  0  0  0
    1.3956    1.7848    4.2235 C   0  0  1  0  0  0  0  0  0  0  0  0
    0.7667    3.0169    4.5452 O   0  0  0  0  0  0  0  0  0  0  0  0
    2.8121    2.1429    3.6898 C   0  0  0  0  0  0  0  0  0  0  0  0
    3.7561    0.9279    3.5534 C   0  0  0  0  0  0  0  0  0  0  0  0
    3.1083   -0.4569    3.7723 C   0  0  1  0  0  0  0  0  0  0  0  0
    4.3222   -1.5185    4.6767 S   0  0  0  0  0  0  0  0  0  0  0  0
    4.6921   -2.6765    3.7439 O   0  0  0  0  0  0  0  0  0  0  0  0
    3.1072   -2.1435    5.9137 C   0  0  1  0  0  0  0  0  0  0  0  0
    3.3788   -1.6169    7.1929 O   0  0  0  0  0  0  0  0  0  0  0  0
    1.6798   -1.8659    5.3154 C   0  0  1  0  0  0  0  0  0  0  0  0
    1.4632   -2.9748    4.2212 C   0  0  0  0  0  0  0  0  0  0  0  0
    1.7800   -0.4789    4.5823 C   0  0  1  0  0  0  0  0  0  0  0  0
    0.7241   -0.3589    3.6176 O   0  0  0  0  0  0  0  0  0  0  0  0
    0.5368    0.9857    3.1786 C   0  0  0  0  0  0  0  0  0  0  0  0
   -0.9803    1.3040    3.1916 C   0  0  0  0  0  0  0  0  0  0  0  0
    0.9963    1.0351    1.7078 C   0  0  0  0  0  0  0  0  0  0  0  0
   -1.5968   -4.6559    8.4136 H   0  0  0  0  0  0  0  0  0  0  0  0
   -2.6285   -5.2727    7.0888 H   0  0  0  0  0  0  0  0  0  0  0  0
   -1.9795   -3.6147    6.9792 H   0  0  0  0  0  0  0  0  0  0  0  0
   -0.1280   -3.0513    8.1606 H   0  0  0  0  0  0  0  0  0  0  0  0
    1.5774   -3.0434    7.9348 H   0  0  0  0  0  0  0  0  0  0  0  0
   -1.0039   -1.3389    4.8050 H   0  0  0  0  0  0  0  0  0  0  0  0
   -1.7346   -1.9451    6.3216 H   0  0  0  0  0  0  0  0  0  0  0  0
   -1.0256   -3.0450    5.2249 H   0  0  0  0  0  0  0  0  0  0  0  0
   -0.6674   -0.6580    7.6831 H   0  0  0  0  0  0  0  0  0  0  0  0
    2.3591    0.5409   10.4858 H   0  0  0  0  0  0  0  0  0  0  0  0
    2.8915   -1.1354   10.3014 H   0  0  0  0  0  0  0  0  0  0  0  0
    1.7337   -0.7113   11.5715 H   0  0  0  0  0  0  0  0  0  0  0  0
   -0.5767    0.4920    5.6745 H   0  0  0  0  0  0  0  0  0  0  0  0
   -0.7231    3.4799    9.0541 H   0  0  0  0  0  0  0  0  0  0  0  0
   -2.3626    3.7292    8.4406 H   0  0  0  0  0  0  0  0  0  0  0  0
   -0.9669    4.2685    7.4977 H   0  0  0  0  0  0  0  0  0  0  0  0
    3.3748    1.3005    5.7599 H   0  0  0  0  0  0  0  0  0  0  0  0
    0.7506    3.5507    3.7616 H   0  0  0  0  0  0  0  0  0  0  0  0
    2.7565    2.6722    2.7393 H   0  0  0  0  0  0  0  0  0  0  0  0
    3.2915    2.8546    4.3621 H   0  0  0  0  0  0  0  0  0  0  0  0
    4.1997    0.9221    2.5632 H   0  0  0  0  0  0  0  0  0  0  0  0
    4.6005    1.0628    4.2316 H   0  0  0  0  0  0  0  0  0  0  0  0
    2.9343   -0.9426    2.8057 H   0  0  0  0  0  0  0  0  0  0  0  0
    3.2710   -3.2165    6.0145 H   0  0  0  0  0  0  0  0  0  0  0  0
    2.8369   -0.8464    7.3079 H   0  0  0  0  0  0  0  0  0  0  0  0
    2.2720   -3.0291    3.5023 H   0  0  0  0  0  0  0  0  0  0  0  0
    0.5601   -2.8111    3.6294 H   0  0  0  0  0  0  0  0  0  0  0  0
    1.3936   -3.9804    4.6360 H   0  0  0  0  0  0  0  0  0  0  0  0
   -1.1884    2.1832    2.5852 H   0  0  0  0  0  0  0  0  0  0  0  0
   -1.3895    1.5119    4.1771 H   0  0  0  0  0  0  0  0  0  0  0  0
   -1.5428    0.4795    2.7693 H   0  0  0  0  0  0  0  0  0  0  0  0
    0.9306    2.0378    1.2937 H   0  0  0  0  0  0  0  0  0  0  0  0
    0.3399    0.4008    1.1139 H   0  0  0  0  0  0  0  0  0  0  0  0
    2.0037    0.6621    1.5349 H   0  0  0  0  0  0  0  0  0  0  0  0
  1  2  1  0
  1 36  1  0
  1 37  1  0
  1 38  1  0
  2  3  2  0
  2  4  1  0
  4  5  1  0
  6  5  1  1
  5 39  1  0
  5 40  1  0
  6 29  1  0
  6  7  1  0
  6  8  1  0
  7 41  1  0
  7 42  1  0
  7 43  1  0
  8  9  1  0
  8 13  1  0
  8 44  1  1
  9 10  1  0
 10 11  1  0
 10 12  2  0
 11 45  1  0
 11 46  1  0
 11 47  1  0
 13 14  1  0
 13 18  1  0
 13 48  1  6
 14 15  1  0
 15 16  1  0
 15 17  2  0
 16 49  1  0
 16 50  1  0
 16 51  1  0
 18 31  1  0
 18 19  1  1
 18 20  1  0
 19 52  1  0
 20 33  1  0
 20 21  1  1
 20 22  1  0
 21 53  1  0
 22 23  1  0
 22 54  1  0
 22 55  1  0
 23 24  1  0
 23 56  1  0
 23 57  1  0
 24 31  1  0
 24 25  1  0
 24 58  1  6
 25 26  2  0
 25 27  1  1
 27 28  1  0
 27 29  1  0
 27 59  1  1
 28 60  1  0
 29 30  1  6
 29 31  1  0
 30 61  1  0
 30 62  1  0
 30 63  1  0
 31 32  1  6
 32 33  1  0
 33 34  1  0
 33 35  1  0
 34 64  1  0
 34 65  1  0
 34 66  1  0
 35 67  1  0
 35 68  1  0
 35 69  1  0
M  END
>  <i_m_ct_stereo_status>  (112) 
1

>  <s_m_source_file>  (112) 
/var/tmp/pbs.5075288.sched01/tmp4tfr24xl/130i3iej58d.sdf

>  <i_m_source_file_index>  (112) 
14

>  <i_lp_mmshare_version>  (112) 
48012

>  <i_f3d_flags>  (112) 
0

>  <s_epik_input>  (112) 
W0NIM11DKD1PKU9bQ0BASF0xW0NASF0oT0MoPU8pW0NIM10pW0NAXShbQ0gzXSkoW0NIMl1PQyg9TylbQ0gzXSlbQ0BdMihbQ0gzXSlbQ0BIXShbT0hdKVtTK10oW08tXSlbQ0BASF0zW0NIMl1bQ0gyXVtDQF0oW09IXSkoW0NAQF0xKFtDQF0yMzQpW09IXSlDKE80KShbQ0gzXSlbQ0gzXQ==

>  <s_epik_cmdline>  (112) 
J2VwaWtfcHl0aG9uJywgJy1waHQnLCAnMi4wJywgJy1waCcsICc3LjAnLCAnLXRuJywgJzgnLCAnLW1hJywgJzIwMCcsICctaW1hZScsICc8aW5maWxlLm1hZT4nLCAnLW9tYWUnLCAnPG91dGZpbGUubWFlPic=

>  <r_lp_tautomer_probability>  (112) 
1

>  <r_epik_Ionization_Penalty>  (112) 
3.07624e-06

>  <r_epik_Ionization_Penalty_Charging>  (112) 
0

>  <r_epik_Ionization_Penalty_Neutral>  (112) 
3.07624e-06

>  <r_epik_State_Penalty>  (112) 
-0

>  <r_epik_Charging_Adjusted_Penalty>  (112) 
0

>  <i_epik_Tot_Q>  (112) 
0

>  <i_epik_Tot_abs_Q>  (112) 
2

>  <s_epik_Chemistry_Notes>  (112) 
This compound has an ester and may undergo hydrolysis at high or low pH. This compound contains an acetal/aminal-like group ( X-CH(R)-Y where X, Y are N, S, or O) that may be acid/base labile, releasing an aldehyde.

>  <s_lp_Force_Field>  (112) 
OPLS3e

>  <r_lp_Energy>  (112) 
43.0363

>  <b_lp_Chiralities_Consistent>  (112) 
1

>  <s_lp_Variant>  (112) 
55:0-1

>  <s_i_glide_gridfile>  (112) 
pfpi4k_grid

>  <i_i_glide_lignum>  (112) 
14

>  <i_i_glide_rotatable_bonds>  (112) 
10

>  <r_i_docking_score>  (112) 
-2.96886

>  <r_i_glide_ligand_efficiency>  (112) 
-0.0848246

>  <r_i_glide_ligand_efficiency_sa>  (112) 
-0.277467

>  <r_i_glide_ligand_efficiency_ln>  (112) 
-0.651731

>  <r_i_glide_gscore>  (112) 
-2.96886

>  <r_i_glide_lipo>  (112) 
-0.115061

>  <r_i_glide_hbond>  (112) 
-0.232016

>  <r_i_glide_metal>  (112) 
-0

>  <r_i_glide_rewards>  (112) 
-1.06758

>  <r_i_glide_evdw>  (112) 
-26.0965

>  <r_i_glide_ecoul>  (112) 
-3.49066

>  <r_i_glide_erotb>  (112) 
0.305507

>  <r_i_glide_esite>  (112) 
-0.0312856

>  <r_i_glide_emodel>  (112) 
-40.8743

>  <r_i_glide_energy>  (112) 
-29.5872

>  <r_i_glide_einternal>  (112) 
6.45667

>  <r_i_glide_intrahb_reward>  (112) 
-1

>  <i_i_glide_confnum>  (112) 
1

>  <i_i_glide_posenum>  (112) 
26

>  <r_i_glide_eff_state_penalty>  (112) 
0

>  <ligand_id>  (112) 
55

>  <original_smiles>  (112) 
CC(=O)OCC1(C)C(OC(C)=O)C(OC(C)=O)C2(O)C3(O)CCC4[S+]([O-])C(O)C1(C)C42OC3(C)C

>  <smiles>  (112) 
[H]OC1([H])S(=O)C2([H])C([H])([H])C([H])([H])C3(O[H])C(C([H])([H])[H])(C([H])([H])[H])OC24C3(O[H])C([H])(OC(=O)C([H])([H])[H])C([H])(OC(=O)C([H])([H])[H])C(C([H])([H])[H])(C([H])([H])OC(=O)C([H])([H])[H])C14C([H])([H])[H]

$$$$
55:0:1
     RDKit          3D

 69 72  0  0  1  0  0  0  0  0999 V2000
    2.9457    0.5056    2.0857 C   0  0  0  0  0  0  0  0  0  0  0  0
    3.9246   -0.6532    2.2207 C   0  0  0  0  0  0  0  0  0  0  0  0
    4.8230   -0.8321    1.3963 O   0  0  0  0  0  0  0  0  0  0  0  0
    3.6561   -1.4292    3.2914 O   0  0  0  0  0  0  0  0  0  0  0  0
    4.3245   -2.6762    3.4891 C   0  0  0  0  0  0  0  0  0  0  0  0
    3.4172   -3.9413    3.2531 C   0  0  1  0  0  0  0  0  0  0  0  0
    2.8332   -3.7780    1.8048 C   0  0  0  0  0  0  0  0  0  0  0  0
    4.3393   -5.2227    3.1717 C   0  0  1  0  0  0  0  0  0  0  0  0
    5.3568   -5.2751    4.1942 O   0  0  0  0  0  0  0  0  0  0  0  0
    6.6171   -5.7934    3.9727 C   0  0  0  0  0  0  0  0  0  0  0  0
    6.8876   -6.3626    2.5847 C   0  0  0  0  0  0  0  0  0  0  0  0
    7.4516   -5.8939    4.9118 O   0  0  0  0  0  0  0  0  0  0  0  0
    3.5076   -6.5383    3.0583 C   0  0  1  0  0  0  0  0  0  0  0  0
    4.2468   -7.7330    2.7885 O   0  0  0  0  0  0  0  0  0  0  0  0
    4.6715   -8.0927    1.5144 C   0  0  0  0  0  0  0  0  0  0  0  0
    4.2373   -7.1267    0.4207 C   0  0  0  0  0  0  0  0  0  0  0  0
    5.3890   -9.0661    1.3144 O   0  0  0  0  0  0  0  0  0  0  0  0
    2.5476   -6.7597    4.2453 C   0  0  2  0  0  0  0  0  0  0  0  0
    3.3577   -7.0150    5.3857 O   0  0  0  0  0  0  0  0  0  0  0  0
    1.4308   -7.8276    4.0317 C   0  0  1  0  0  0  0  0  0  0  0  0
    1.8866   -9.0522    3.4766 O   0  0  0  0  0  0  0  0  0  0  0  0
    0.8187   -8.2111    5.3992 C   0  0  0  0  0  0  0  0  0  0  0  0
    0.5183   -7.0046    6.3179 C   0  0  0  0  0  0  0  0  0  0  0  0
    0.7008   -5.6022    5.6815 C   0  0  1  0  0  0  0  0  0  0  0  0
    1.3990   -4.4560    6.9562 S   0  0  0  0  0  0  0  0  0  0  0  0
    0.3475   -3.3614    7.2311 O   0  0  0  0  0  0  0  0  0  0  0  0
    2.6945   -3.7575    5.8365 C   0  0  1  0  0  0  0  0  0  0  0  0
    3.9745   -4.1926    6.2290 O   0  0  0  0  0  0  0  0  0  0  0  0
    2.2597   -4.0802    4.3591 C   0  0  1  0  0  0  0  0  0  0  0  0
    1.1230   -3.0489    4.0337 C   0  0  0  0  0  0  0  0  0  0  0  0
    1.6159   -5.5195    4.4165 C   0  0  1  0  0  0  0  0  0  0  0  0
    0.7582   -5.7126    3.2793 O   0  0  0  0  0  0  0  0  0  0  0  0
    0.4133   -7.0888    3.0881 C   0  0  0  0  0  0  0  0  0  0  0  0
    0.5707   -7.4039    1.5792 C   0  0  0  0  0  0  0  0  0  0  0  0
   -1.0906   -7.2405    3.4020 C   0  0  0  0  0  0  0  0  0  0  0  0
    1.9192    0.1377    2.0318 H   0  0  0  0  0  0  0  0  0  0  0  0
    3.1502    1.0711    1.1768 H   0  0  0  0  0  0  0  0  0  0  0  0
    3.0327    1.1771    2.9399 H   0  0  0  0  0  0  0  0  0  0  0  0
    5.2117   -2.7266    2.8556 H   0  0  0  0  0  0  0  0  0  0  0  0
    4.7088   -2.6639    4.5064 H   0  0  0  0  0  0  0  0  0  0  0  0
    2.0892   -4.5275    1.5535 H   0  0  0  0  0  0  0  0  0  0  0  0
    3.6070   -3.8337    1.0371 H   0  0  0  0  0  0  0  0  0  0  0  0
    2.3436   -2.8196    1.6388 H   0  0  0  0  0  0  0  0  0  0  0  0
    4.8681   -5.0547    2.2409 H   0  0  0  0  0  0  0  0  0  0  0  0
    6.6346   -5.6715    1.7666 H   0  0  0  0  0  0  0  0  0  0  0  0
    6.2503   -7.1891    2.6382 H   0  0  0  0  0  0  0  0  0  0  0  0
    7.8660   -6.8092    2.4507 H   0  0  0  0  0  0  0  0  0  0  0  0
    2.8641   -6.3500    2.2119 H   0  0  0  0  0  0  0  0  0  0  0  0
    3.1695   -7.1295    0.3596 H   0  0  0  0  0  0  0  0  0  0  0  0
    4.6644   -7.4272   -0.5304 H   0  0  0  0  0  0  0  0  0  0  0  0
    4.5588   -6.1358    0.6677 H   0  0  0  0  0  0  0  0  0  0  0  0
    3.8114   -7.8312    5.2158 H   0  0  0  0  0  0  0  0  0  0  0  0
    2.3075   -8.8904    2.6462 H   0  0  0  0  0  0  0  0  0  0  0  0
   -0.0675   -8.8273    5.2574 H   0  0  0  0  0  0  0  0  0  0  0  0
    1.5109   -8.8665    5.9323 H   0  0  0  0  0  0  0  0  0  0  0  0
   -0.5021   -7.0739    6.6792 H   0  0  0  0  0  0  0  0  0  0  0  0
    1.1375   -7.1018    7.2104 H   0  0  0  0  0  0  0  0  0  0  0  0
   -0.2727   -5.1836    5.4307 H   0  0  0  0  0  0  0  0  0  0  0  0
    2.7021   -2.6817    6.0022 H   0  0  0  0  0  0  0  0  0  0  0  0
    4.2539   -4.8884    5.6471 H   0  0  0  0  0  0  0  0  0  0  0  0
    0.3367   -3.0221    4.7820 H   0  0  0  0  0  0  0  0  0  0  0  0
    0.6210   -3.2511    3.0886 H   0  0  0  0  0  0  0  0  0  0  0  0
    1.4869   -2.0270    3.9808 H   0  0  0  0  0  0  0  0  0  0  0  0
    0.0434   -8.3199    1.3102 H   0  0  0  0  0  0  0  0  0  0  0  0
    1.5930   -7.5798    1.2803 H   0  0  0  0  0  0  0  0  0  0  0  0
    0.1639   -6.6063    0.9524 H   0  0  0  0  0  0  0  0  0  0  0  0
   -1.4023   -8.2853    3.3225 H   0  0  0  0  0  0  0  0  0  0  0  0
   -1.6754   -6.6506    2.7023 H   0  0  0  0  0  0  0  0  0  0  0  0
   -1.3498   -6.8877    4.3953 H   0  0  0  0  0  0  0  0  0  0  0  0
  1  2  1  0
  1 36  1  0
  1 37  1  0
  1 38  1  0
  2  3  2  0
  2  4  1  0
  4  5  1  0
  6  5  1  1
  5 39  1  0
  5 40  1  0
  6 29  1  0
  6  7  1  0
  6  8  1  0
  7 41  1  0
  7 42  1  0
  7 43  1  0
  8  9  1  0
  8 13  1  0
  8 44  1  6
  9 10  1  0
 10 11  1  0
 10 12  2  0
 11 45  1  0
 11 46  1  0
 11 47  1  0
 13 14  1  0
 13 18  1  0
 13 48  1  6
 14 15  1  0
 15 16  1  0
 15 17  2  0
 16 49  1  0
 16 50  1  0
 16 51  1  0
 18 31  1  0
 18 19  1  1
 18 20  1  0
 19 52  1  0
 20 33  1  0
 20 21  1  6
 20 22  1  0
 21 53  1  0
 22 23  1  0
 22 54  1  0
 22 55  1  0
 23 24  1  0
 23 56  1  0
 23 57  1  0
 24 31  1  0
 24 25  1  0
 24 58  1  6
 25 26  2  0
 25 27  1  6
 27 28  1  0
 27 29  1  0
 27 59  1  6
 28 60  1  0
 29 30  1  6
 29 31  1  0
 30 61  1  0
 30 62  1  0
 30 63  1  0
 31 32  1  6
 32 33  1  0
 33 34  1  0
 33 35  1  0
 34 64  1  0
 34 65  1  0
 34 66  1  0
 35 67  1  0
 35 68  1  0
 35 69  1  0
M  END
>  <i_m_ct_stereo_status>  (113) 
1

>  <s_m_source_file>  (113) 
/var/tmp/pbs.5075288.sched01/tmp4tfr24xl/130i3iej58d.sdf

>  <i_m_source_file_index>  (113) 
14

>  <i_lp_mmshare_version>  (113) 
48012

>  <i_f3d_flags>  (113) 
0

>  <s_epik_input>  (113) 
W0NIM11DKD1PKU9bQ0BASF0xW0NASF0oT0MoPU8pW0NIM10pW0NAXShbQ0gzXSkoW0NIMl1PQyg9TylbQ0gzXSlbQ0BdMihbQ0gzXSlbQ0BIXShbT0hdKVtTK10oW08tXSlbQ0BASF0zW0NIMl1bQ0gyXVtDQF0oW09IXSkoW0NAQF0xKFtDQF0yMzQpW09IXSlDKE80KShbQ0gzXSlbQ0gzXQ==

>  <s_epik_cmdline>  (113) 
J2VwaWtfcHl0aG9uJywgJy1waHQnLCAnMi4wJywgJy1waCcsICc3LjAnLCAnLXRuJywgJzgnLCAnLW1hJywgJzIwMCcsICctaW1hZScsICc8aW5maWxlLm1hZT4nLCAnLW9tYWUnLCAnPG91dGZpbGUubWFlPic=

>  <r_lp_tautomer_probability>  (113) 
1

>  <r_epik_Ionization_Penalty>  (113) 
3.07624e-06

>  <r_epik_Ionization_Penalty_Charging>  (113) 
0

>  <r_epik_Ionization_Penalty_Neutral>  (113) 
3.07624e-06

>  <r_epik_State_Penalty>  (113) 
-0

>  <r_epik_Charging_Adjusted_Penalty>  (113) 
0

>  <i_epik_Tot_Q>  (113) 
0

>  <i_epik_Tot_abs_Q>  (113) 
2

>  <s_epik_Chemistry_Notes>  (113) 
This compound has an ester and may undergo hydrolysis at high or low pH. This compound contains an acetal/aminal-like group ( X-CH(R)-Y where X, Y are N, S, or O) that may be acid/base labile, releasing an aldehyde.

>  <s_lp_Force_Field>  (113) 
OPLS3e

>  <r_lp_Energy>  (113) 
43.0363

>  <b_lp_Chiralities_Consistent>  (113) 
1

>  <s_lp_Variant>  (113) 
55:0-1

>  <s_i_glide_gridfile>  (113) 
pfpi4k_grid

>  <i_i_glide_lignum>  (113) 
14

>  <i_i_glide_rotatable_bonds>  (113) 
10

>  <r_i_docking_score>  (113) 
-2.65666

>  <r_i_glide_ligand_efficiency>  (113) 
-0.0759047

>  <r_i_glide_ligand_efficiency_sa>  (113) 
-0.248289

>  <r_i_glide_ligand_efficiency_ln>  (113) 
-0.583197

>  <r_i_glide_gscore>  (113) 
-2.65666

>  <r_i_glide_lipo>  (113) 
-0.302181

>  <r_i_glide_hbond>  (113) 
-0.000946438

>  <r_i_glide_metal>  (113) 
-0

>  <r_i_glide_rewards>  (113) 
-1.08236

>  <r_i_glide_evdw>  (113) 
-26.9612

>  <r_i_glide_ecoul>  (113) 
-1.52411

>  <r_i_glide_erotb>  (113) 
0.305507

>  <r_i_glide_esite>  (113) 
0

>  <r_i_glide_emodel>  (113) 
-36.6787

>  <r_i_glide_energy>  (113) 
-28.4854

>  <r_i_glide_einternal>  (113) 
11.7392

>  <r_i_glide_intrahb_reward>  (113) 
-1

>  <i_i_glide_confnum>  (113) 
2

>  <i_i_glide_posenum>  (113) 
30

>  <r_i_glide_eff_state_penalty>  (113) 
0

>  <ligand_id>  (113) 
55

>  <original_smiles>  (113) 
CC(=O)OCC1(C)C(OC(C)=O)C(OC(C)=O)C2(O)C3(O)CCC4[S+]([O-])C(O)C1(C)C42OC3(C)C

>  <smiles>  (113) 
[H]OC1([H])S(=O)C2([H])C([H])([H])C([H])([H])C3(O[H])C(C([H])([H])[H])(C([H])([H])[H])OC24C3(O[H])C([H])(OC(=O)C([H])([H])[H])C([H])(OC(=O)C([H])([H])[H])C(C([H])([H])[H])(C([H])([H])OC(=O)C([H])([H])[H])C14C([H])([H])[H]

$$$$
55:0:2
     RDKit          3D

 69 72  0  0  1  0  0  0  0  0999 V2000
    2.3710   -5.4817    4.8784 C   0  0  0  0  0  0  0  0  0  0  0  0
    1.4990   -4.7533    3.8706 C   0  0  0  0  0  0  0  0  0  0  0  0
    1.0117   -5.3542    2.8999 O   0  0  0  0  0  0  0  0  0  0  0  0
    1.2920   -3.4472    4.1178 O   0  0  0  0  0  0  0  0  0  0  0  0
    1.8362   -2.7830    5.2548 C   0  0  0  0  0  0  0  0  0  0  0  0
    1.0250   -1.5147    5.6659 C   0  0  1  0  0  0  0  0  0  0  0  0
   -0.4509   -1.9875    5.8411 C   0  0  0  0  0  0  0  0  0  0  0  0
    1.4993   -1.1201    7.1139 C   0  0  1  0  0  0  0  0  0  0  0  0
    2.9159   -1.1198    7.2888 O   0  0  0  0  0  0  0  0  0  0  0  0
    3.5043   -1.7416    8.3320 C   0  0  0  0  0  0  0  0  0  0  0  0
    5.0239   -1.6244    8.2871 C   0  0  0  0  0  0  0  0  0  0  0  0
    2.9404   -2.3506    9.2344 O   0  0  0  0  0  0  0  0  0  0  0  0
    0.8862    0.2052    7.5859 C   0  0  1  0  0  0  0  0  0  0  0  0
    1.2131    0.5103    8.9431 O   0  0  0  0  0  0  0  0  0  0  0  0
    0.6184   -0.1205    9.9679 C   0  0  0  0  0  0  0  0  0  0  0  0
    1.0470    0.4148   11.3254 C   0  0  0  0  0  0  0  0  0  0  0  0
   -0.1921   -1.0599    9.8648 O   0  0  0  0  0  0  0  0  0  0  0  0
    1.1581    1.4108    6.6309 C   0  0  2  0  0  0  0  0  0  0  0  0
    2.5533    1.7067    6.7041 O   0  0  0  0  0  0  0  0  0  0  0  0
    0.2537    2.6566    6.8172 C   0  0  1  0  0  0  0  0  0  0  0  0
    0.0423    3.0093    8.1771 O   0  0  0  0  0  0  0  0  0  0  0  0
    0.9033    3.8947    6.1207 C   0  0  0  0  0  0  0  0  0  0  0  0
    1.4576    3.5915    4.7110 C   0  0  0  0  0  0  0  0  0  0  0  0
    1.1204    2.1846    4.1550 C   0  0  1  0  0  0  0  0  0  0  0  0
    2.5969    1.5709    3.2369 S   0  0  0  0  0  0  0  0  0  0  0  0
    2.2071    1.4032    1.7553 O   0  0  0  0  0  0  0  0  0  0  0  0
    2.5819   -0.1047    3.9995 C   0  0  1  0  0  0  0  0  0  0  0  0
    3.6651   -0.2667    4.8831 O   0  0  0  0  0  0  0  0  0  0  0  0
    1.1558   -0.3163    4.6098 C   0  0  1  0  0  0  0  0  0  0  0  0
    0.2271   -0.6082    3.3841 C   0  0  0  0  0  0  0  0  0  0  0  0
    0.7297    1.0774    5.1907 C   0  0  1  0  0  0  0  0  0  0  0  0
   -0.7013    1.1350    5.3317 O   0  0  0  0  0  0  0  0  0  0  0  0
   -1.0984    2.2329    6.1552 C   0  0  0  0  0  0  0  0  0  0  0  0
   -2.1716    1.7033    7.1380 C   0  0  0  0  0  0  0  0  0  0  0  0
   -1.8069    3.2586    5.2413 C   0  0  0  0  0  0  0  0  0  0  0  0
    3.3455   -5.0057    4.9757 H   0  0  0  0  0  0  0  0  0  0  0  0
    2.5564   -6.5245    4.5747 H   0  0  0  0  0  0  0  0  0  0  0  0
    1.8880   -5.5022    5.8543 H   0  0  0  0  0  0  0  0  0  0  0  0
    1.8176   -3.4433    6.1130 H   0  0  0  0  0  0  0  0  0  0  0  0
    2.8763   -2.5438    5.0395 H   0  0  0  0  0  0  0  0  0  0  0  0
   -1.1419   -1.1742    6.0413 H   0  0  0  0  0  0  0  0  0  0  0  0
   -0.5332   -2.6963    6.6608 H   0  0  0  0  0  0  0  0  0  0  0  0
   -0.8324   -2.5123    4.9637 H   0  0  0  0  0  0  0  0  0  0  0  0
    1.1104   -1.9126    7.7616 H   0  0  0  0  0  0  0  0  0  0  0  0
    5.3274   -0.5779    8.2498 H   0  0  0  0  0  0  0  0  0  0  0  0
    5.4239   -2.1373    7.4113 H   0  0  0  0  0  0  0  0  0  0  0  0
    5.4650   -2.0772    9.1777 H   0  0  0  0  0  0  0  0  0  0  0  0
   -0.1787    0.0232    7.5715 H   0  0  0  0  0  0  0  0  0  0  0  0
    2.1194    0.2700   11.4640 H   0  0  0  0  0  0  0  0  0  0  0  0
    0.5220   -0.0886   12.1396 H   0  0  0  0  0  0  0  0  0  0  0  0
    0.8355    1.4823   11.3907 H   0  0  0  0  0  0  0  0  0  0  0  0
    3.0447    0.9170    6.5019 H   0  0  0  0  0  0  0  0  0  0  0  0
   -0.4461    3.8204    8.2015 H   0  0  0  0  0  0  0  0  0  0  0  0
    0.2116    4.7326    6.0772 H   0  0  0  0  0  0  0  0  0  0  0  0
    1.7312    4.2462    6.7353 H   0  0  0  0  0  0  0  0  0  0  0  0
    1.1237    4.3498    4.0036 H   0  0  0  0  0  0  0  0  0  0  0  0
    2.5422    3.7144    4.7515 H   0  0  0  0  0  0  0  0  0  0  0  0
    0.3176    2.2781    3.4161 H   0  0  0  0  0  0  0  0  0  0  0  0
    2.7580   -0.8291    3.1945 H   0  0  0  0  0  0  0  0  0  0  0  0
    4.1117   -1.0769    4.6699 H   0  0  0  0  0  0  0  0  0  0  0  0
    0.2990    0.1370    2.5965 H   0  0  0  0  0  0  0  0  0  0  0  0
   -0.8253   -0.6296    3.6655 H   0  0  0  0  0  0  0  0  0  0  0  0
    0.4619   -1.5556    2.9014 H   0  0  0  0  0  0  0  0  0  0  0  0
   -2.7291    2.5326    7.5796 H   0  0  0  0  0  0  0  0  0  0  0  0
   -1.7711    1.1365    7.9755 H   0  0  0  0  0  0  0  0  0  0  0  0
   -2.8888    1.0659    6.6177 H   0  0  0  0  0  0  0  0  0  0  0  0
   -2.1129    4.1434    5.8030 H   0  0  0  0  0  0  0  0  0  0  0  0
   -2.7019    2.8145    4.8010 H   0  0  0  0  0  0  0  0  0  0  0  0
   -1.1976    3.5944    4.4063 H   0  0  0  0  0  0  0  0  0  0  0  0
  1  2  1  0
  1 36  1  0
  1 37  1  0
  1 38  1  0
  2  3  2  0
  2  4  1  0
  4  5  1  0
  6  5  1  6
  5 39  1  0
  5 40  1  0
  6 29  1  0
  6  7  1  0
  6  8  1  0
  7 41  1  0
  7 42  1  0
  7 43  1  0
  8  9  1  0
  8 13  1  0
  8 44  1  1
  9 10  1  0
 10 11  1  0
 10 12  2  0
 11 45  1  0
 11 46  1  0
 11 47  1  0
 13 14  1  0
 13 18  1  0
 13 48  1  1
 14 15  1  0
 15 16  1  0
 15 17  2  0
 16 49  1  0
 16 50  1  0
 16 51  1  0
 18 31  1  0
 18 19  1  6
 18 20  1  0
 19 52  1  0
 20 33  1  0
 20 21  1  1
 20 22  1  0
 21 53  1  0
 22 23  1  0
 22 54  1  0
 22 55  1  0
 23 24  1  0
 23 56  1  0
 23 57  1  0
 24 31  1  0
 24 25  1  0
 24 58  1  6
 25 26  2  0
 25 27  1  1
 27 28  1  0
 27 29  1  0
 27 59  1  6
 28 60  1  0
 29 30  1  6
 29 31  1  0
 30 61  1  0
 30 62  1  0
 30 63  1  0
 31 32  1  1
 32 33  1  0
 33 34  1  0
 33 35  1  0
 34 64  1  0
 34 65  1  0
 34 66  1  0
 35 67  1  0
 35 68  1  0
 35 69  1  0
M  END
>  <i_m_ct_stereo_status>  (114) 
1

>  <s_m_source_file>  (114) 
/var/tmp/pbs.5075288.sched01/tmp4tfr24xl/130i3iej58d.sdf

>  <i_m_source_file_index>  (114) 
14

>  <i_lp_mmshare_version>  (114) 
48012

>  <i_f3d_flags>  (114) 
0

>  <s_epik_input>  (114) 
W0NIM11DKD1PKU9bQ0BASF0xW0NASF0oT0MoPU8pW0NIM10pW0NAXShbQ0gzXSkoW0NIMl1PQyg9TylbQ0gzXSlbQ0BdMihbQ0gzXSlbQ0BIXShbT0hdKVtTK10oW08tXSlbQ0BASF0zW0NIMl1bQ0gyXVtDQF0oW09IXSkoW0NAQF0xKFtDQF0yMzQpW09IXSlDKE80KShbQ0gzXSlbQ0gzXQ==

>  <s_epik_cmdline>  (114) 
J2VwaWtfcHl0aG9uJywgJy1waHQnLCAnMi4wJywgJy1waCcsICc3LjAnLCAnLXRuJywgJzgnLCAnLW1hJywgJzIwMCcsICctaW1hZScsICc8aW5maWxlLm1hZT4nLCAnLW9tYWUnLCAnPG91dGZpbGUubWFlPic=

>  <r_lp_tautomer_probability>  (114) 
1

>  <r_epik_Ionization_Penalty>  (114) 
3.07624e-06

>  <r_epik_Ionization_Penalty_Charging>  (114) 
0

>  <r_epik_Ionization_Penalty_Neutral>  (114) 
3.07624e-06

>  <r_epik_State_Penalty>  (114) 
-0

>  <r_epik_Charging_Adjusted_Penalty>  (114) 
0

>  <i_epik_Tot_Q>  (114) 
0

>  <i_epik_Tot_abs_Q>  (114) 
2

>  <s_epik_Chemistry_Notes>  (114) 
This compound has an ester and may undergo hydrolysis at high or low pH. This compound contains an acetal/aminal-like group ( X-CH(R)-Y where X, Y are N, S, or O) that may be acid/base labile, releasing an aldehyde.

>  <s_lp_Force_Field>  (114) 
OPLS3e

>  <r_lp_Energy>  (114) 
43.0363

>  <b_lp_Chiralities_Consistent>  (114) 
1

>  <s_lp_Variant>  (114) 
55:0-1

>  <s_i_glide_gridfile>  (114) 
pfpi4k_grid

>  <i_i_glide_lignum>  (114) 
14

>  <i_i_glide_rotatable_bonds>  (114) 
10

>  <r_i_docking_score>  (114) 
-2.1173

>  <r_i_glide_ligand_efficiency>  (114) 
-0.0604944

>  <r_i_glide_ligand_efficiency_sa>  (114) 
-0.197881

>  <r_i_glide_ligand_efficiency_ln>  (114) 
-0.464795

>  <r_i_glide_gscore>  (114) 
-2.1173

>  <r_i_glide_lipo>  (114) 
-0.000377135

>  <r_i_glide_hbond>  (114) 
-0.0930147

>  <r_i_glide_metal>  (114) 
-0

>  <r_i_glide_rewards>  (114) 
-1

>  <r_i_glide_evdw>  (114) 
-23.3616

>  <r_i_glide_ecoul>  (114) 
-0.826077

>  <r_i_glide_erotb>  (114) 
0.305507

>  <r_i_glide_esite>  (114) 
-0.0374267

>  <r_i_glide_emodel>  (114) 
-35.501

>  <r_i_glide_energy>  (114) 
-24.1877

>  <r_i_glide_einternal>  (114) 
6.70942

>  <r_i_glide_intrahb_reward>  (114) 
-1

>  <i_i_glide_confnum>  (114) 
2

>  <i_i_glide_posenum>  (114) 
11

>  <r_i_glide_eff_state_penalty>  (114) 
0

>  <ligand_id>  (114) 
55

>  <original_smiles>  (114) 
CC(=O)OCC1(C)C(OC(C)=O)C(OC(C)=O)C2(O)C3(O)CCC4[S+]([O-])C(O)C1(C)C42OC3(C)C

>  <smiles>  (114) 
[H]OC1([H])S(=O)C2([H])C([H])([H])C([H])([H])C3(O[H])C(C([H])([H])[H])(C([H])([H])[H])OC24C3(O[H])C([H])(OC(=O)C([H])([H])[H])C([H])(OC(=O)C([H])([H])[H])C(C([H])([H])[H])(C([H])([H])OC(=O)C([H])([H])[H])C14C([H])([H])[H]

$$$$
56:1:0
     RDKit          3D

158171  0  0  1  0  0  0  0  0999 V2000
    7.0722   -4.9731   11.6308 C   0  0  0  0  0  0  0  0  0  0  0  0
    5.7324   -4.9087   11.5793 C   0  0  0  0  0  0  0  0  0  0  0  0
    4.9297   -4.6469   10.3387 C   0  0  0  0  0  0  0  0  0  0  0  0
    3.4505   -4.3931   10.7994 C   0  0  1  0  0  0  0  0  0  0  0  0
    3.4332   -5.1638   12.1774 C   0  0  0  0  0  0  0  0  0  0  0  0
    4.8204   -5.1054   12.7604 C   0  0  1  0  0  0  0  0  0  0  0  0
    5.1367   -6.3057   13.4473 O   0  0  0  0  0  0  0  0  0  0  0  0
    3.3157   -2.7966   11.3505 C   0  0  2  0  0  0  0  0  0  0  0  0
    1.9257   -2.1362   11.7606 C   0  0  0  0  0  0  0  0  0  0  0  0
    1.1946   -2.6358   12.6103 O   0  0  0  0  0  0  0  0  0  0  0  0
    1.5299   -0.8220   10.8996 C   0  0  1  0  0  0  0  0  0  0  0  0
    0.0974   -1.0304   10.3354 C   0  0  0  0  0  0  0  0  0  0  0  0
    1.4168    0.5441   11.7138 C   0  0  1  0  0  0  0  0  0  0  0  0
    0.5948    0.4942   12.9928 C   0  0  0  0  0  0  0  0  0  0  0  0
    2.0374    0.5312   13.0083 O   0  0  0  0  0  0  0  0  0  0  0  0
    1.5522    1.9253   10.9443 C   0  0  1  0  0  0  0  0  0  0  0  0
    1.4625    3.1442   11.9037 C   0  0  0  0  0  0  0  0  0  0  0  0
    2.8590    2.0146   10.1746 C   0  0  0  0  0  0  0  0  0  0  0  0
    2.5413    1.3510    8.7891 C   0  0  2  0  0  0  0  0  0  0  0  0
    3.0582    2.1725    7.7710 O   0  0  0  0  0  0  0  0  0  0  0  0
    1.1339    1.2862    8.7406 O   0  0  0  0  0  0  0  0  0  0  0  0
    0.6278    2.1746    9.7275 C   0  0  1  0  0  0  0  0  0  0  0  0
   -0.8951    2.1339    9.9430 C   0  0  0  0  0  0  0  0  0  0  0  0
    3.1448   -0.0677    8.6508 C   0  0  1  0  0  0  0  0  0  0  0  0
    4.7040   -0.0104    8.9163 C   0  0  0  0  0  0  0  0  0  0  0  0
    5.1606   -1.1968    9.8140 C   0  0  1  0  0  0  0  0  0  0  0  0
    6.3655   -0.8506   10.4701 O   0  0  0  0  0  0  0  0  0  0  0  0
    3.9201   -1.4620   10.7102 C   0  0  2  0  0  0  0  0  0  0  0  0
    4.2238   -0.6138   11.8338 O   0  0  0  0  0  0  0  0  0  0  0  0
    2.7231   -0.9433    9.8819 C   0  0  1  0  0  0  0  0  0  0  0  0
    2.4581   -2.0237    9.1172 O   0  0  0  0  0  0  0  0  0  0  0  0
    2.9812   -0.6241    7.2367 O   0  0  0  0  0  0  0  0  0  0  0  0
    1.8183   -1.1078    6.4380 C   0  0  1  0  0  0  0  0  0  0  0  0
    1.5577   -0.3128    4.7179 S   0  0  0  0  0  0  0  0  0  0  0  0
    2.2387    1.0523    4.8452 O   0  0  0  0  0  0  0  0  0  0  0  0
    2.3268   -1.0726    3.1363 C   0  0  0  0  0  0  0  0  0  0  0  0
    1.8074   -2.4603    2.4746 C   0  0  0  0  0  0  0  0  0  0  0  0
    2.8507   -3.3194    1.6250 C   0  0  2  0  0  0  0  0  0  0  0  0
    3.4029   -2.4666    0.4845 C   0  0  0  0  0  0  0  0  0  0  0  0
    2.2846   -4.5732    1.1764 O   0  0  0  0  0  0  0  0  0  0  0  0
    3.5576   -4.7270    1.7954 C   0  0  2  0  0  0  0  0  0  0  0  0
    3.6737   -5.7238    3.0232 C   0  0  1  0  0  0  0  0  0  0  0  0
    4.6840   -6.7510    3.0013 O   0  0  0  0  0  0  0  0  0  0  0  0
    4.9891   -5.6355    3.8122 C   0  0  1  0  0  0  0  0  0  0  0  0
    5.9751   -4.9760    3.2466 O   0  0  0  0  0  0  0  0  0  0  0  0
    5.1005   -5.6211    5.3761 C   0  0  1  0  0  0  0  0  0  0  0  0
    6.2434   -6.4723    5.5389 O   0  0  0  0  0  0  0  0  0  0  0  0
    5.4773   -4.2199    5.9541 C   0  0  0  0  0  0  0  0  0  0  0  0
    6.6294   -4.0071    6.3426 O   0  0  0  0  0  0  0  0  0  0  0  0
    4.3874   -3.0955    6.0047 C   0  0  1  0  0  0  0  0  0  0  0  0
    4.4839   -2.6368    7.2759 O   0  0  0  0  0  0  0  0  0  0  0  0
    4.9618   -1.9632    5.0572 C   0  0  0  0  0  0  0  0  0  0  0  0
    5.2212   -2.1259    3.7554 C   0  0  0  0  0  0  0  0  0  0  0  0
    5.4448   -0.6124    5.6038 C   0  0  0  0  0  0  0  0  0  0  0  0
    2.8530   -3.6301    6.0017 C   0  0  2  0  0  0  0  0  0  0  0  0
    2.7339   -3.8100    4.6593 O   0  0  0  0  0  0  0  0  0  0  0  0
    1.5490   -2.6812    6.3575 C   0  0  2  0  0  0  0  0  0  0  0  0
    0.2828   -2.9575    5.4547 C   0  0  0  0  0  0  0  0  0  0  0  0
    0.8173   -2.9980    7.5871 O   0  0  0  0  0  0  0  0  0  0  0  0
    0.6391   -4.3088    8.1665 C   0  0  2  0  0  0  0  0  0  0  0  0
   -0.5884   -5.0956    7.5667 C   0  0  0  0  0  0  0  0  0  0  0  0
    0.2770   -4.2094    9.6514 C   0  0  1  0  0  0  0  0  0  0  0  0
   -1.0810   -4.0890   10.0533 O   0  0  0  0  0  0  0  0  0  0  0  0
    1.0248   -5.2753   10.4299 C   0  0  1  0  0  0  0  0  0  0  0  0
    0.2676   -6.4876   10.3767 O   0  0  0  0  0  0  0  0  0  0  0  0
    0.3462   -7.4048   11.3679 C   0  0  0  0  0  0  0  0  0  0  0  0
   -0.2313   -8.7452   10.9386 C   0  0  0  0  0  0  0  0  0  0  0  0
    0.8270   -7.2338   12.4867 O   0  0  0  0  0  0  0  0  0  0  0  0
    2.4483   -5.2853    9.7624 C   0  0  2  0  0  0  0  0  0  0  0  0
    2.9710   -6.6439    9.7894 O   0  0  0  0  0  0  0  0  0  0  0  0
    2.5489   -7.7428    9.0871 C   0  0  0  0  0  0  0  0  0  0  0  0
    3.3281   -8.9936    9.4759 C   0  0  0  0  0  0  0  0  0  0  0  0
    1.6566   -7.7804    8.2405 O   0  0  0  0  0  0  0  0  0  0  0  0
    2.1248   -4.8731    8.2099 C   0  0  1  0  0  0  0  0  0  0  0  0
    2.7237   -5.0865    6.6928 C   0  0  1  0  0  0  0  0  0  0  0  0
    1.6048   -5.6807    6.1386 O   0  0  0  0  0  0  0  0  0  0  0  0
    3.9240   -6.1434    6.2867 C   0  0  2  0  0  0  0  0  0  0  0  0
    4.5792   -6.4619    7.4839 O   0  0  0  0  0  0  0  0  0  0  0  0
    3.4295   -7.3647    5.7123 O   0  0  0  0  0  0  0  0  0  0  0  0
    2.6106   -7.6127    4.5783 C   0  0  0  0  0  0  0  0  0  0  0  0
    2.0086   -8.7849    4.5648 C   0  0  0  0  0  0  0  0  0  0  0  0
    1.0188   -9.2706    3.5009 C   0  0  0  0  0  0  0  0  0  0  0  0
    2.1729   -9.8335    5.6710 C   0  0  0  0  0  0  0  0  0  0  0  0
    2.4681   -6.5766    3.3894 C   0  0  1  0  0  0  0  0  0  0  0  0
    1.2462   -5.8561    3.4483 O   0  0  0  0  0  0  0  0  0  0  0  0
    7.5916   -5.1957   12.5488 H   0  0  0  0  0  0  0  0  0  0  0  0
    7.6792   -4.8694   10.7497 H   0  0  0  0  0  0  0  0  0  0  0  0
    5.3806   -3.8773    9.7196 H   0  0  0  0  0  0  0  0  0  0  0  0
    5.0376   -5.5627    9.7686 H   0  0  0  0  0  0  0  0  0  0  0  0
    2.6671   -4.8040   12.8880 H   0  0  0  0  0  0  0  0  0  0  0  0
    3.1480   -6.2083   12.0483 H   0  0  0  0  0  0  0  0  0  0  0  0
    4.9430   -4.2644   13.4517 H   0  0  0  0  0  0  0  0  0  0  0  0
    5.1307   -7.0181   12.8200 H   0  0  0  0  0  0  0  0  0  0  0  0
    3.8550   -2.8242   12.2947 H   0  0  0  0  0  0  0  0  0  0  0  0
   -0.5585   -0.2025   10.5336 H   0  0  0  0  0  0  0  0  0  0  0  0
   -0.4420   -1.8066   10.8673 H   0  0  0  0  0  0  0  0  0  0  0  0
    0.0584   -1.2174    9.2674 H   0  0  0  0  0  0  0  0  0  0  0  0
    0.0782    1.3959   13.3207 H   0  0  0  0  0  0  0  0  0  0  0  0
    0.1278   -0.4524   13.2892 H   0  0  0  0  0  0  0  0  0  0  0  0
    1.6839    4.0788   11.3902 H   0  0  0  0  0  0  0  0  0  0  0  0
    2.1670    3.0640   12.7264 H   0  0  0  0  0  0  0  0  0  0  0  0
    0.4648    3.2687   12.3145 H   0  0  0  0  0  0  0  0  0  0  0  0
    3.1367    3.0567   10.0091 H   0  0  0  0  0  0  0  0  0  0  0  0
    3.6783    1.5871   10.7332 H   0  0  0  0  0  0  0  0  0  0  0  0
    2.8439    1.7739    6.9350 H   0  0  0  0  0  0  0  0  0  0  0  0
    0.8343    3.1688    9.3357 H   0  0  0  0  0  0  0  0  0  0  0  0
   -1.3354    3.1186    9.8103 H   0  0  0  0  0  0  0  0  0  0  0  0
   -1.1687    1.8162   10.9515 H   0  0  0  0  0  0  0  0  0  0  0  0
   -1.3738    1.4689    9.2265 H   0  0  0  0  0  0  0  0  0  0  0  0
    5.2419   -0.0664    7.9947 H   0  0  0  0  0  0  0  0  0  0  0  0
    5.0396    0.9488    9.3359 H   0  0  0  0  0  0  0  0  0  0  0  0
    5.4496   -2.0423    9.2272 H   0  0  0  0  0  0  0  0  0  0  0  0
    7.0527   -0.8323    9.8227 H   0  0  0  0  0  0  0  0  0  0  0  0
    4.3586    0.2621   11.5047 H   0  0  0  0  0  0  0  0  0  0  0  0
    3.2639   -2.2799    8.6941 H   0  0  0  0  0  0  0  0  0  0  0  0
    0.9696   -0.6893    6.9871 H   0  0  0  0  0  0  0  0  0  0  0  0
    2.0748   -0.3432    2.3456 H   0  0  0  0  0  0  0  0  0  0  0  0
    3.3945   -0.9948    3.2545 H   0  0  0  0  0  0  0  0  0  0  0  0
    1.2224   -3.1640    3.0521 H   0  0  0  0  0  0  0  0  0  0  0  0
    1.0392   -2.1771    1.7450 H   0  0  0  0  0  0  0  0  0  0  0  0
    4.0288   -1.6700    0.8796 H   0  0  0  0  0  0  0  0  0  0  0  0
    2.6082   -2.0257   -0.1071 H   0  0  0  0  0  0  0  0  0  0  0  0
    4.0012   -3.0750   -0.1961 H   0  0  0  0  0  0  0  0  0  0  0  0
    4.3345   -4.9437    1.0579 H   0  0  0  0  0  0  0  0  0  0  0  0
    6.8570   -6.1822    4.8712 H   0  0  0  0  0  0  0  0  0  0  0  0
    4.0121   -1.8069    7.2589 H   0  0  0  0  0  0  0  0  0  0  0  0
    5.0145   -2.9912    3.1856 H   0  0  0  0  0  0  0  0  0  0  0  0
    5.6585   -1.3145    3.1940 H   0  0  0  0  0  0  0  0  0  0  0  0
    4.6435    0.0301    5.9479 H   0  0  0  0  0  0  0  0  0  0  0  0
    5.9187   -0.0024    4.8351 H   0  0  0  0  0  0  0  0  0  0  0  0
    6.2283   -0.7650    6.3485 H   0  0  0  0  0  0  0  0  0  0  0  0
    3.4439   -4.3555    4.3576 H   0  0  0  0  0  0  0  0  0  0  0  0
    0.1235   -2.3356    4.5853 H   0  0  0  0  0  0  0  0  0  0  0  0
   -0.6532   -2.8160    5.9944 H   0  0  0  0  0  0  0  0  0  0  0  0
    0.2541   -3.9617    5.0429 H   0  0  0  0  0  0  0  0  0  0  0  0
   -0.6592   -6.0931    7.9993 H   0  0  0  0  0  0  0  0  0  0  0  0
   -0.6344   -5.2243    6.4963 H   0  0  0  0  0  0  0  0  0  0  0  0
   -1.5281   -4.5884    7.7705 H   0  0  0  0  0  0  0  0  0  0  0  0
    0.7251   -3.3201    9.9718 H   0  0  0  0  0  0  0  0  0  0  0  0
   -1.1023   -3.9585   10.9910 H   0  0  0  0  0  0  0  0  0  0  0  0
    1.0474   -4.9687   11.4662 H   0  0  0  0  0  0  0  0  0  0  0  0
    0.2562   -9.0666   10.0202 H   0  0  0  0  0  0  0  0  0  0  0  0
   -1.3003   -8.6625   10.7339 H   0  0  0  0  0  0  0  0  0  0  0  0
   -0.0655   -9.5170   11.6918 H   0  0  0  0  0  0  0  0  0  0  0  0
    3.2416   -9.1956   10.5479 H   0  0  0  0  0  0  0  0  0  0  0  0
    4.3848   -8.8630    9.2410 H   0  0  0  0  0  0  0  0  0  0  0  0
    2.9593   -9.8697    8.9361 H   0  0  0  0  0  0  0  0  0  0  0  0
    2.8218   -4.0850    8.3393 H   0  0  0  0  0  0  0  0  0  0  0  0
    1.5451   -6.5518    6.5206 H   0  0  0  0  0  0  0  0  0  0  0  0
    5.3286   -6.9722    7.2002 H   0  0  0  0  0  0  0  0  0  0  0  0
    0.1442   -9.7118    3.9750 H   0  0  0  0  0  0  0  0  0  0  0  0
    1.4695  -10.0264    2.8633 H   0  0  0  0  0  0  0  0  0  0  0  0
    0.6430   -8.4597    2.8730 H   0  0  0  0  0  0  0  0  0  0  0  0
    2.4737  -10.7873    5.2592 H   0  0  0  0  0  0  0  0  0  0  0  0
    1.2348   -9.9965    6.1891 H   0  0  0  0  0  0  0  0  0  0  0  0
    2.9114   -9.5536    6.4172 H   0  0  0  0  0  0  0  0  0  0  0  0
    2.3796   -7.2049    2.4958 H   0  0  0  0  0  0  0  0  0  0  0  0
    1.3428   -5.2641    4.1898 H   0  0  0  0  0  0  0  0  0  0  0  0
  1  2  2  0
  1 86  1  0
  1 87  1  0
  2  6  1  0
  2  3  1  0
  4  3  1  6
  3 88  1  0
  3 89  1  0
  4 69  1  0
  4  5  1  0
  4  8  1  0
  5  6  1  0
  5 90  1  0
  5 91  1  0
  6  7  1  0
  6 92  1  1
  7 93  1  0
  8 28  1  0
  8  9  1  0
  8 94  1  1
  9 10  2  0
  9 11  1  0
 11 30  1  0
 11 12  1  6
 11 13  1  0
 12 95  1  0
 12 96  1  0
 12 97  1  0
 13 15  1  1
 13 14  1  0
 13 16  1  0
 14 15  1  0
 14 98  1  0
 14 99  1  0
 16 22  1  0
 16 17  1  1
 16 18  1  0
 17100  1  0
 17101  1  0
 17102  1  0
 18 19  1  0
 18103  1  0
 18104  1  0
 19 20  1  6
 19 21  1  0
 19 24  1  0
 20105  1  0
 21 22  1  0
 22 23  1  0
 22106  1  6
 23107  1  0
 23108  1  0
 23109  1  0
 24 30  1  0
 24 25  1  0
 24 32  1  6
 25 26  1  0
 25110  1  0
 25111  1  0
 26 27  1  0
 26 28  1  0
 26112  1  6
 27113  1  0
 28 29  1  1
 28 30  1  0
 29114  1  0
 30 31  1  6
 31115  1  0
 32 33  1  0
 33 57  1  0
 33 34  1  0
 33116  1  1
 34 35  2  0
 34 36  1  6
 36 37  1  0
 36117  1  0
 36118  1  0
 37 38  1  0
 37119  1  0
 37120  1  0
 38 41  1  0
 38 39  1  6
 38 40  1  0
 39121  1  0
 39122  1  0
 39123  1  0
 40 41  1  0
 41 42  1  0
 41124  1  6
 42 44  1  0
 42 84  1  0
 42 43  1  6
 43 44  1  0
 44 45  1  6
 44 46  1  0
 46 77  1  0
 46 47  1  6
 46 48  1  0
 47125  1  0
 48 49  2  0
 48 50  1  0
 50 51  1  1
 50 52  1  0
 50 55  1  0
 51126  1  0
 52 53  2  0
 52 54  1  0
 53127  1  0
 53128  1  0
 54129  1  0
 54130  1  0
 54131  1  0
 55 75  1  0
 55 56  1  6
 55 57  1  0
 56132  1  0
 57 58  1  6
 57 59  1  0
 58133  1  0
 58134  1  0
 58135  1  0
 59 60  1  0
 60 74  1  0
 60 61  1  6
 60 62  1  0
 61136  1  0
 61137  1  0
 61138  1  0
 62 63  1  0
 62 64  1  0
 62139  1  1
 63140  1  0
 64 65  1  0
 64 69  1  0
 64141  1  1
 65 66  1  0
 66 67  1  0
 66 68  2  0
 67142  1  0
 67143  1  0
 67144  1  0
 69 70  1  6
 69 74  1  0
 70 71  1  0
 71 72  1  0
 71 73  2  0
 72145  1  0
 72146  1  0
 72147  1  0
 74 75  1  0
 74148  1  1
 75 76  1  6
 75 77  1  0
 76149  1  0
 77 78  1  1
 77 79  1  0
 78150  1  0
 79 80  1  0
 80 81  2  3
 80 84  1  0
 81 82  1  0
 81 83  1  0
 82151  1  0
 82152  1  0
 82153  1  0
 83154  1  0
 83155  1  0
 83156  1  0
 84 85  1  0
 84157  1  6
 85158  1  0
M  CHG  1  45  -1
M  END
>  <i_m_ct_stereo_status>  (115) 
1

>  <s_m_source_file>  (115) 
/var/tmp/pbs.5075288.sched01/tmp4tfr24xl/130i3iej58d.sdf

>  <i_m_source_file_index>  (115) 
16

>  <i_lp_mmshare_version>  (115) 
48012

>  <i_f3d_flags>  (115) 
0

>  <s_epik_input>  (115) 
W0NIMl0xW0NAQEhdKFtPSF0pQyg9W0NIMl0pW0NIMl1bQ0BdMTJbQ0BASF0zW0NAXTQoW09IXSlbQ0BdNShbT0hdKVtDQF0oW0NIMl1bQ0BIXTRbT0hdKShbQ0BdNihbT0hdKVtDSDJdW0NAQF0oW0NIM10pKFtDQEBIXShPNilbQ0gzXSlbQ0BAXTcoW0NIMl1PNylbQ0BAXTUoQzM9TylbQ0gzXSlPW0NASF04W0NAQF05KFtDSDNdKVtDQF0xKFtPSF0pW0NAXShbT0hdKShbQ0BIXTNbQ0BAXShPOSkoW0NIM10pW0NAQEhdKFtPSF0pW0NAQEhdKE9DKD1PKVtDSDNdKVtDQF0yM09DKD1PKVtDSDNdKVtDQF0yKFtPSF0pW0NAXShbT0hdKShDKD1PKVtDQEBdMShbT0hdKUMoPVtDSDJdKVtDSDNdKVtDQF0xKFtPSF0pW0NAQF0oTzEpKFtDQEhdKFtPSF0pQyhPMik9QyhbQ0gzXSlbQ0gzXSlbQ0BASF0xW0NAXShPMSkoW0NIM10pW0NIMl1bQ0gyXVtTK104W08tXQ==

>  <s_epik_cmdline>  (115) 
J2VwaWtfcHl0aG9uJywgJy1waHQnLCAnMi4wJywgJy1waCcsICc3LjAnLCAnLXRuJywgJzgnLCAnLW1hJywgJzIwMCcsICctaW1hZScsICc8aW5maWxlLm1hZT4nLCAnLW9tYWUnLCAnPG91dGZpbGUubWFlPic=

>  <r_epik_Ionization_Penalty>  (115) 
2.15061

>  <r_epik_Ionization_Penalty_Charging>  (115) 
2.15013

>  <r_epik_Ionization_Penalty_Neutral>  (115) 
0.000486176

>  <r_epik_State_Penalty>  (115) 
2.2899

>  <r_epik_Charging_Adjusted_Penalty>  (115) 
4.44003

>  <i_epik_Tot_Q>  (115) 
-1

>  <i_epik_Tot_abs_Q>  (115) 
3

>  <s_epik_Chemistry_Notes>  (115) 
This compound has an ester and may undergo hydrolysis at high or low pH. This compound contains an acetal/aminal-like group ( X-CH(R)-Y where X, Y are N, S, or O) that may be acid/base labile, releasing an aldehyde.

>  <s_lp_Force_Field>  (115) 
OPLS3e

>  <r_lp_Energy>  (115) 
497.175

>  <b_lp_Chiralities_Consistent>  (115) 
1

>  <s_lp_Variant>  (115) 
56:0-2

>  <s_i_glide_gridfile>  (115) 
pfpi4k_grid

>  <i_i_glide_lignum>  (115) 
16

>  <i_i_glide_rotatable_bonds>  (115) 
17

>  <r_i_docking_score>  (115) 
-5.28806

>  <r_i_glide_ligand_efficiency>  (115) 
-0.0622124

>  <r_i_glide_ligand_efficiency_sa>  (115) 
-0.273537

>  <r_i_glide_ligand_efficiency_ln>  (115) 
-0.971595

>  <r_i_glide_gscore>  (115) 
-5.28806

>  <r_i_glide_lipo>  (115) 
-0.172096

>  <r_i_glide_hbond>  (115) 
-0.188365

>  <r_i_glide_metal>  (115) 
-0

>  <r_i_glide_rewards>  (115) 
-2.50384

>  <r_i_glide_evdw>  (115) 
-36.4501

>  <r_i_glide_ecoul>  (115) 
-4.19245

>  <r_i_glide_erotb>  (115) 
0.0454801

>  <r_i_glide_esite>  (115) 
-0.0178631

>  <r_i_glide_emodel>  (115) 
-75.412

>  <r_i_glide_energy>  (115) 
-40.6426

>  <r_i_glide_einternal>  (115) 
4.02271

>  <r_i_glide_intrahb_reward>  (115) 
-2.5

>  <i_i_glide_confnum>  (115) 
4

>  <i_i_glide_posenum>  (115) 
21

>  <r_i_glide_eff_state_penalty>  (115) 
0

>  <ligand_id>  (115) 
56

>  <original_smiles>  (115) 
C=C1CC2(CC1O)C1C(=O)C3(C)C4(CO4)C4(C)CC(O)(OC4C)C4(CC(O)C1(O)C43O)OC1[S+]([O-])CCC3(C)OC3C34OC3(O)C3(O)C(=O)C(O)(C(=C)C)C5(O)C1(C)OC1(C)C(O)C(OC(C)=O)C2(OC(C)=O)C1C5(O)C3(O)OC(=C(C)C)C4O

>  <smiles>  (115) 
[H]OC1([H])C(=C([H])[H])C([H])([H])C2(C1([H])[H])C1([H])C(=O)C3(C([H])([H])[H])C4(O[H])C(OC5([H])S(=O)C([H])([H])C([H])([H])C6(C([H])([H])[H])OC6([H])C67OC6([O-])C6(O[H])C(=O)C(O[H])(C(=C([H])[H])C([H])([H])[H])C8(O[H])C5(C([H])([H])[H])OC5(C([H])([H])[H])C([H])(O[H])C([H])(OC(=O)C([H])([H])[H])C2(OC(=O)C([H])([H])[H])C5([H])C8(O[H])C6(O[H])OC(=C(C([H])([H])[H])C([H])([H])[H])C7([H])O[H])(C([H])([H])C([H])(O[H])C14O[H])C1(O[H])OC([H])(C([H])([H])[H])C(C([H])([H])[H])(C1([H])[H])C31OC1([H])[H]

$$$$
56:1:1
     RDKit          3D

158171  0  0  1  0  0  0  0  0999 V2000
    7.0027   -4.9592   11.3191 C   0  0  0  0  0  0  0  0  0  0  0  0
    5.6601   -4.8698   11.2645 C   0  0  0  0  0  0  0  0  0  0  0  0
    4.8688   -4.5781   10.0173 C   0  0  0  0  0  0  0  0  0  0  0  0
    3.3924   -4.3075   10.4792 C   0  0  1  0  0  0  0  0  0  0  0  0
    3.3673   -5.1048   11.8510 C   0  0  0  0  0  0  0  0  0  0  0  0
    4.7267   -5.0734   12.4378 C   0  0  1  0  0  0  0  0  0  0  0  0
    5.0376   -6.2841   13.1051 O   0  0  0  0  0  0  0  0  0  0  0  0
    3.2756   -2.7135   11.0498 C   0  0  2  0  0  0  0  0  0  0  0  0
    1.8974   -2.0559   11.4597 C   0  0  0  0  0  0  0  0  0  0  0  0
    1.1635   -2.5488   12.3175 O   0  0  0  0  0  0  0  0  0  0  0  0
    1.5191   -0.7193   10.6211 C   0  0  1  0  0  0  0  0  0  0  0  0
    0.0813   -0.9077   10.0536 C   0  0  0  0  0  0  0  0  0  0  0  0
    1.4176    0.6410   11.4573 C   0  0  1  0  0  0  0  0  0  0  0  0
    0.5936    0.5836   12.7303 C   0  0  0  0  0  0  0  0  0  0  0  0
    2.0342    0.5954   12.7519 O   0  0  0  0  0  0  0  0  0  0  0  0
    1.5735    2.0267   10.7135 C   0  0  1  0  0  0  0  0  0  0  0  0
    1.4939    3.2245   11.6878 C   0  0  0  0  0  0  0  0  0  0  0  0
    2.8871    2.1073    9.9482 C   0  0  0  0  0  0  0  0  0  0  0  0
    2.5652    1.4767    8.5568 C   0  0  2  0  0  0  0  0  0  0  0  0
    3.0942    2.3043    7.5505 O   0  0  0  0  0  0  0  0  0  0  0  0
    1.1623    1.4193    8.5010 O   0  0  0  0  0  0  0  0  0  0  0  0
    0.6590    2.3018    9.4985 C   0  0  1  0  0  0  0  0  0  0  0  0
   -0.8650    2.2773    9.7006 C   0  0  0  0  0  0  0  0  0  0  0  0
    3.1517    0.0578    8.3928 C   0  0  1  0  0  0  0  0  0  0  0  0
    4.7146    0.0792    8.6656 C   0  0  0  0  0  0  0  0  0  0  0  0
    5.1528   -1.1246    9.5579 C   0  0  1  0  0  0  0  0  0  0  0  0
    6.3795   -0.8472   10.2348 O   0  0  0  0  0  0  0  0  0  0  0  0
    3.9040   -1.3787   10.4341 C   0  0  2  0  0  0  0  0  0  0  0  0
    4.2223   -0.5481   11.5632 O   0  0  0  0  0  0  0  0  0  0  0  0
    2.7230   -0.8418    9.6097 C   0  0  1  0  0  0  0  0  0  0  0  0
    2.4738   -1.9105    8.8243 O   0  0  0  0  0  0  0  0  0  0  0  0
    2.9802   -0.4688    6.9667 O   0  0  0  0  0  0  0  0  0  0  0  0
    1.8181   -0.9401    6.1580 C   0  0  1  0  0  0  0  0  0  0  0  0
    1.5776   -0.1112    4.4415 S   0  0  0  0  0  0  0  0  0  0  0  0
    2.2815    1.2390    4.5937 O   0  0  0  0  0  0  0  0  0  0  0  0
    2.3613   -0.8816    2.8716 C   0  0  0  0  0  0  0  0  0  0  0  0
    1.8277   -2.2359    2.1650 C   0  0  0  0  0  0  0  0  0  0  0  0
    2.8402   -3.0968    1.3156 C   0  0  2  0  0  0  0  0  0  0  0  0
    3.4126   -2.2435    0.1922 C   0  0  0  0  0  0  0  0  0  0  0  0
    2.2670   -4.3356    0.8569 O   0  0  0  0  0  0  0  0  0  0  0  0
    3.5298   -4.5281    1.4698 C   0  0  2  0  0  0  0  0  0  0  0  0
    3.6220   -5.5368    2.6741 C   0  0  1  0  0  0  0  0  0  0  0  0
    4.6351   -6.5756    2.6446 O   0  0  0  0  0  0  0  0  0  0  0  0
    4.9523   -5.4652    3.4541 C   0  0  1  0  0  0  0  0  0  0  0  0
    5.9073   -4.7826    2.8624 O   0  0  0  0  0  0  0  0  0  0  0  0
    5.0444   -5.4753    5.0226 C   0  0  1  0  0  0  0  0  0  0  0  0
    6.1550   -6.3757    5.1716 O   0  0  0  0  0  0  0  0  0  0  0  0
    5.4553   -4.0996    5.6230 C   0  0  0  0  0  0  0  0  0  0  0  0
    6.5997   -3.9253    6.0788 O   0  0  0  0  0  0  0  0  0  0  0  0
    4.3930   -2.9546    5.7050 C   0  0  1  0  0  0  0  0  0  0  0  0
    4.5315   -2.5527    7.0022 O   0  0  0  0  0  0  0  0  0  0  0  0
    4.9610   -1.8195    4.7733 C   0  0  0  0  0  0  0  0  0  0  0  0
    5.2294   -1.9587    3.4678 C   0  0  0  0  0  0  0  0  0  0  0  0
    5.4440   -0.4695    5.3254 C   0  0  0  0  0  0  0  0  0  0  0  0
    2.8393   -3.4621    5.6891 C   0  0  2  0  0  0  0  0  0  0  0  0
    2.7071   -3.6481    4.3401 O   0  0  0  0  0  0  0  0  0  0  0  0
    1.5347   -2.5059    6.0519 C   0  0  2  0  0  0  0  0  0  0  0  0
    0.2634   -2.7514    5.1454 C   0  0  0  0  0  0  0  0  0  0  0  0
    0.8080   -2.8188    7.2866 O   0  0  0  0  0  0  0  0  0  0  0  0
    0.6016   -4.1461    7.8345 C   0  0  2  0  0  0  0  0  0  0  0  0
   -0.6397   -4.9121    7.2188 C   0  0  0  0  0  0  0  0  0  0  0  0
    0.2233   -4.0699    9.3187 C   0  0  1  0  0  0  0  0  0  0  0  0
   -1.1415   -3.9290    9.7025 O   0  0  0  0  0  0  0  0  0  0  0  0
    0.9593   -5.1515   10.0869 C   0  0  1  0  0  0  0  0  0  0  0  0
    0.2157   -6.3731   10.0123 O   0  0  0  0  0  0  0  0  0  0  0  0
    0.2399   -7.2746   11.0185 C   0  0  0  0  0  0  0  0  0  0  0  0
   -0.1861   -8.6580   10.5356 C   0  0  0  0  0  0  0  0  0  0  0  0
    0.5796   -7.0649   12.1809 O   0  0  0  0  0  0  0  0  0  0  0  0
    2.3804   -5.1740    9.4197 C   0  0  2  0  0  0  0  0  0  0  0  0
    2.8983   -6.5371    9.4349 O   0  0  0  0  0  0  0  0  0  0  0  0
    2.4624   -7.6253    8.7181 C   0  0  0  0  0  0  0  0  0  0  0  0
    3.2300   -8.8886    9.0836 C   0  0  0  0  0  0  0  0  0  0  0  0
    1.5632   -7.6467    7.8789 O   0  0  0  0  0  0  0  0  0  0  0  0
    2.0791   -4.7322    7.8727 C   0  0  1  0  0  0  0  0  0  0  0  0
    2.6787   -4.9257    6.3516 C   0  0  1  0  0  0  0  0  0  0  0  0
    1.5457   -5.4820    5.7646 O   0  0  0  0  0  0  0  0  0  0  0  0
    3.8591   -5.9901    5.9305 C   0  0  2  0  0  0  0  0  0  0  0  0
    4.4900   -6.3258    7.1399 O   0  0  0  0  0  0  0  0  0  0  0  0
    3.3612   -7.2007    5.3421 O   0  0  0  0  0  0  0  0  0  0  0  0
    2.5489   -7.4118    4.2160 C   0  0  0  0  0  0  0  0  0  0  0  0
    1.9168   -8.6115    4.1760 C   0  0  0  0  0  0  0  0  0  0  0  0
    0.9303   -9.0487    3.0996 C   0  0  0  0  0  0  0  0  0  0  0  0
    2.0692   -9.6613    5.2681 C   0  0  0  0  0  0  0  0  0  0  0  0
    2.4045   -6.3798    3.0477 C   0  0  1  0  0  0  0  0  0  0  0  0
    1.1736   -5.6583    3.1118 O   0  0  0  0  0  0  0  0  0  0  0  0
    7.5083   -5.1934   12.2378 H   0  0  0  0  0  0  0  0  0  0  0  0
    7.6120   -4.8436   10.4392 H   0  0  0  0  0  0  0  0  0  0  0  0
    5.3273   -3.7964    9.4242 H   0  0  0  0  0  0  0  0  0  0  0  0
    4.9674   -5.4857    9.4344 H   0  0  0  0  0  0  0  0  0  0  0  0
    2.6013   -4.7382   12.5518 H   0  0  0  0  0  0  0  0  0  0  0  0
    3.0592   -6.1438   11.7017 H   0  0  0  0  0  0  0  0  0  0  0  0
    4.8646   -4.2460   13.1384 H   0  0  0  0  0  0  0  0  0  0  0  0
    5.0243   -6.9895   12.4691 H   0  0  0  0  0  0  0  0  0  0  0  0
    3.8115   -2.7711   11.9950 H   0  0  0  0  0  0  0  0  0  0  0  0
   -0.5626   -0.0703   10.2649 H   0  0  0  0  0  0  0  0  0  0  0  0
   -0.4674   -1.6841   10.5727 H   0  0  0  0  0  0  0  0  0  0  0  0
    0.0426   -1.0731    8.9829 H   0  0  0  0  0  0  0  0  0  0  0  0
    0.0838    1.4768   13.0668 H   0  0  0  0  0  0  0  0  0  0  0  0
    0.1107   -0.3682   13.0094 H   0  0  0  0  0  0  0  0  0  0  0  0
    1.7310    4.1738   11.1900 H   0  0  0  0  0  0  0  0  0  0  0  0
    2.1935    3.1320   12.5167 H   0  0  0  0  0  0  0  0  0  0  0  0
    0.4947    3.3629   12.0961 H   0  0  0  0  0  0  0  0  0  0  0  0
    3.1816    3.1536    9.8017 H   0  0  0  0  0  0  0  0  0  0  0  0
    3.7007    1.6626   10.5056 H   0  0  0  0  0  0  0  0  0  0  0  0
    2.8928    1.9166    6.7140 H   0  0  0  0  0  0  0  0  0  0  0  0
    0.8783    3.3048    9.1125 H   0  0  0  0  0  0  0  0  0  0  0  0
   -1.2925    3.2715    9.5823 H   0  0  0  0  0  0  0  0  0  0  0  0
   -1.1452    1.9488   10.7045 H   0  0  0  0  0  0  0  0  0  0  0  0
   -1.3511    1.6300    8.9721 H   0  0  0  0  0  0  0  0  0  0  0  0
    5.2576    0.0158    7.7437 H   0  0  0  0  0  0  0  0  0  0  0  0
    5.0632    1.0246    9.0949 H   0  0  0  0  0  0  0  0  0  0  0  0
    5.4201   -1.9683    8.9627 H   0  0  0  0  0  0  0  0  0  0  0  0
    6.2566   -0.1052   10.7988 H   0  0  0  0  0  0  0  0  0  0  0  0
    4.2772    0.3408   11.2652 H   0  0  0  0  0  0  0  0  0  0  0  0
    1.8024   -1.6894    8.1981 H   0  0  0  0  0  0  0  0  0  0  0  0
    0.9690   -0.5137    6.6940 H   0  0  0  0  0  0  0  0  0  0  0  0
    2.1491   -0.1217    2.0848 H   0  0  0  0  0  0  0  0  0  0  0  0
    3.4037   -0.8198    2.9913 H   0  0  0  0  0  0  0  0  0  0  0  0
    1.2157   -2.9320    2.7448 H   0  0  0  0  0  0  0  0  0  0  0  0
    1.0530   -1.9004    1.4480 H   0  0  0  0  0  0  0  0  0  0  0  0
    4.0434   -1.4536    0.5973 H   0  0  0  0  0  0  0  0  0  0  0  0
    2.6190   -1.8010   -0.3915 H   0  0  0  0  0  0  0  0  0  0  0  0
    4.0135   -2.8411   -0.4956 H   0  0  0  0  0  0  0  0  0  0  0  0
    4.3088   -4.7341    0.7302 H   0  0  0  0  0  0  0  0  0  0  0  0
    5.9188   -7.2019    4.7777 H   0  0  0  0  0  0  0  0  0  0  0  0
    3.9342   -1.8287    7.1484 H   0  0  0  0  0  0  0  0  0  0  0  0
    5.0038   -2.7998    2.8802 H   0  0  0  0  0  0  0  0  0  0  0  0
    5.6787   -1.1497    2.9111 H   0  0  0  0  0  0  0  0  0  0  0  0
    4.6316    0.1643    5.6682 H   0  0  0  0  0  0  0  0  0  0  0  0
    5.9248    0.1423    4.5710 H   0  0  0  0  0  0  0  0  0  0  0  0
    6.2072   -0.6286    6.0882 H   0  0  0  0  0  0  0  0  0  0  0  0
    3.4523   -4.1306    4.0268 H   0  0  0  0  0  0  0  0  0  0  0  0
    0.1195   -2.1165    4.2841 H   0  0  0  0  0  0  0  0  0  0  0  0
   -0.6701   -2.6084    5.6867 H   0  0  0  0  0  0  0  0  0  0  0  0
    0.2156   -3.7464    4.7144 H   0  0  0  0  0  0  0  0  0  0  0  0
   -0.7217   -5.9156    7.6342 H   0  0  0  0  0  0  0  0  0  0  0  0
   -0.6865   -5.0305    6.1468 H   0  0  0  0  0  0  0  0  0  0  0  0
   -1.5793   -4.3984    7.4121 H   0  0  0  0  0  0  0  0  0  0  0  0
    0.6843   -3.1922    9.6522 H   0  0  0  0  0  0  0  0  0  0  0  0
   -1.5663   -4.7634    9.5914 H   0  0  0  0  0  0  0  0  0  0  0  0
    0.9752   -4.8557   11.1333 H   0  0  0  0  0  0  0  0  0  0  0  0
    0.4312   -8.9675    9.6949 H   0  0  0  0  0  0  0  0  0  0  0  0
   -1.2190   -8.6587   10.1703 H   0  0  0  0  0  0  0  0  0  0  0  0
   -0.0776   -9.4158   11.3136 H   0  0  0  0  0  0  0  0  0  0  0  0
    3.1339   -9.1086   10.1492 H   0  0  0  0  0  0  0  0  0  0  0  0
    4.2891   -8.7681    8.8501 H   0  0  0  0  0  0  0  0  0  0  0  0
    2.8473   -9.7466    8.5281 H   0  0  0  0  0  0  0  0  0  0  0  0
    2.7822   -3.9545    8.0266 H   0  0  0  0  0  0  0  0  0  0  0  0
    1.7772   -5.9374    4.9616 H   0  0  0  0  0  0  0  0  0  0  0  0
    4.9290   -5.5599    7.4717 H   0  0  0  0  0  0  0  0  0  0  0  0
    0.0484   -9.4873    3.5647 H   0  0  0  0  0  0  0  0  0  0  0  0
    1.3746   -9.8049    2.4541 H   0  0  0  0  0  0  0  0  0  0  0  0
    0.5716   -8.2298    2.4813 H   0  0  0  0  0  0  0  0  0  0  0  0
    2.3615  -10.6139    4.8409 H   0  0  0  0  0  0  0  0  0  0  0  0
    1.1245   -9.8206    5.7786 H   0  0  0  0  0  0  0  0  0  0  0  0
    2.8066   -9.4017    6.0209 H   0  0  0  0  0  0  0  0  0  0  0  0
    2.3179   -6.9847    2.1449 H   0  0  0  0  0  0  0  0  0  0  0  0
    1.3148   -4.9107    3.6841 H   0  0  0  0  0  0  0  0  0  0  0  0
  1  2  2  0
  1 86  1  0
  1 87  1  0
  2  6  1  0
  2  3  1  0
  4  3  1  6
  3 88  1  0
  3 89  1  0
  4 69  1  0
  4  5  1  0
  4  8  1  0
  5  6  1  0
  5 90  1  0
  5 91  1  0
  6  7  1  0
  6 92  1  1
  7 93  1  0
  8 28  1  0
  8  9  1  0
  8 94  1  1
  9 10  2  0
  9 11  1  0
 11 30  1  0
 11 12  1  6
 11 13  1  0
 12 95  1  0
 12 96  1  0
 12 97  1  0
 13 15  1  1
 13 14  1  0
 13 16  1  0
 14 15  1  0
 14 98  1  0
 14 99  1  0
 16 22  1  0
 16 17  1  1
 16 18  1  0
 17100  1  0
 17101  1  0
 17102  1  0
 18 19  1  0
 18103  1  0
 18104  1  0
 19 20  1  6
 19 21  1  0
 19 24  1  0
 20105  1  0
 21 22  1  0
 22 23  1  0
 22106  1  6
 23107  1  0
 23108  1  0
 23109  1  0
 24 30  1  0
 24 25  1  0
 24 32  1  6
 25 26  1  0
 25110  1  0
 25111  1  0
 26 27  1  0
 26 28  1  0
 26112  1  6
 27113  1  0
 28 29  1  1
 28 30  1  0
 29114  1  0
 30 31  1  6
 31115  1  0
 32 33  1  0
 33 57  1  0
 33 34  1  0
 33116  1  1
 34 35  2  0
 34 36  1  6
 36 37  1  0
 36117  1  0
 36118  1  0
 37 38  1  0
 37119  1  0
 37120  1  0
 38 41  1  0
 38 39  1  6
 38 40  1  0
 39121  1  0
 39122  1  0
 39123  1  0
 40 41  1  0
 41 42  1  0
 41124  1  6
 42 44  1  0
 42 84  1  0
 42 43  1  6
 43 44  1  0
 44 45  1  6
 44 46  1  0
 46 77  1  0
 46 47  1  6
 46 48  1  0
 47125  1  0
 48 49  2  0
 48 50  1  0
 50 51  1  1
 50 52  1  0
 50 55  1  0
 51126  1  0
 52 53  2  0
 52 54  1  0
 53127  1  0
 53128  1  0
 54129  1  0
 54130  1  0
 54131  1  0
 55 75  1  0
 55 56  1  6
 55 57  1  0
 56132  1  0
 57 58  1  6
 57 59  1  0
 58133  1  0
 58134  1  0
 58135  1  0
 59 60  1  0
 60 74  1  0
 60 61  1  6
 60 62  1  0
 61136  1  0
 61137  1  0
 61138  1  0
 62 63  1  0
 62 64  1  0
 62139  1  1
 63140  1  0
 64 65  1  0
 64 69  1  0
 64141  1  1
 65 66  1  0
 66 67  1  0
 66 68  2  0
 67142  1  0
 67143  1  0
 67144  1  0
 69 70  1  6
 69 74  1  0
 70 71  1  0
 71 72  1  0
 71 73  2  0
 72145  1  0
 72146  1  0
 72147  1  0
 74 75  1  0
 74148  1  1
 75 76  1  6
 75 77  1  0
 76149  1  0
 77 78  1  1
 77 79  1  0
 78150  1  0
 79 80  1  0
 80 81  2  3
 80 84  1  0
 81 82  1  0
 81 83  1  0
 82151  1  0
 82152  1  0
 82153  1  0
 83154  1  0
 83155  1  0
 83156  1  0
 84 85  1  0
 84157  1  6
 85158  1  0
M  CHG  1  45  -1
M  END
>  <i_m_ct_stereo_status>  (116) 
1

>  <s_m_source_file>  (116) 
/var/tmp/pbs.5075288.sched01/tmp4tfr24xl/130i3iej58d.sdf

>  <i_m_source_file_index>  (116) 
16

>  <i_lp_mmshare_version>  (116) 
48012

>  <i_f3d_flags>  (116) 
0

>  <s_epik_input>  (116) 
W0NIMl0xW0NAQEhdKFtPSF0pQyg9W0NIMl0pW0NIMl1bQ0BdMTJbQ0BASF0zW0NAXTQoW09IXSlbQ0BdNShbT0hdKVtDQF0oW0NIMl1bQ0BIXTRbT0hdKShbQ0BdNihbT0hdKVtDSDJdW0NAQF0oW0NIM10pKFtDQEBIXShPNilbQ0gzXSlbQ0BAXTcoW0NIMl1PNylbQ0BAXTUoQzM9TylbQ0gzXSlPW0NASF04W0NAQF05KFtDSDNdKVtDQF0xKFtPSF0pW0NAXShbT0hdKShbQ0BIXTNbQ0BAXShPOSkoW0NIM10pW0NAQEhdKFtPSF0pW0NAQEhdKE9DKD1PKVtDSDNdKVtDQF0yM09DKD1PKVtDSDNdKVtDQF0yKFtPSF0pW0NAXShbT0hdKShDKD1PKVtDQEBdMShbT0hdKUMoPVtDSDJdKVtDSDNdKVtDQF0xKFtPSF0pW0NAQF0oTzEpKFtDQEhdKFtPSF0pQyhPMik9QyhbQ0gzXSlbQ0gzXSlbQ0BASF0xW0NAXShPMSkoW0NIM10pW0NIMl1bQ0gyXVtTK104W08tXQ==

>  <s_epik_cmdline>  (116) 
J2VwaWtfcHl0aG9uJywgJy1waHQnLCAnMi4wJywgJy1waCcsICc3LjAnLCAnLXRuJywgJzgnLCAnLW1hJywgJzIwMCcsICctaW1hZScsICc8aW5maWxlLm1hZT4nLCAnLW9tYWUnLCAnPG91dGZpbGUubWFlPic=

>  <r_epik_Ionization_Penalty>  (116) 
2.15061

>  <r_epik_Ionization_Penalty_Charging>  (116) 
2.15013

>  <r_epik_Ionization_Penalty_Neutral>  (116) 
0.000486176

>  <r_epik_State_Penalty>  (116) 
2.2899

>  <r_epik_Charging_Adjusted_Penalty>  (116) 
4.44003

>  <i_epik_Tot_Q>  (116) 
-1

>  <i_epik_Tot_abs_Q>  (116) 
3

>  <s_epik_Chemistry_Notes>  (116) 
This compound has an ester and may undergo hydrolysis at high or low pH. This compound contains an acetal/aminal-like group ( X-CH(R)-Y where X, Y are N, S, or O) that may be acid/base labile, releasing an aldehyde.

>  <s_lp_Force_Field>  (116) 
OPLS3e

>  <r_lp_Energy>  (116) 
497.175

>  <b_lp_Chiralities_Consistent>  (116) 
1

>  <s_lp_Variant>  (116) 
56:0-2

>  <s_i_glide_gridfile>  (116) 
pfpi4k_grid

>  <i_i_glide_lignum>  (116) 
16

>  <i_i_glide_rotatable_bonds>  (116) 
17

>  <r_i_docking_score>  (116) 
-4.71381

>  <r_i_glide_ligand_efficiency>  (116) 
-0.0554565

>  <r_i_glide_ligand_efficiency_sa>  (116) 
-0.243833

>  <r_i_glide_ligand_efficiency_ln>  (116) 
-0.866086

>  <r_i_glide_gscore>  (116) 
-4.71381

>  <r_i_glide_lipo>  (116) 
-0.175593

>  <r_i_glide_hbond>  (116) 
-0.244499

>  <r_i_glide_metal>  (116) 
-0

>  <r_i_glide_rewards>  (116) 
-2.00607

>  <r_i_glide_evdw>  (116) 
-36.292

>  <r_i_glide_ecoul>  (116) 
-3.23479

>  <r_i_glide_erotb>  (116) 
0.0454801

>  <r_i_glide_esite>  (116) 
-0.0333061

>  <r_i_glide_emodel>  (116) 
-67.6603

>  <r_i_glide_energy>  (116) 
-39.5268

>  <r_i_glide_einternal>  (116) 
4.47249

>  <r_i_glide_intrahb_reward>  (116) 
-2

>  <i_i_glide_confnum>  (116) 
5

>  <i_i_glide_posenum>  (116) 
8

>  <r_i_glide_eff_state_penalty>  (116) 
0

>  <ligand_id>  (116) 
56

>  <original_smiles>  (116) 
C=C1CC2(CC1O)C1C(=O)C3(C)C4(CO4)C4(C)CC(O)(OC4C)C4(CC(O)C1(O)C43O)OC1[S+]([O-])CCC3(C)OC3C34OC3(O)C3(O)C(=O)C(O)(C(=C)C)C5(O)C1(C)OC1(C)C(O)C(OC(C)=O)C2(OC(C)=O)C1C5(O)C3(O)OC(=C(C)C)C4O

>  <smiles>  (116) 
[H]OC1([H])C(=C([H])[H])C([H])([H])C2(C1([H])[H])C1([H])C(=O)C3(C([H])([H])[H])C4(O[H])C(OC5([H])S(=O)C([H])([H])C([H])([H])C6(C([H])([H])[H])OC6([H])C67OC6([O-])C6(O[H])C(=O)C(O[H])(C(=C([H])[H])C([H])([H])[H])C8(O[H])C5(C([H])([H])[H])OC5(C([H])([H])[H])C([H])(O[H])C([H])(OC(=O)C([H])([H])[H])C2(OC(=O)C([H])([H])[H])C5([H])C8(O[H])C6(O[H])OC(=C(C([H])([H])[H])C([H])([H])[H])C7([H])O[H])(C([H])([H])C([H])(O[H])C14O[H])C1(O[H])OC([H])(C([H])([H])[H])C(C([H])([H])[H])(C1([H])[H])C31OC1([H])[H]

$$$$
56:1:2
     RDKit          3D

158171  0  0  1  0  0  0  0  0999 V2000
    7.9330   -6.4539    9.6131 C   0  0  0  0  0  0  0  0  0  0  0  0
    6.6573   -6.0579    9.7462 C   0  0  0  0  0  0  0  0  0  0  0  0
    5.7685   -5.6180    8.6059 C   0  0  0  0  0  0  0  0  0  0  0  0
    4.4863   -5.0073    9.2351 C   0  0  1  0  0  0  0  0  0  0  0  0
    4.4903   -5.7612   10.6158 C   0  0  0  0  0  0  0  0  0  0  0  0
    5.9052   -6.0277   11.0428 C   0  0  1  0  0  0  0  0  0  0  0  0
    6.0109   -7.2587   11.7043 O   0  0  0  0  0  0  0  0  0  0  0  0
    4.8322   -3.4211    9.7616 C   0  0  2  0  0  0  0  0  0  0  0  0
    3.7001   -2.4631   10.3277 C   0  0  0  0  0  0  0  0  0  0  0  0
    2.9969   -2.7806   11.2908 O   0  0  0  0  0  0  0  0  0  0  0  0
    3.5002   -1.0933    9.4952 C   0  0  1  0  0  0  0  0  0  0  0  0
    1.9881   -0.9539    9.1402 C   0  0  0  0  0  0  0  0  0  0  0  0
    3.8424    0.2737   10.2434 C   0  0  1  0  0  0  0  0  0  0  0  0
    3.2149    0.4356   11.5994 C   0  0  0  0  0  0  0  0  0  0  0  0
    4.6175    0.1387   11.4396 O   0  0  0  0  0  0  0  0  0  0  0  0
    4.1849    1.5869    9.4216 C   0  0  1  0  0  0  0  0  0  0  0  0
    4.5159    2.7875   10.3474 C   0  0  0  0  0  0  0  0  0  0  0  0
    5.3657    1.3575    8.5000 C   0  0  0  0  0  0  0  0  0  0  0  0
    4.7041    0.7863    7.2100 C   0  0  2  0  0  0  0  0  0  0  0  0
    5.2427    1.4759    6.1125 O   0  0  0  0  0  0  0  0  0  0  0  0
    3.3374    1.0392    7.3633 O   0  0  0  0  0  0  0  0  0  0  0  0
    3.1814    2.0508    8.3429 C   0  0  1  0  0  0  0  0  0  0  0  0
    1.7300    2.3593    8.7594 C   0  0  0  0  0  0  0  0  0  0  0  0
    4.9005   -0.7355    7.0079 C   0  0  1  0  0  0  0  0  0  0  0  0
    6.4542   -1.0884    7.0523 C   0  0  0  0  0  0  0  0  0  0  0  0
    6.7550   -2.3120    7.9585 C   0  0  1  0  0  0  0  0  0  0  0  0
    8.1128   -2.3133    8.4079 O   0  0  0  0  0  0  0  0  0  0  0  0
    5.6269   -2.2589    9.0060 C   0  0  2  0  0  0  0  0  0  0  0  0
    6.2802   -1.4955   10.0311 O   0  0  0  0  0  0  0  0  0  0  0  0
    4.4741   -1.4886    8.3195 C   0  0  1  0  0  0  0  0  0  0  0  0
    3.8777   -2.4910    7.6198 O   0  0  0  0  0  0  0  0  0  0  0  0
    4.3682   -1.1771    5.6509 O   0  0  0  0  0  0  0  0  0  0  0  0
    3.0187   -1.4116    5.0389 C   0  0  1  0  0  0  0  0  0  0  0  0
    2.6779   -0.5750    3.3066 S   0  0  0  0  0  0  0  0  0  0  0  0
    3.6113    0.6021    3.2884 O   0  0  0  0  0  0  0  0  0  0  0  0
    3.1213   -1.6218    1.7130 C   0  0  0  0  0  0  0  0  0  0  0  0
    2.2596   -2.7981    1.1544 C   0  0  0  0  0  0  0  0  0  0  0  0
    2.8936   -3.8622    0.1859 C   0  0  2  0  0  0  0  0  0  0  0  0
    3.4553   -3.1587   -1.0461 C   0  0  0  0  0  0  0  0  0  0  0  0
    1.9795   -4.9378   -0.1009 O   0  0  0  0  0  0  0  0  0  0  0  0
    3.2659   -5.3956    0.3208 C   0  0  2  0  0  0  0  0  0  0  0  0
    3.3226   -6.3861    1.5464 C   0  0  1  0  0  0  0  0  0  0  0  0
    4.0437   -7.6254    1.4067 O   0  0  0  0  0  0  0  0  0  0  0  0
    4.7503   -6.6281    2.1122 C   0  0  1  0  0  0  0  0  0  0  0  0
    5.7542   -6.2796    1.3525 O   0  0  0  0  0  0  0  0  0  0  0  0
    5.0343   -6.6340    3.6720 C   0  0  1  0  0  0  0  0  0  0  0  0
    5.8948   -7.7756    3.7614 O   0  0  0  0  0  0  0  0  0  0  0  0
    5.8120   -5.3751    4.1503 C   0  0  0  0  0  0  0  0  0  0  0  0
    7.0098   -5.4619    4.4532 O   0  0  0  0  0  0  0  0  0  0  0  0
    5.0808   -4.0000    4.3168 C   0  0  1  0  0  0  0  0  0  0  0  0
    5.4995   -3.5642    5.5590 O   0  0  0  0  0  0  0  0  0  0  0  0
    5.7475   -3.0189    3.2266 C   0  0  0  0  0  0  0  0  0  0  0  0
    6.4257   -3.3492    2.0983 C   0  0  0  0  0  0  0  0  0  0  0  0
    5.7547   -1.5039    3.3806 C   0  0  0  0  0  0  0  0  0  0  0  0
    3.4536   -4.1296    4.5656 C   0  0  2  0  0  0  0  0  0  0  0  0
    3.0946   -4.3041    3.2610 O   0  0  0  0  0  0  0  0  0  0  0  0
    2.4294   -2.9006    5.0492 C   0  0  2  0  0  0  0  0  0  0  0  0
    1.0168   -2.8843    4.3350 C   0  0  0  0  0  0  0  0  0  0  0  0
    1.8297   -3.0162    6.3815 O   0  0  0  0  0  0  0  0  0  0  0  0
    1.4468   -4.2569    7.0255 C   0  0  2  0  0  0  0  0  0  0  0  0
   -0.0055   -4.7355    6.6206 C   0  0  0  0  0  0  0  0  0  0  0  0
    1.3138   -4.0743    8.5550 C   0  0  1  0  0  0  0  0  0  0  0  0
    0.0867   -3.6299    9.1396 O   0  0  0  0  0  0  0  0  0  0  0  0
    1.8949   -5.2815    9.2694 C   0  0  1  0  0  0  0  0  0  0  0  0
    0.8769   -6.2834    9.3481 O   0  0  0  0  0  0  0  0  0  0  0  0
    0.9053   -7.2573   10.2869 C   0  0  0  0  0  0  0  0  0  0  0  0
    0.1391   -8.4969    9.8252 C   0  0  0  0  0  0  0  0  0  0  0  0
    1.5257   -7.2406   11.3477 O   0  0  0  0  0  0  0  0  0  0  0  0
    3.1551   -5.6451    8.3867 C   0  0  2  0  0  0  0  0  0  0  0  0
    3.3496   -7.0885    8.4211 O   0  0  0  0  0  0  0  0  0  0  0  0
    2.6067   -8.0566    7.8069 C   0  0  0  0  0  0  0  0  0  0  0  0
    3.1155   -9.4589    8.1212 C   0  0  0  0  0  0  0  0  0  0  0  0
    1.6239   -7.8784    7.0897 O   0  0  0  0  0  0  0  0  0  0  0  0
    2.7435   -5.1659    6.8760 C   0  0  1  0  0  0  0  0  0  0  0  0
    3.0488   -5.5134    5.2978 C   0  0  1  0  0  0  0  0  0  0  0  0
    1.7577   -5.8230    4.9224 O   0  0  0  0  0  0  0  0  0  0  0  0
    3.8871   -6.8138    4.7480 C   0  0  2  0  0  0  0  0  0  0  0  0
    4.5790   -7.2586    5.8759 O   0  0  0  0  0  0  0  0  0  0  0  0
    3.0743   -7.8959    4.2955 O   0  0  0  0  0  0  0  0  0  0  0  0
    2.0844   -7.9516    3.3065 C   0  0  0  0  0  0  0  0  0  0  0  0
    1.1898   -8.9594    3.4378 C   0  0  0  0  0  0  0  0  0  0  0  0
   -0.0241   -9.1714    2.5385 C   0  0  0  0  0  0  0  0  0  0  0  0
    1.2556  -10.0071    4.5484 C   0  0  0  0  0  0  0  0  0  0  0  0
    2.0205   -6.9235    2.1345 C   0  0  1  0  0  0  0  0  0  0  0  0
    1.0008   -5.9645    2.3473 O   0  0  0  0  0  0  0  0  0  0  0  0
    8.4938   -6.7546   10.4885 H   0  0  0  0  0  0  0  0  0  0  0  0
    8.4188   -6.4953    8.6428 H   0  0  0  0  0  0  0  0  0  0  0  0
    6.2956   -4.9694    7.9362 H   0  0  0  0  0  0  0  0  0  0  0  0
    5.5642   -6.4882    7.9864 H   0  0  0  0  0  0  0  0  0  0  0  0
    3.9812   -5.1884   11.3716 H   0  0  0  0  0  0  0  0  0  0  0  0
    4.0041   -6.7252   10.5801 H   0  0  0  0  0  0  0  0  0  0  0  0
    6.2543   -5.2314   11.6945 H   0  0  0  0  0  0  0  0  0  0  0  0
    5.6604   -7.9324   11.1399 H   0  0  0  0  0  0  0  0  0  0  0  0
    5.4726   -3.5836   10.6237 H   0  0  0  0  0  0  0  0  0  0  0  0
    1.5916    0.0131    9.3964 H   0  0  0  0  0  0  0  0  0  0  0  0
    1.3486   -1.5758    9.7644 H   0  0  0  0  0  0  0  0  0  0  0  0
    1.7513   -1.1193    8.0894 H   0  0  0  0  0  0  0  0  0  0  0  0
    2.9677    1.4286   11.9587 H   0  0  0  0  0  0  0  0  0  0  0  0
    2.5932   -0.3750   11.9661 H   0  0  0  0  0  0  0  0  0  0  0  0
    4.8757    3.6502    9.7866 H   0  0  0  0  0  0  0  0  0  0  0  0
    5.2896    2.5481   11.0774 H   0  0  0  0  0  0  0  0  0  0  0  0
    3.6428    3.1454   10.8896 H   0  0  0  0  0  0  0  0  0  0  0  0
    5.8684    2.2991    8.2554 H   0  0  0  0  0  0  0  0  0  0  0  0
    6.1307    0.7292    8.9427 H   0  0  0  0  0  0  0  0  0  0  0  0
    4.8395    1.1212    5.3318 H   0  0  0  0  0  0  0  0  0  0  0  0
    3.5413    2.9704    7.8721 H   0  0  0  0  0  0  0  0  0  0  0  0
    1.5083    3.4204    8.6515 H   0  0  0  0  0  0  0  0  0  0  0  0
    1.5366    2.1165    9.8032 H   0  0  0  0  0  0  0  0  0  0  0  0
    1.0138    1.8238    8.1367 H   0  0  0  0  0  0  0  0  0  0  0  0
    6.8874   -1.3499    6.1174 H   0  0  0  0  0  0  0  0  0  0  0  0
    7.0848   -0.2560    7.3497 H   0  0  0  0  0  0  0  0  0  0  0  0
    6.7402   -3.2085    7.3913 H   0  0  0  0  0  0  0  0  0  0  0  0
    8.3044   -1.5165    8.8777 H   0  0  0  0  0  0  0  0  0  0  0  0
    6.6466   -0.7125    9.6518 H   0  0  0  0  0  0  0  0  0  0  0  0
    3.1328   -2.1416    7.1431 H   0  0  0  0  0  0  0  0  0  0  0  0
    2.3762   -0.7906    5.6697 H   0  0  0  0  0  0  0  0  0  0  0  0
    3.1278   -0.8567    0.9438 H   0  0  0  0  0  0  0  0  0  0  0  0
    4.1219   -1.9879    1.6306 H   0  0  0  0  0  0  0  0  0  0  0  0
    1.6065   -3.2854    1.8563 H   0  0  0  0  0  0  0  0  0  0  0  0
    1.4865   -2.3018    0.5799 H   0  0  0  0  0  0  0  0  0  0  0  0
    4.3085   -2.5438   -0.7615 H   0  0  0  0  0  0  0  0  0  0  0  0
    2.7118   -2.5300   -1.5355 H   0  0  0  0  0  0  0  0  0  0  0  0
    3.8119   -3.8783   -1.7852 H   0  0  0  0  0  0  0  0  0  0  0  0
    3.8432   -5.7741   -0.5187 H   0  0  0  0  0  0  0  0  0  0  0  0
    5.4023   -8.5051    3.4153 H   0  0  0  0  0  0  0  0  0  0  0  0
    5.0584   -2.7508    5.7827 H   0  0  0  0  0  0  0  0  0  0  0  0
    6.6792   -4.3286    1.7961 H   0  0  0  0  0  0  0  0  0  0  0  0
    6.7888   -2.5605    1.4608 H   0  0  0  0  0  0  0  0  0  0  0  0
    4.7935   -1.3018    3.2706 H   0  0  0  0  0  0  0  0  0  0  0  0
    6.2420   -0.9171    2.5943 H   0  0  0  0  0  0  0  0  0  0  0  0
    6.0366   -1.0790    4.3307 H   0  0  0  0  0  0  0  0  0  0  0  0
    3.6635   -4.9373    2.8529 H   0  0  0  0  0  0  0  0  0  0  0  0
    0.8900   -2.2462    3.4834 H   0  0  0  0  0  0  0  0  0  0  0  0
    0.2146   -2.5246    4.9763 H   0  0  0  0  0  0  0  0  0  0  0  0
    0.7130   -3.8479    3.9551 H   0  0  0  0  0  0  0  0  0  0  0  0
   -0.2595   -5.6925    7.0780 H   0  0  0  0  0  0  0  0  0  0  0  0
   -0.2188   -4.8472    5.5650 H   0  0  0  0  0  0  0  0  0  0  0  0
   -0.7679   -4.0143    6.9142 H   0  0  0  0  0  0  0  0  0  0  0  0
    1.9990   -3.3111    8.7703 H   0  0  0  0  0  0  0  0  0  0  0  0
    0.2149   -3.5395   10.0746 H   0  0  0  0  0  0  0  0  0  0  0  0
    2.1606   -4.9833   10.2849 H   0  0  0  0  0  0  0  0  0  0  0  0
    0.4973   -8.8525    8.8636 H   0  0  0  0  0  0  0  0  0  0  0  0
   -0.9133   -8.2788    9.6741 H   0  0  0  0  0  0  0  0  0  0  0  0
    0.2656   -9.3307   10.5133 H   0  0  0  0  0  0  0  0  0  0  0  0
    3.1405   -9.6382    9.1958 H   0  0  0  0  0  0  0  0  0  0  0  0
    4.1229   -9.5782    7.7258 H   0  0  0  0  0  0  0  0  0  0  0  0
    2.4724  -10.2160    7.6707 H   0  0  0  0  0  0  0  0  0  0  0  0
    3.6371   -4.5845    6.8993 H   0  0  0  0  0  0  0  0  0  0  0  0
    1.7663   -6.2282    4.0661 H   0  0  0  0  0  0  0  0  0  0  0  0
    5.0840   -8.0200    5.6271 H   0  0  0  0  0  0  0  0  0  0  0  0
   -0.9121   -9.3981    3.1342 H   0  0  0  0  0  0  0  0  0  0  0  0
    0.1554  -10.0214    1.8822 H   0  0  0  0  0  0  0  0  0  0  0  0
   -0.2736   -8.3067    1.9277 H   0  0  0  0  0  0  0  0  0  0  0  0
    1.2684  -11.0135    4.1212 H   0  0  0  0  0  0  0  0  0  0  0  0
    0.3770   -9.9404    5.1992 H   0  0  0  0  0  0  0  0  0  0  0  0
    2.1382   -9.9156    5.1829 H   0  0  0  0  0  0  0  0  0  0  0  0
    1.6345   -7.5083    1.2993 H   0  0  0  0  0  0  0  0  0  0  0  0
    1.3037   -5.3218    2.9782 H   0  0  0  0  0  0  0  0  0  0  0  0
  1  2  2  0
  1 86  1  0
  1 87  1  0
  2  6  1  0
  2  3  1  0
  4  3  1  6
  3 88  1  0
  3 89  1  0
  4 69  1  0
  4  5  1  0
  4  8  1  0
  5  6  1  0
  5 90  1  0
  5 91  1  0
  6  7  1  0
  6 92  1  1
  7 93  1  0
  8 28  1  0
  8  9  1  0
  8 94  1  1
  9 10  2  0
  9 11  1  0
 11 30  1  0
 11 12  1  6
 11 13  1  0
 12 95  1  0
 12 96  1  0
 12 97  1  0
 13 15  1  1
 13 14  1  0
 13 16  1  0
 14 15  1  0
 14 98  1  0
 14 99  1  0
 16 22  1  0
 16 17  1  1
 16 18  1  0
 17100  1  0
 17101  1  0
 17102  1  0
 18 19  1  0
 18103  1  0
 18104  1  0
 19 20  1  6
 19 21  1  0
 19 24  1  0
 20105  1  0
 21 22  1  0
 22 23  1  0
 22106  1  6
 23107  1  0
 23108  1  0
 23109  1  0
 24 30  1  0
 24 25  1  0
 24 32  1  6
 25 26  1  0
 25110  1  0
 25111  1  0
 26 27  1  0
 26 28  1  0
 26112  1  6
 27113  1  0
 28 29  1  1
 28 30  1  0
 29114  1  0
 30 31  1  6
 31115  1  0
 32 33  1  0
 33 57  1  0
 33 34  1  0
 33116  1  1
 34 35  2  0
 34 36  1  6
 36 37  1  0
 36117  1  0
 36118  1  0
 37 38  1  0
 37119  1  0
 37120  1  0
 38 41  1  0
 38 39  1  6
 38 40  1  0
 39121  1  0
 39122  1  0
 39123  1  0
 40 41  1  0
 41 42  1  0
 41124  1  6
 42 44  1  0
 42 84  1  0
 42 43  1  6
 43 44  1  0
 44 45  1  6
 44 46  1  0
 46 77  1  0
 46 47  1  6
 46 48  1  0
 47125  1  0
 48 49  2  0
 48 50  1  0
 50 51  1  1
 50 52  1  0
 50 55  1  0
 51126  1  0
 52 53  2  0
 52 54  1  0
 53127  1  0
 53128  1  0
 54129  1  0
 54130  1  0
 54131  1  0
 55 75  1  0
 55 56  1  6
 55 57  1  0
 56132  1  0
 57 58  1  6
 57 59  1  0
 58133  1  0
 58134  1  0
 58135  1  0
 59 60  1  0
 60 74  1  0
 60 61  1  6
 60 62  1  0
 61136  1  0
 61137  1  0
 61138  1  0
 62 63  1  0
 62 64  1  0
 62139  1  1
 63140  1  0
 64 65  1  0
 64 69  1  0
 64141  1  1
 65 66  1  0
 66 67  1  0
 66 68  2  0
 67142  1  0
 67143  1  0
 67144  1  0
 69 70  1  6
 69 74  1  0
 70 71  1  0
 71 72  1  0
 71 73  2  0
 72145  1  0
 72146  1  0
 72147  1  0
 74 75  1  0
 74148  1  1
 75 76  1  6
 75 77  1  0
 76149  1  0
 77 78  1  1
 77 79  1  0
 78150  1  0
 79 80  1  0
 80 81  2  3
 80 84  1  0
 81 82  1  0
 81 83  1  0
 82151  1  0
 82152  1  0
 82153  1  0
 83154  1  0
 83155  1  0
 83156  1  0
 84 85  1  0
 84157  1  6
 85158  1  0
M  CHG  1  45  -1
M  END
>  <i_m_ct_stereo_status>  (117) 
1

>  <s_m_source_file>  (117) 
/var/tmp/pbs.5075288.sched01/tmp4tfr24xl/130i3iej58d.sdf

>  <i_m_source_file_index>  (117) 
16

>  <i_lp_mmshare_version>  (117) 
48012

>  <i_f3d_flags>  (117) 
0

>  <s_epik_input>  (117) 
W0NIMl0xW0NAQEhdKFtPSF0pQyg9W0NIMl0pW0NIMl1bQ0BdMTJbQ0BASF0zW0NAXTQoW09IXSlbQ0BdNShbT0hdKVtDQF0oW0NIMl1bQ0BIXTRbT0hdKShbQ0BdNihbT0hdKVtDSDJdW0NAQF0oW0NIM10pKFtDQEBIXShPNilbQ0gzXSlbQ0BAXTcoW0NIMl1PNylbQ0BAXTUoQzM9TylbQ0gzXSlPW0NASF04W0NAQF05KFtDSDNdKVtDQF0xKFtPSF0pW0NAXShbT0hdKShbQ0BIXTNbQ0BAXShPOSkoW0NIM10pW0NAQEhdKFtPSF0pW0NAQEhdKE9DKD1PKVtDSDNdKVtDQF0yM09DKD1PKVtDSDNdKVtDQF0yKFtPSF0pW0NAXShbT0hdKShDKD1PKVtDQEBdMShbT0hdKUMoPVtDSDJdKVtDSDNdKVtDQF0xKFtPSF0pW0NAQF0oTzEpKFtDQEhdKFtPSF0pQyhPMik9QyhbQ0gzXSlbQ0gzXSlbQ0BASF0xW0NAXShPMSkoW0NIM10pW0NIMl1bQ0gyXVtTK104W08tXQ==

>  <s_epik_cmdline>  (117) 
J2VwaWtfcHl0aG9uJywgJy1waHQnLCAnMi4wJywgJy1waCcsICc3LjAnLCAnLXRuJywgJzgnLCAnLW1hJywgJzIwMCcsICctaW1hZScsICc8aW5maWxlLm1hZT4nLCAnLW9tYWUnLCAnPG91dGZpbGUubWFlPic=

>  <r_epik_Ionization_Penalty>  (117) 
2.15061

>  <r_epik_Ionization_Penalty_Charging>  (117) 
2.15013

>  <r_epik_Ionization_Penalty_Neutral>  (117) 
0.000486176

>  <r_epik_State_Penalty>  (117) 
2.2899

>  <r_epik_Charging_Adjusted_Penalty>  (117) 
4.44003

>  <i_epik_Tot_Q>  (117) 
-1

>  <i_epik_Tot_abs_Q>  (117) 
3

>  <s_epik_Chemistry_Notes>  (117) 
This compound has an ester and may undergo hydrolysis at high or low pH. This compound contains an acetal/aminal-like group ( X-CH(R)-Y where X, Y are N, S, or O) that may be acid/base labile, releasing an aldehyde.

>  <s_lp_Force_Field>  (117) 
OPLS3e

>  <r_lp_Energy>  (117) 
497.175

>  <b_lp_Chiralities_Consistent>  (117) 
1

>  <s_lp_Variant>  (117) 
56:0-2

>  <s_i_glide_gridfile>  (117) 
pfpi4k_grid

>  <i_i_glide_lignum>  (117) 
16

>  <i_i_glide_rotatable_bonds>  (117) 
17

>  <r_i_docking_score>  (117) 
-3.48

>  <r_i_glide_ligand_efficiency>  (117) 
-0.0409411

>  <r_i_glide_ligand_efficiency_sa>  (117) 
-0.180011

>  <r_i_glide_ligand_efficiency_ln>  (117) 
-0.639393

>  <r_i_glide_gscore>  (117) 
-3.48

>  <r_i_glide_lipo>  (117) 
-0.22219

>  <r_i_glide_hbond>  (117) 
-0.0317379

>  <r_i_glide_metal>  (117) 
-0

>  <r_i_glide_rewards>  (117) 
-2.53105

>  <r_i_glide_evdw>  (117) 
-25.4017

>  <r_i_glide_ecoul>  (117) 
-4.60922

>  <r_i_glide_erotb>  (117) 
0.0454801

>  <r_i_glide_esite>  (117) 
-0.0260639

>  <r_i_glide_emodel>  (117) 
-56.2555

>  <r_i_glide_energy>  (117) 
-30.011

>  <r_i_glide_einternal>  (117) 
5.90237

>  <r_i_glide_intrahb_reward>  (117) 
-2.5

>  <i_i_glide_confnum>  (117) 
4

>  <i_i_glide_posenum>  (117) 
1

>  <r_i_glide_eff_state_penalty>  (117) 
0

>  <ligand_id>  (117) 
56

>  <original_smiles>  (117) 
C=C1CC2(CC1O)C1C(=O)C3(C)C4(CO4)C4(C)CC(O)(OC4C)C4(CC(O)C1(O)C43O)OC1[S+]([O-])CCC3(C)OC3C34OC3(O)C3(O)C(=O)C(O)(C(=C)C)C5(O)C1(C)OC1(C)C(O)C(OC(C)=O)C2(OC(C)=O)C1C5(O)C3(O)OC(=C(C)C)C4O

>  <smiles>  (117) 
[H]OC1([H])C(=C([H])[H])C([H])([H])C2(C1([H])[H])C1([H])C(=O)C3(C([H])([H])[H])C4(O[H])C(OC5([H])S(=O)C([H])([H])C([H])([H])C6(C([H])([H])[H])OC6([H])C67OC6([O-])C6(O[H])C(=O)C(O[H])(C(=C([H])[H])C([H])([H])[H])C8(O[H])C5(C([H])([H])[H])OC5(C([H])([H])[H])C([H])(O[H])C([H])(OC(=O)C([H])([H])[H])C2(OC(=O)C([H])([H])[H])C5([H])C8(O[H])C6(O[H])OC(=C(C([H])([H])[H])C([H])([H])[H])C7([H])O[H])(C([H])([H])C([H])(O[H])C14O[H])C1(O[H])OC([H])(C([H])([H])[H])C(C([H])([H])[H])(C1([H])[H])C31OC1([H])[H]

$$$$
58:0:0
     RDKit          3D

 96105  0  0  1  0  0  0  0  0999 V2000
    5.8531   -1.0267    9.1662 C   0  0  0  0  0  0  0  0  0  0  0  0
    6.3761   -1.9560    8.0738 C   0  0  0  0  0  0  0  0  0  0  0  0
    7.5034   -1.8161    7.5982 O   0  0  0  0  0  0  0  0  0  0  0  0
    5.4746   -2.8970    7.7210 O   0  0  0  0  0  0  0  0  0  0  0  0
    5.7900   -3.9019    6.7474 C   0  0  2  0  0  0  0  0  0  0  0  0
    5.4049   -3.3178    5.3916 C   0  0  0  0  0  0  0  0  0  0  0  0
    3.8978   -3.2482    5.2737 C   0  0  0  0  0  0  0  0  0  0  0  0
    3.2315   -4.6409    5.3307 C   0  0  0  0  0  0  0  0  0  0  0  0
    1.7339   -4.2623    5.2836 C   0  0  0  0  0  0  0  0  0  0  0  0
    3.6093   -5.3242    3.9990 C   0  0  0  0  0  0  0  0  0  0  0  0
    3.6087   -5.4603    6.6733 C   0  0  2  0  0  0  0  0  0  0  0  0
    2.9675   -4.6369    7.6543 O   0  0  0  0  0  0  0  0  0  0  0  0
    5.1459   -5.3141    7.0554 C   0  0  2  0  0  0  0  0  0  0  0  0
    5.4101   -5.4979    8.5943 C   0  0  0  0  0  0  0  0  0  0  0  0
    5.9713   -6.3633    6.2452 C   0  0  0  0  0  0  0  0  0  0  0  0
    5.3206   -7.6904    5.7207 C   0  0  1  0  0  0  0  0  0  0  0  0
    6.8542   -8.7356    5.3689 S   0  0  0  0  0  0  0  0  0  0  0  0
    7.8893   -7.7787    4.7846 O   0  0  0  0  0  0  0  0  0  0  0  0
    6.8265  -10.2070    4.1729 C   0  0  2  0  0  0  0  0  0  0  0  0
    8.1723  -10.5727    3.8925 O   0  0  0  0  0  0  0  0  0  0  0  0
    6.1883  -10.0895    2.7666 C   0  0  1  0  0  0  0  0  0  0  0  0
    6.1863  -11.4742    2.4043 O   0  0  0  0  0  0  0  0  0  0  0  0
    5.7201  -12.2299    3.5220 C   0  0  0  0  0  0  0  0  0  0  0  0
    6.0752  -11.3724    4.7552 C   0  0  1  0  0  0  0  0  0  0  0  0
    6.9004  -12.1002    5.6416 O   0  0  0  0  0  0  0  0  0  0  0  0
    5.0665  -10.7840    5.4888 O   0  0  0  0  0  0  0  0  0  0  0  0
    3.7582  -10.5001    5.1310 C   0  0  2  0  0  0  0  0  0  0  0  0
    3.0342  -11.7189    5.2098 O   0  0  0  0  0  0  0  0  0  0  0  0
    3.5824   -9.9559    3.6308 C   0  0  1  0  0  0  0  0  0  0  0  0
    2.4912  -10.5875    2.9681 O   0  0  0  0  0  0  0  0  0  0  0  0
    3.3659   -8.5364    3.6618 O   0  0  0  0  0  0  0  0  0  0  0  0
    4.2424   -8.3314    2.5184 C   0  0  0  0  0  0  0  0  0  0  0  0
    4.7065   -9.7544    2.5982 C   0  0  1  0  0  0  0  0  0  0  0  0
    3.3420   -9.5570    6.4047 C   0  0  1  0  0  0  0  0  0  0  0  0
    3.8222  -10.3222    7.6935 C   0  0  1  0  0  0  0  0  0  0  0  0
    5.2422  -10.1332    7.8354 O   0  0  0  0  0  0  0  0  0  0  0  0
    4.8742   -8.7575    7.9992 C   0  0  2  0  0  0  0  0  0  0  0  0
    3.8619   -9.4011    8.7990 O   0  0  0  0  0  0  0  0  0  0  0  0
    4.1953   -8.2326    6.6846 C   0  0  1  0  0  0  0  0  0  0  0  0
    3.1090   -7.0318    6.8948 C   0  0  1  0  0  0  0  0  0  0  0  0
    2.7692   -7.0552    8.2853 O   0  0  0  0  0  0  0  0  0  0  0  0
    1.7086   -7.5862    6.3631 C   0  0  1  0  0  0  0  0  0  0  0  0
    1.2963   -7.3337    5.0096 O   0  0  0  0  0  0  0  0  0  0  0  0
    0.0030   -6.9648    4.6727 C   0  0  0  0  0  0  0  0  0  0  0  0
   -0.6863   -6.1352    5.2493 O   0  0  0  0  0  0  0  0  0  0  0  0
   -0.5407   -7.7417    3.5859 C   0  0  0  0  0  0  0  0  0  0  0  0
   -1.7985   -7.8072    3.0335 C   0  0  0  0  0  0  0  0  0  0  0  0
   -1.8612   -8.9894    2.2646 C   0  0  0  0  0  0  0  0  0  0  0  0
   -0.6392   -9.6417    2.4008 C   0  0  0  0  0  0  0  0  0  0  0  0
    0.1586   -8.7718    3.0596 N   0  0  0  0  0  0  0  0  0  0  0  0
    1.8026   -9.1508    6.5467 C   0  0  1  0  0  0  0  0  0  0  0  0
    0.7532  -10.0220    5.8375 C   0  0  0  0  0  0  0  0  0  0  0  0
    1.3312   -9.4178    7.8601 O   0  0  0  0  0  0  0  0  0  0  0  0
    1.0804   -9.0499    3.4348 H   0  0  0  0  0  0  0  0  0  0  0  0
    4.9123   -0.5722    8.8587 H   0  0  0  0  0  0  0  0  0  0  0  0
    6.5660   -0.2306    9.3785 H   0  0  0  0  0  0  0  0  0  0  0  0
    5.6795   -1.5819   10.0879 H   0  0  0  0  0  0  0  0  0  0  0  0
    6.8724   -4.0385    6.7531 H   0  0  0  0  0  0  0  0  0  0  0  0
    5.8013   -2.3133    5.2754 H   0  0  0  0  0  0  0  0  0  0  0  0
    5.8368   -3.8835    4.5738 H   0  0  0  0  0  0  0  0  0  0  0  0
    3.5180   -2.6077    6.0741 H   0  0  0  0  0  0  0  0  0  0  0  0
    3.6217   -2.7404    4.3476 H   0  0  0  0  0  0  0  0  0  0  0  0
    1.2202   -4.8556    6.0201 H   0  0  0  0  0  0  0  0  0  0  0  0
    1.3003   -4.3885    4.2899 H   0  0  0  0  0  0  0  0  0  0  0  0
    1.5015   -3.2410    5.5941 H   0  0  0  0  0  0  0  0  0  0  0  0
    3.0731   -6.2428    3.8374 H   0  0  0  0  0  0  0  0  0  0  0  0
    4.6709   -5.5316    3.9200 H   0  0  0  0  0  0  0  0  0  0  0  0
    3.3735   -4.6914    3.1463 H   0  0  0  0  0  0  0  0  0  0  0  0
    2.0376   -4.7070    7.5220 H   0  0  0  0  0  0  0  0  0  0  0  0
    4.9784   -6.3810    9.0410 H   0  0  0  0  0  0  0  0  0  0  0  0
    4.9801   -4.6977    9.1999 H   0  0  0  0  0  0  0  0  0  0  0  0
    6.4770   -5.5024    8.8178 H   0  0  0  0  0  0  0  0  0  0  0  0
    6.4017   -5.8765    5.3688 H   0  0  0  0  0  0  0  0  0  0  0  0
    6.8386   -6.6106    6.8546 H   0  0  0  0  0  0  0  0  0  0  0  0
    4.8893   -7.4242    4.7936 H   0  0  0  0  0  0  0  0  0  0  0  0
    8.3867  -10.2802    3.0256 H   0  0  0  0  0  0  0  0  0  0  0  0
    6.8021   -9.5131    2.0669 H   0  0  0  0  0  0  0  0  0  0  0  0
    4.6710  -12.5050    3.4518 H   0  0  0  0  0  0  0  0  0  0  0  0
    6.2915  -13.1573    3.5428 H   0  0  0  0  0  0  0  0  0  0  0  0
    7.1464  -11.5083    6.3378 H   0  0  0  0  0  0  0  0  0  0  0  0
    2.7583  -11.8878    6.1050 H   0  0  0  0  0  0  0  0  0  0  0  0
    2.7251  -11.4782    2.7583 H   0  0  0  0  0  0  0  0  0  0  0  0
    3.7171   -8.0759    1.5929 H   0  0  0  0  0  0  0  0  0  0  0  0
    5.0557   -7.6267    2.6880 H   0  0  0  0  0  0  0  0  0  0  0  0
    4.3654  -10.1911    1.6581 H   0  0  0  0  0  0  0  0  0  0  0  0
    3.4590  -11.3275    7.9124 H   0  0  0  0  0  0  0  0  0  0  0  0
    5.6428   -8.2014    8.5229 H   0  0  0  0  0  0  0  0  0  0  0  0
    2.5309   -7.9448    8.5321 H   0  0  0  0  0  0  0  0  0  0  0  0
    0.9046   -7.1964    6.9924 H   0  0  0  0  0  0  0  0  0  0  0  0
   -2.5816   -7.1050    3.2758 H   0  0  0  0  0  0  0  0  0  0  0  0
   -2.6744   -9.3895    1.6980 H   0  0  0  0  0  0  0  0  0  0  0  0
   -0.2663  -10.5740    2.0604 H   0  0  0  0  0  0  0  0  0  0  0  0
    1.0630  -10.1308    4.8321 H   0  0  0  0  0  0  0  0  0  0  0  0
   -0.2636   -9.6234    5.9404 H   0  0  0  0  0  0  0  0  0  0  0  0
    0.7127  -11.0573    6.1336 H   0  0  0  0  0  0  0  0  0  0  0  0
    1.2302  -10.3709    7.9093 H   0  0  0  0  0  0  0  0  0  0  0  0
  1  2  1  0
  1 55  1  0
  1 56  1  0
  1 57  1  0
  2  3  2  0
  2  4  1  0
  4  5  1  0
  5 13  1  0
  5  6  1  0
  5 58  1  6
  6  7  1  0
  6 59  1  0
  6 60  1  0
  7  8  1  0
  7 61  1  0
  7 62  1  0
  8  9  1  0
  8 10  1  0
  8 11  1  0
  9 63  1  0
  9 64  1  0
  9 65  1  0
 10 66  1  0
 10 67  1  0
 10 68  1  0
 11 40  1  0
 11 12  1  1
 11 13  1  0
 12 69  1  0
 13 14  1  1
 13 15  1  0
 14 70  1  0
 14 71  1  0
 14 72  1  0
 15 16  1  0
 15 73  1  0
 15 74  1  0
 16 39  1  0
 16 17  1  0
 16 75  1  6
 17 18  2  0
 17 19  1  6
 19 24  1  0
 19 20  1  6
 19 21  1  0
 20 76  1  0
 21 33  1  0
 21 22  1  0
 21 77  1  6
 22 23  1  0
 23 24  1  0
 23 78  1  0
 23 79  1  0
 24 25  1  1
 24 26  1  0
 25 80  1  0
 26 27  1  0
 27 28  1  6
 27 29  1  0
 27 34  1  0
 28 81  1  0
 29 33  1  0
 29 30  1  6
 29 31  1  0
 30 82  1  0
 31 32  1  0
 32 33  1  0
 32 83  1  0
 32 84  1  0
 33 85  1  6
 34 39  1  0
 34 51  1  1
 34 35  1  0
 35 38  1  0
 35 36  1  0
 35 86  1  1
 36 37  1  0
 37 38  1  0
 37 39  1  0
 37 87  1  1
 39 40  1  1
 40 41  1  1
 40 42  1  0
 41 88  1  0
 42 43  1  0
 42 51  1  0
 42 89  1  1
 43 44  1  0
 44 45  2  0
 44 46  1  0
 46 50  1  0
 46 47  2  0
 47 48  1  0
 47 90  1  0
 48 49  2  0
 48 91  1  0
 49 50  1  0
 49 92  1  0
 50 54  1  0
 51 52  1  0
 51 53  1  1
 52 93  1  0
 52 94  1  0
 52 95  1  0
 53 96  1  0
M  END
>  <i_m_ct_stereo_status>  (118) 
1

>  <s_m_source_file>  (118) 
/var/tmp/pbs.5075288.sched01/tmp4tfr24xl/130i3iej58d.sdf

>  <i_m_source_file_index>  (118) 
21

>  <i_lp_mmshare_version>  (118) 
48012

>  <i_f3d_flags>  (118) 
0

>  <s_epik_input>  (118) 
W25IXTFbY0hdW2NIXVtjSF1jMUMoPU8pT1tDQEBIXShbQ0BdMihbQ0gzXSlbT0hdKVtDQF0zKFtPSF0pW0NAXShbT0hdKShDKFtDSDNdKShbQ0gzXSlbQ0gyXVtDSDJdW0NASF00T0MoPU8pW0NIM10pW0NAQF00KFtDSDNdKVtDSDJdW0NASF0oW0NAQF0zKFtDQEBdMjU2KVtDQEBIXTdPW0NASF02TzcpW1MrXShbTy1dKVtDQF04KFtPSF0pW0NAQEhdOVtDQEhdMVtDQF0oW09IXSkoT1tDSDJdMSlbQ0BAXTUoW09IXSlPW0NAXTgoW0NIMl1POSlbT0hd

>  <s_epik_cmdline>  (118) 
J2VwaWtfcHl0aG9uJywgJy1waHQnLCAnMi4wJywgJy1waCcsICc3LjAnLCAnLXRuJywgJzgnLCAnLW1hJywgJzIwMCcsICctaW1hZScsICc8aW5maWxlLm1hZT4nLCAnLW9tYWUnLCAnPG91dGZpbGUubWFlPic=

>  <r_lp_tautomer_probability>  (118) 
1

>  <r_epik_Ionization_Penalty>  (118) 
0.000278287

>  <r_epik_Ionization_Penalty_Charging>  (118) 
0

>  <r_epik_Ionization_Penalty_Neutral>  (118) 
0.000278287

>  <r_epik_State_Penalty>  (118) 
-0

>  <r_epik_Charging_Adjusted_Penalty>  (118) 
0

>  <i_epik_Tot_Q>  (118) 
0

>  <i_epik_Tot_abs_Q>  (118) 
2

>  <s_epik_Chemistry_Notes>  (118) 
This compound has an ester and may undergo hydrolysis at high or low pH. This compound contains an acetal/aminal-like group ( X-CH(R)-Y where X, Y are N, S, or O) that may be acid/base labile, releasing an aldehyde.

>  <s_lp_Force_Field>  (118) 
OPLS3e

>  <r_lp_Energy>  (118) 
230.472

>  <b_lp_Chiralities_Consistent>  (118) 
1

>  <s_lp_Variant>  (118) 
58:0-1

>  <s_i_glide_gridfile>  (118) 
pfpi4k_grid

>  <i_i_glide_lignum>  (118) 
21

>  <i_i_glide_rotatable_bonds>  (118) 
12

>  <r_i_docking_score>  (118) 
-4.22092

>  <r_i_glide_ligand_efficiency>  (118) 
-0.07964

>  <r_i_glide_ligand_efficiency_sa>  (118) 
-0.299151

>  <r_i_glide_ligand_efficiency_ln>  (118) 
-0.84923

>  <r_i_glide_gscore>  (118) 
-4.22092

>  <r_i_glide_lipo>  (118) 
-0.420407

>  <r_i_glide_hbond>  (118) 
0

>  <r_i_glide_metal>  (118) 
-0

>  <r_i_glide_rewards>  (118) 
-1.00951

>  <r_i_glide_evdw>  (118) 
-32.6326

>  <r_i_glide_ecoul>  (118) 
-7.66748

>  <r_i_glide_erotb>  (118) 
0.146374

>  <r_i_glide_esite>  (118) 
-0.155627

>  <r_i_glide_emodel>  (118) 
-53.9622

>  <r_i_glide_energy>  (118) 
-40.3001

>  <r_i_glide_einternal>  (118) 
13.7008

>  <r_i_glide_intrahb_reward>  (118) 
-1

>  <i_i_glide_confnum>  (118) 
1

>  <i_i_glide_posenum>  (118) 
1

>  <r_i_glide_eff_state_penalty>  (118) 
0

>  <ligand_id>  (118) 
58

>  <original_smiles>  (118) 
CC(=O)OC1CCC(C)(C)C2(O)C1(C)CC1[S+]([O-])C3(O)C4OCC3(O)OC(O)(C3(O)OCC43)C34C5OC(O5)C13C2(O)C(OC(=O)c1ccc[nH]1)C4(C)O

>  <smiles>  (118) 
[H]OC12OC3(O[H])C4(O[H])OC([H])([H])C4([H])C([H])(OC1([H])[H])C2(O[H])S(=O)C1([H])C([H])([H])C2(C([H])([H])[H])C([H])(OC(=O)C([H])([H])[H])C([H])([H])C([H])([H])C(C([H])([H])[H])(C([H])([H])[H])C2(O[H])C2(O[H])C([H])(OC(=O)c4c([H])c([H])c([H])n4[H])C(O[H])(C([H])([H])[H])C34C3([H])OC([H])(O3)C124

$$$$
58:0:1
     RDKit          3D

 96105  0  0  1  0  0  0  0  0999 V2000
    7.8019   -2.1471    7.7431 C   0  0  0  0  0  0  0  0  0  0  0  0
    6.4316   -2.1114    8.4379 C   0  0  0  0  0  0  0  0  0  0  0  0
    6.2136   -1.2945    9.3258 O   0  0  0  0  0  0  0  0  0  0  0  0
    5.5009   -3.0092    8.0073 O   0  0  0  0  0  0  0  0  0  0  0  0
    5.7454   -3.9959    6.9969 C   0  0  2  0  0  0  0  0  0  0  0  0
    5.3849   -3.3518    5.6687 C   0  0  0  0  0  0  0  0  0  0  0  0
    3.8821   -3.2637    5.5516 C   0  0  0  0  0  0  0  0  0  0  0  0
    3.2037   -4.6533    5.5734 C   0  0  0  0  0  0  0  0  0  0  0  0
    1.7152   -4.2647    5.5399 C   0  0  0  0  0  0  0  0  0  0  0  0
    3.5928   -5.2968    4.2231 C   0  0  0  0  0  0  0  0  0  0  0  0
    3.5720   -5.5126    6.8888 C   0  0  2  0  0  0  0  0  0  0  0  0
    2.9493   -4.7116    7.8976 O   0  0  0  0  0  0  0  0  0  0  0  0
    5.1015   -5.3973    7.2761 C   0  0  2  0  0  0  0  0  0  0  0  0
    5.3776   -5.6183    8.8130 C   0  0  0  0  0  0  0  0  0  0  0  0
    5.9351   -6.4205    6.4365 C   0  0  0  0  0  0  0  0  0  0  0  0
    5.2879   -7.7300    5.8715 C   0  0  1  0  0  0  0  0  0  0  0  0
    6.8286   -8.7760    5.5152 S   0  0  0  0  0  0  0  0  0  0  0  0
    7.8626   -7.7986    4.9562 O   0  0  0  0  0  0  0  0  0  0  0  0
    6.7948  -10.2087    4.2694 C   0  0  2  0  0  0  0  0  0  0  0  0
    8.1348  -10.5784    3.9588 O   0  0  0  0  0  0  0  0  0  0  0  0
    6.1503  -10.0322    2.8715 C   0  0  1  0  0  0  0  0  0  0  0  0
    6.1266  -11.3999    2.4674 O   0  0  0  0  0  0  0  0  0  0  0  0
    5.6477  -12.1866    3.5515 C   0  0  0  0  0  0  0  0  0  0  0  0
    6.0205  -11.3898    4.8039 C   0  0  1  0  0  0  0  0  0  0  0  0
    6.8274  -12.1866    5.6613 O   0  0  0  0  0  0  0  0  0  0  0  0
    5.0259  -10.8102    5.5672 O   0  0  0  0  0  0  0  0  0  0  0  0
    3.7225  -10.5003    5.2260 C   0  0  2  0  0  0  0  0  0  0  0  0
    2.9804  -11.7139    5.2715 O   0  0  0  0  0  0  0  0  0  0  0  0
    3.5558   -9.9153    3.7473 C   0  0  1  0  0  0  0  0  0  0  0  0
    2.4946  -10.5610    3.0749 O   0  0  0  0  0  0  0  0  0  0  0  0
    3.3114   -8.5012    3.7892 O   0  0  0  0  0  0  0  0  0  0  0  0
    4.2116   -8.2671    2.6693 C   0  0  0  0  0  0  0  0  0  0  0  0
    4.6750   -9.6917    2.7110 C   0  0  1  0  0  0  0  0  0  0  0  0
    3.2955   -9.5931    6.5260 C   0  0  1  0  0  0  0  0  0  0  0  0
    3.7708  -10.3890    7.7921 C   0  0  1  0  0  0  0  0  0  0  0  0
    5.1960  -10.2210    7.9261 O   0  0  0  0  0  0  0  0  0  0  0  0
    4.8325   -8.8480    8.1398 C   0  0  2  0  0  0  0  0  0  0  0  0
    3.7958   -9.4902    8.9184 O   0  0  0  0  0  0  0  0  0  0  0  0
    4.1629   -8.2796    6.8391 C   0  0  1  0  0  0  0  0  0  0  0  0
    3.0686   -7.0839    7.0683 C   0  0  1  0  0  0  0  0  0  0  0  0
    2.7400   -7.1440    8.4592 O   0  0  0  0  0  0  0  0  0  0  0  0
    1.6635   -7.6131    6.5178 C   0  0  1  0  0  0  0  0  0  0  0  0
    1.2712   -7.3432    5.1648 O   0  0  0  0  0  0  0  0  0  0  0  0
   -0.0108   -6.9199    4.8553 C   0  0  0  0  0  0  0  0  0  0  0  0
   -0.6952   -6.1574    5.4997 O   0  0  0  0  0  0  0  0  0  0  0  0
   -0.5507   -7.6520    3.7055 C   0  0  0  0  0  0  0  0  0  0  0  0
   -1.7833   -7.6989    3.1378 C   0  0  0  0  0  0  0  0  0  0  0  0
   -1.8325   -8.8546    2.2729 C   0  0  0  0  0  0  0  0  0  0  0  0
   -0.6130   -9.4804    2.4056 C   0  0  0  0  0  0  0  0  0  0  0  0
    0.1970   -8.6694    3.1630 N   0  0  0  0  0  0  0  0  0  0  0  0
    1.7537   -9.1745    6.6478 C   0  0  1  0  0  0  0  0  0  0  0  0
    0.7026   -9.9992    5.8987 C   0  0  0  0  0  0  0  0  0  0  0  0
    1.2887   -9.4488    7.9618 O   0  0  0  0  0  0  0  0  0  0  0  0
    1.1444   -8.8623    3.4596 H   0  0  0  0  0  0  0  0  0  0  0  0
    8.2631   -3.1276    7.8544 H   0  0  0  0  0  0  0  0  0  0  0  0
    8.4904   -1.4127    8.1585 H   0  0  0  0  0  0  0  0  0  0  0  0
    7.6764   -1.9258    6.6853 H   0  0  0  0  0  0  0  0  0  0  0  0
    6.7986   -4.2334    6.9613 H   0  0  0  0  0  0  0  0  0  0  0  0
    5.7852   -2.3433    5.5950 H   0  0  0  0  0  0  0  0  0  0  0  0
    5.8339   -3.8939    4.8428 H   0  0  0  0  0  0  0  0  0  0  0  0
    3.5222   -2.6391    6.3745 H   0  0  0  0  0  0  0  0  0  0  0  0
    3.6264   -2.7207    4.6397 H   0  0  0  0  0  0  0  0  0  0  0  0
    1.1768   -4.8868    6.2368 H   0  0  0  0  0  0  0  0  0  0  0  0
    1.2983   -4.3598    4.5439 H   0  0  0  0  0  0  0  0  0  0  0  0
    1.5175   -3.2426    5.8677 H   0  0  0  0  0  0  0  0  0  0  0  0
    3.0444   -6.2055    4.0371 H   0  0  0  0  0  0  0  0  0  0  0  0
    4.6575   -5.5096    4.1395 H   0  0  0  0  0  0  0  0  0  0  0  0
    3.3650   -4.6301    3.3912 H   0  0  0  0  0  0  0  0  0  0  0  0
    2.0238   -4.7794    7.7658 H   0  0  0  0  0  0  0  0  0  0  0  0
    4.9456   -6.5086    9.2487 H   0  0  0  0  0  0  0  0  0  0  0  0
    4.9580   -4.8307    9.4438 H   0  0  0  0  0  0  0  0  0  0  0  0
    6.4465   -5.6304    9.0356 H   0  0  0  0  0  0  0  0  0  0  0  0
    6.3923   -5.9057    5.5873 H   0  0  0  0  0  0  0  0  0  0  0  0
    6.7891   -6.6908    7.0543 H   0  0  0  0  0  0  0  0  0  0  0  0
    4.8596   -7.4216    4.9474 H   0  0  0  0  0  0  0  0  0  0  0  0
    8.3756  -10.1301    3.1759 H   0  0  0  0  0  0  0  0  0  0  0  0
    6.7728   -9.4495    2.1887 H   0  0  0  0  0  0  0  0  0  0  0  0
    4.5969  -12.4527    3.4746 H   0  0  0  0  0  0  0  0  0  0  0  0
    6.2123  -13.1121    3.5395 H   0  0  0  0  0  0  0  0  0  0  0  0
    6.3055  -12.8918    6.0048 H   0  0  0  0  0  0  0  0  0  0  0  0
    2.7051  -11.9254    6.1573 H   0  0  0  0  0  0  0  0  0  0  0  0
    1.8143  -10.7114    3.7014 H   0  0  0  0  0  0  0  0  0  0  0  0
    3.6837   -7.9974    1.7519 H   0  0  0  0  0  0  0  0  0  0  0  0
    5.0341   -7.5702    2.8539 H   0  0  0  0  0  0  0  0  0  0  0  0
    4.3270  -10.0936    1.7543 H   0  0  0  0  0  0  0  0  0  0  0  0
    3.4021  -11.4038    7.9588 H   0  0  0  0  0  0  0  0  0  0  0  0
    5.6051   -8.2999    8.6686 H   0  0  0  0  0  0  0  0  0  0  0  0
    2.4822   -8.0375    8.6655 H   0  0  0  0  0  0  0  0  0  0  0  0
    0.8673   -7.2270    7.1671 H   0  0  0  0  0  0  0  0  0  0  0  0
   -2.5852   -7.0606    3.4332 H   0  0  0  0  0  0  0  0  0  0  0  0
   -2.6490   -9.2319    1.7118 H   0  0  0  0  0  0  0  0  0  0  0  0
   -0.2303  -10.4052    2.0045 H   0  0  0  0  0  0  0  0  0  0  0  0
    0.9619  -10.0688    4.8697 H   0  0  0  0  0  0  0  0  0  0  0  0
   -0.2958   -9.6180    6.0378 H   0  0  0  0  0  0  0  0  0  0  0  0
    0.6431  -11.0284    6.2154 H   0  0  0  0  0  0  0  0  0  0  0  0
    1.1890  -10.3853    8.0070 H   0  0  0  0  0  0  0  0  0  0  0  0
  1  2  1  0
  1 55  1  0
  1 56  1  0
  1 57  1  0
  2  3  2  0
  2  4  1  0
  4  5  1  0
  5 13  1  0
  5  6  1  0
  5 58  1  6
  6  7  1  0
  6 59  1  0
  6 60  1  0
  7  8  1  0
  7 61  1  0
  7 62  1  0
  8  9  1  0
  8 10  1  0
  8 11  1  0
  9 63  1  0
  9 64  1  0
  9 65  1  0
 10 66  1  0
 10 67  1  0
 10 68  1  0
 11 40  1  0
 11 12  1  1
 11 13  1  0
 12 69  1  0
 13 14  1  1
 13 15  1  0
 14 70  1  0
 14 71  1  0
 14 72  1  0
 15 16  1  0
 15 73  1  0
 15 74  1  0
 16 39  1  0
 16 17  1  0
 16 75  1  6
 17 18  2  0
 17 19  1  6
 19 24  1  0
 19 20  1  6
 19 21  1  0
 20 76  1  0
 21 33  1  0
 21 22  1  0
 21 77  1  6
 22 23  1  0
 23 24  1  0
 23 78  1  0
 23 79  1  0
 24 25  1  1
 24 26  1  0
 25 80  1  0
 26 27  1  0
 27 28  1  6
 27 29  1  0
 27 34  1  0
 28 81  1  0
 29 33  1  0
 29 30  1  6
 29 31  1  0
 30 82  1  0
 31 32  1  0
 32 33  1  0
 32 83  1  0
 32 84  1  0
 33 85  1  6
 34 39  1  0
 34 51  1  1
 34 35  1  0
 35 38  1  0
 35 36  1  0
 35 86  1  1
 36 37  1  0
 37 38  1  0
 37 39  1  0
 37 87  1  1
 39 40  1  1
 40 41  1  1
 40 42  1  0
 41 88  1  0
 42 43  1  0
 42 51  1  0
 42 89  1  1
 43 44  1  0
 44 45  2  0
 44 46  1  0
 46 50  1  0
 46 47  2  0
 47 48  1  0
 47 90  1  0
 48 49  2  0
 48 91  1  0
 49 50  1  0
 49 92  1  0
 50 54  1  0
 51 52  1  0
 51 53  1  1
 52 93  1  0
 52 94  1  0
 52 95  1  0
 53 96  1  0
M  END
>  <i_m_ct_stereo_status>  (119) 
1

>  <s_m_source_file>  (119) 
/var/tmp/pbs.5075288.sched01/tmp4tfr24xl/130i3iej58d.sdf

>  <i_m_source_file_index>  (119) 
21

>  <i_lp_mmshare_version>  (119) 
48012

>  <i_f3d_flags>  (119) 
0

>  <s_epik_input>  (119) 
W25IXTFbY0hdW2NIXVtjSF1jMUMoPU8pT1tDQEBIXShbQ0BdMihbQ0gzXSlbT0hdKVtDQF0zKFtPSF0pW0NAXShbT0hdKShDKFtDSDNdKShbQ0gzXSlbQ0gyXVtDSDJdW0NASF00T0MoPU8pW0NIM10pW0NAQF00KFtDSDNdKVtDSDJdW0NASF0oW0NAQF0zKFtDQEBdMjU2KVtDQEBIXTdPW0NASF02TzcpW1MrXShbTy1dKVtDQF04KFtPSF0pW0NAQEhdOVtDQEhdMVtDQF0oW09IXSkoT1tDSDJdMSlbQ0BAXTUoW09IXSlPW0NAXTgoW0NIMl1POSlbT0hd

>  <s_epik_cmdline>  (119) 
J2VwaWtfcHl0aG9uJywgJy1waHQnLCAnMi4wJywgJy1waCcsICc3LjAnLCAnLXRuJywgJzgnLCAnLW1hJywgJzIwMCcsICctaW1hZScsICc8aW5maWxlLm1hZT4nLCAnLW9tYWUnLCAnPG91dGZpbGUubWFlPic=

>  <r_lp_tautomer_probability>  (119) 
1

>  <r_epik_Ionization_Penalty>  (119) 
0.000278287

>  <r_epik_Ionization_Penalty_Charging>  (119) 
0

>  <r_epik_Ionization_Penalty_Neutral>  (119) 
0.000278287

>  <r_epik_State_Penalty>  (119) 
-0

>  <r_epik_Charging_Adjusted_Penalty>  (119) 
0

>  <i_epik_Tot_Q>  (119) 
0

>  <i_epik_Tot_abs_Q>  (119) 
2

>  <s_epik_Chemistry_Notes>  (119) 
This compound has an ester and may undergo hydrolysis at high or low pH. This compound contains an acetal/aminal-like group ( X-CH(R)-Y where X, Y are N, S, or O) that may be acid/base labile, releasing an aldehyde.

>  <s_lp_Force_Field>  (119) 
OPLS3e

>  <r_lp_Energy>  (119) 
230.472

>  <b_lp_Chiralities_Consistent>  (119) 
1

>  <s_lp_Variant>  (119) 
58:0-1

>  <s_i_glide_gridfile>  (119) 
pfpi4k_grid

>  <i_i_glide_lignum>  (119) 
21

>  <i_i_glide_rotatable_bonds>  (119) 
12

>  <r_i_docking_score>  (119) 
-4.20921

>  <r_i_glide_ligand_efficiency>  (119) 
-0.079419

>  <r_i_glide_ligand_efficiency_sa>  (119) 
-0.29832

>  <r_i_glide_ligand_efficiency_ln>  (119) 
-0.846873

>  <r_i_glide_gscore>  (119) 
-4.20921

>  <r_i_glide_lipo>  (119) 
-0.443892

>  <r_i_glide_hbond>  (119) 
0

>  <r_i_glide_metal>  (119) 
-0

>  <r_i_glide_rewards>  (119) 
-1.0008

>  <r_i_glide_evdw>  (119) 
-31.4881

>  <r_i_glide_ecoul>  (119) 
-7.84523

>  <r_i_glide_erotb>  (119) 
0.146374

>  <r_i_glide_esite>  (119) 
-0.159705

>  <r_i_glide_emodel>  (119) 
-50.0511

>  <r_i_glide_energy>  (119) 
-39.3333

>  <r_i_glide_einternal>  (119) 
18.4557

>  <r_i_glide_intrahb_reward>  (119) 
-1

>  <i_i_glide_confnum>  (119) 
1

>  <i_i_glide_posenum>  (119) 
28

>  <r_i_glide_eff_state_penalty>  (119) 
0

>  <ligand_id>  (119) 
58

>  <original_smiles>  (119) 
CC(=O)OC1CCC(C)(C)C2(O)C1(C)CC1[S+]([O-])C3(O)C4OCC3(O)OC(O)(C3(O)OCC43)C34C5OC(O5)C13C2(O)C(OC(=O)c1ccc[nH]1)C4(C)O

>  <smiles>  (119) 
[H]OC12OC3(O[H])C4(O[H])OC([H])([H])C4([H])C([H])(OC1([H])[H])C2(O[H])S(=O)C1([H])C([H])([H])C2(C([H])([H])[H])C([H])(OC(=O)C([H])([H])[H])C([H])([H])C([H])([H])C(C([H])([H])[H])(C([H])([H])[H])C2(O[H])C2(O[H])C([H])(OC(=O)c4c([H])c([H])c([H])n4[H])C(O[H])(C([H])([H])[H])C34C3([H])OC([H])(O3)C124

$$$$
58:0:2
     RDKit          3D

 96105  0  0  1  0  0  0  0  0999 V2000
    8.0801   -2.6262   -0.1397 C   0  0  0  0  0  0  0  0  0  0  0  0
    7.9138   -4.1220    0.0324 C   0  0  0  0  0  0  0  0  0  0  0  0
    8.8914   -4.8699   -0.0331 O   0  0  0  0  0  0  0  0  0  0  0  0
    6.6215   -4.4850    0.2930 O   0  0  0  0  0  0  0  0  0  0  0  0
    6.2515   -5.8518    0.5551 C   0  0  2  0  0  0  0  0  0  0  0  0
    4.9498   -6.0733   -0.2208 C   0  0  0  0  0  0  0  0  0  0  0  0
    3.7976   -5.3667    0.4569 C   0  0  0  0  0  0  0  0  0  0  0  0
    3.5304   -5.8962    1.8850 C   0  0  0  0  0  0  0  0  0  0  0  0
    2.3987   -4.9555    2.3838 C   0  0  0  0  0  0  0  0  0  0  0  0
    2.9548   -7.3073    1.6516 C   0  0  0  0  0  0  0  0  0  0  0  0
    4.8448   -5.8508    2.8207 C   0  0  2  0  0  0  0  0  0  0  0  0
    5.0097   -4.4354    2.8922 O   0  0  0  0  0  0  0  0  0  0  0  0
    6.1550   -6.3145    2.0621 C   0  0  2  0  0  0  0  0  0  0  0  0
    7.4584   -5.7362    2.6902 C   0  0  0  0  0  0  0  0  0  0  0  0
    6.2669   -7.8645    2.0814 C   0  0  0  0  0  0  0  0  0  0  0  0
    5.6091   -8.6895    3.2332 C   0  0  1  0  0  0  0  0  0  0  0  0
    6.5510  -10.3239    3.0800 S   0  0  0  0  0  0  0  0  0  0  0  0
    6.7238  -10.5651    1.5777 O   0  0  0  0  0  0  0  0  0  0  0  0
    5.8495  -11.9485    3.7639 C   0  0  2  0  0  0  0  0  0  0  0  0
    6.5969  -13.0289    3.2189 O   0  0  0  0  0  0  0  0  0  0  0  0
    4.3888  -12.3684    3.4845 C   0  0  1  0  0  0  0  0  0  0  0  0
    4.2448  -13.4465    4.4010 O   0  0  0  0  0  0  0  0  0  0  0  0
    4.8215  -13.0537    5.6365 C   0  0  0  0  0  0  0  0  0  0  0  0
    5.8690  -11.9838    5.2746 C   0  0  1  0  0  0  0  0  0  0  0  0
    7.1391  -12.3752    5.7593 O   0  0  0  0  0  0  0  0  0  0  0  0
    5.6335  -10.6679    5.6278 O   0  0  0  0  0  0  0  0  0  0  0  0
    4.4290  -10.0503    5.9540 C   0  0  2  0  0  0  0  0  0  0  0  0
    4.1273  -10.4033    7.2928 O   0  0  0  0  0  0  0  0  0  0  0  0
    3.1793  -10.4626    5.0336 C   0  0  1  0  0  0  0  0  0  0  0  0
    1.9956  -10.6266    5.8027 O   0  0  0  0  0  0  0  0  0  0  0  0
    2.9286   -9.4375    4.0614 O   0  0  0  0  0  0  0  0  0  0  0  0
    2.6721  -10.4240    3.0233 C   0  0  0  0  0  0  0  0  0  0  0  0
    3.1991  -11.5133    3.9037 C   0  0  1  0  0  0  0  0  0  0  0  0
    4.9331   -8.4988    5.9458 C   0  0  1  0  0  0  0  0  0  0  0  0
    6.2435   -8.4577    6.7860 C   0  0  1  0  0  0  0  0  0  0  0  0
    7.3212   -8.9411    5.9611 O   0  0  0  0  0  0  0  0  0  0  0  0
    7.0404   -7.8036    5.1510 C   0  0  2  0  0  0  0  0  0  0  0  0
    6.9916   -7.2682    6.4815 O   0  0  0  0  0  0  0  0  0  0  0  0
    5.5915   -7.9066    4.6102 C   0  0  1  0  0  0  0  0  0  0  0  0
    4.8524   -6.4842    4.3484 C   0  0  1  0  0  0  0  0  0  0  0  0
    5.5762   -5.4939    5.0694 O   0  0  0  0  0  0  0  0  0  0  0  0
    3.5742   -6.4584    5.2865 C   0  0  1  0  0  0  0  0  0  0  0  0
    2.3319   -6.8338    4.6950 O   0  0  0  0  0  0  0  0  0  0  0  0
    1.1461   -6.2800    5.0671 C   0  0  0  0  0  0  0  0  0  0  0  0
    1.0013   -5.3985    5.9137 O   0  0  0  0  0  0  0  0  0  0  0  0
    0.0065   -6.8241    4.3192 C   0  0  0  0  0  0  0  0  0  0  0  0
   -1.3304   -6.7545    4.4954 C   0  0  0  0  0  0  0  0  0  0  0  0
   -1.9495   -7.4778    3.4179 C   0  0  0  0  0  0  0  0  0  0  0  0
   -0.9720   -7.9244    2.5837 C   0  0  0  0  0  0  0  0  0  0  0  0
    0.2148   -7.5367    3.1545 N   0  0  0  0  0  0  0  0  0  0  0  0
    3.8812   -7.4237    6.4762 C   0  0  1  0  0  0  0  0  0  0  0  0
    2.6615   -7.8569    7.3305 C   0  0  0  0  0  0  0  0  0  0  0  0
    4.4736   -6.5732    7.4513 O   0  0  0  0  0  0  0  0  0  0  0  0
    1.1245   -7.7150    2.7843 H   0  0  0  0  0  0  0  0  0  0  0  0
    7.4699   -2.2876   -0.9758 H   0  0  0  0  0  0  0  0  0  0  0  0
    9.1296   -2.3896   -0.3304 H   0  0  0  0  0  0  0  0  0  0  0  0
    7.7654   -2.1208    0.7740 H   0  0  0  0  0  0  0  0  0  0  0  0
    7.0199   -6.4716    0.0919 H   0  0  0  0  0  0  0  0  0  0  0  0
    5.0217   -5.7014   -1.2418 H   0  0  0  0  0  0  0  0  0  0  0  0
    4.7338   -7.1308   -0.3498 H   0  0  0  0  0  0  0  0  0  0  0  0
    4.0284   -4.3041    0.4560 H   0  0  0  0  0  0  0  0  0  0  0  0
    2.9066   -5.4711   -0.1695 H   0  0  0  0  0  0  0  0  0  0  0  0
    2.4984   -4.6918    3.4304 H   0  0  0  0  0  0  0  0  0  0  0  0
    1.4126   -5.3811    2.2156 H   0  0  0  0  0  0  0  0  0  0  0  0
    2.3845   -3.9998    1.8624 H   0  0  0  0  0  0  0  0  0  0  0  0
    2.6377   -7.7602    2.5687 H   0  0  0  0  0  0  0  0  0  0  0  0
    3.6521   -8.0088    1.2053 H   0  0  0  0  0  0  0  0  0  0  0  0
    2.0934   -7.2905    0.9776 H   0  0  0  0  0  0  0  0  0  0  0  0
    4.1980   -4.0614    3.1991 H   0  0  0  0  0  0  0  0  0  0  0  0
    7.5903   -5.7623    3.7595 H   0  0  0  0  0  0  0  0  0  0  0  0
    7.4657   -4.6696    2.5406 H   0  0  0  0  0  0  0  0  0  0  0  0
    8.3657   -6.1384    2.2300 H   0  0  0  0  0  0  0  0  0  0  0  0
    5.9093   -8.2733    1.1274 H   0  0  0  0  0  0  0  0  0  0  0  0
    7.3323   -8.0850    2.0680 H   0  0  0  0  0  0  0  0  0  0  0  0
    4.6252   -8.8401    2.8710 H   0  0  0  0  0  0  0  0  0  0  0  0
    6.0552  -13.4529    2.5673 H   0  0  0  0  0  0  0  0  0  0  0  0
    4.2390  -12.7554    2.4831 H   0  0  0  0  0  0  0  0  0  0  0  0
    4.0790  -12.7403    6.3647 H   0  0  0  0  0  0  0  0  0  0  0  0
    5.3300  -13.9267    6.0358 H   0  0  0  0  0  0  0  0  0  0  0  0
    7.0929  -12.4128    6.7034 H   0  0  0  0  0  0  0  0  0  0  0  0
    3.6140  -11.2028    7.2992 H   0  0  0  0  0  0  0  0  0  0  0  0
    1.9979  -11.4292    6.3278 H   0  0  0  0  0  0  0  0  0  0  0  0
    1.6152  -10.5385    2.7800 H   0  0  0  0  0  0  0  0  0  0  0  0
    3.2616  -10.3043    2.1207 H   0  0  0  0  0  0  0  0  0  0  0  0
    2.3348  -12.1589    4.0501 H   0  0  0  0  0  0  0  0  0  0  0  0
    6.2694   -8.7982    7.8145 H   0  0  0  0  0  0  0  0  0  0  0  0
    7.8886   -7.5492    4.5438 H   0  0  0  0  0  0  0  0  0  0  0  0
    6.4090   -5.3576    4.6449 H   0  0  0  0  0  0  0  0  0  0  0  0
    3.4344   -5.4344    5.6641 H   0  0  0  0  0  0  0  0  0  0  0  0
   -1.8298   -6.2531    5.3178 H   0  0  0  0  0  0  0  0  0  0  0  0
   -2.9928   -7.6579    3.2663 H   0  0  0  0  0  0  0  0  0  0  0  0
   -1.0033   -8.5015    1.6600 H   0  0  0  0  0  0  0  0  0  0  0  0
    1.9382   -8.4433    6.7762 H   0  0  0  0  0  0  0  0  0  0  0  0
    2.1189   -6.9877    7.7072 H   0  0  0  0  0  0  0  0  0  0  0  0
    2.9500   -8.4199    8.2154 H   0  0  0  0  0  0  0  0  0  0  0  0
    4.7566   -7.0944    8.1885 H   0  0  0  0  0  0  0  0  0  0  0  0
  1  2  1  0
  1 55  1  0
  1 56  1  0
  1 57  1  0
  2  3  2  0
  2  4  1  0
  4  5  1  0
  5 13  1  0
  5  6  1  0
  5 58  1  6
  6  7  1  0
  6 59  1  0
  6 60  1  0
  7  8  1  0
  7 61  1  0
  7 62  1  0
  8  9  1  0
  8 10  1  0
  8 11  1  0
  9 63  1  0
  9 64  1  0
  9 65  1  0
 10 66  1  0
 10 67  1  0
 10 68  1  0
 11 40  1  0
 11 12  1  1
 11 13  1  0
 12 69  1  0
 13 14  1  1
 13 15  1  0
 14 70  1  0
 14 71  1  0
 14 72  1  0
 15 16  1  0
 15 73  1  0
 15 74  1  0
 16 39  1  0
 16 17  1  0
 16 75  1  6
 17 18  2  0
 17 19  1  6
 19 24  1  0
 19 20  1  6
 19 21  1  0
 20 76  1  0
 21 33  1  0
 21 22  1  0
 21 77  1  6
 22 23  1  0
 23 24  1  0
 23 78  1  0
 23 79  1  0
 24 25  1  6
 24 26  1  0
 25 80  1  0
 26 27  1  0
 27 28  1  1
 27 29  1  0
 27 34  1  0
 28 81  1  0
 29 33  1  0
 29 30  1  1
 29 31  1  0
 30 82  1  0
 31 32  1  0
 32 33  1  0
 32 83  1  0
 32 84  1  0
 33 85  1  1
 34 39  1  0
 34 51  1  1
 34 35  1  0
 35 38  1  0
 35 36  1  0
 35 86  1  1
 36 37  1  0
 37 38  1  0
 37 39  1  0
 37 87  1  6
 39 40  1  6
 40 41  1  1
 40 42  1  0
 41 88  1  0
 42 43  1  0
 42 51  1  0
 42 89  1  1
 43 44  1  0
 44 45  2  0
 44 46  1  0
 46 50  1  0
 46 47  2  0
 47 48  1  0
 47 90  1  0
 48 49  2  0
 48 91  1  0
 49 50  1  0
 49 92  1  0
 50 54  1  0
 51 52  1  0
 51 53  1  1
 52 93  1  0
 52 94  1  0
 52 95  1  0
 53 96  1  0
M  END
>  <i_m_ct_stereo_status>  (120) 
1

>  <s_m_source_file>  (120) 
/var/tmp/pbs.5075288.sched01/tmp4tfr24xl/130i3iej58d.sdf

>  <i_m_source_file_index>  (120) 
21

>  <i_lp_mmshare_version>  (120) 
48012

>  <i_f3d_flags>  (120) 
0

>  <s_epik_input>  (120) 
W25IXTFbY0hdW2NIXVtjSF1jMUMoPU8pT1tDQEBIXShbQ0BdMihbQ0gzXSlbT0hdKVtDQF0zKFtPSF0pW0NAXShbT0hdKShDKFtDSDNdKShbQ0gzXSlbQ0gyXVtDSDJdW0NASF00T0MoPU8pW0NIM10pW0NAQF00KFtDSDNdKVtDSDJdW0NASF0oW0NAQF0zKFtDQEBdMjU2KVtDQEBIXTdPW0NASF02TzcpW1MrXShbTy1dKVtDQF04KFtPSF0pW0NAQEhdOVtDQEhdMVtDQF0oW09IXSkoT1tDSDJdMSlbQ0BAXTUoW09IXSlPW0NAXTgoW0NIMl1POSlbT0hd

>  <s_epik_cmdline>  (120) 
J2VwaWtfcHl0aG9uJywgJy1waHQnLCAnMi4wJywgJy1waCcsICc3LjAnLCAnLXRuJywgJzgnLCAnLW1hJywgJzIwMCcsICctaW1hZScsICc8aW5maWxlLm1hZT4nLCAnLW9tYWUnLCAnPG91dGZpbGUubWFlPic=

>  <r_lp_tautomer_probability>  (120) 
1

>  <r_epik_Ionization_Penalty>  (120) 
0.000278287

>  <r_epik_Ionization_Penalty_Charging>  (120) 
0

>  <r_epik_Ionization_Penalty_Neutral>  (120) 
0.000278287

>  <r_epik_State_Penalty>  (120) 
-0

>  <r_epik_Charging_Adjusted_Penalty>  (120) 
0

>  <i_epik_Tot_Q>  (120) 
0

>  <i_epik_Tot_abs_Q>  (120) 
2

>  <s_epik_Chemistry_Notes>  (120) 
This compound has an ester and may undergo hydrolysis at high or low pH. This compound contains an acetal/aminal-like group ( X-CH(R)-Y where X, Y are N, S, or O) that may be acid/base labile, releasing an aldehyde.

>  <s_lp_Force_Field>  (120) 
OPLS3e

>  <r_lp_Energy>  (120) 
230.472

>  <b_lp_Chiralities_Consistent>  (120) 
1

>  <s_lp_Variant>  (120) 
58:0-1

>  <s_i_glide_gridfile>  (120) 
pfpi4k_grid

>  <i_i_glide_lignum>  (120) 
21

>  <i_i_glide_rotatable_bonds>  (120) 
12

>  <r_i_docking_score>  (120) 
-3.9808

>  <r_i_glide_ligand_efficiency>  (120) 
-0.0751093

>  <r_i_glide_ligand_efficiency_sa>  (120) 
-0.282132

>  <r_i_glide_ligand_efficiency_ln>  (120) 
-0.800918

>  <r_i_glide_gscore>  (120) 
-3.9808

>  <r_i_glide_lipo>  (120) 
-0.338394

>  <r_i_glide_hbond>  (120) 
-0.0271538

>  <r_i_glide_metal>  (120) 
-0

>  <r_i_glide_rewards>  (120) 
-0.193911

>  <r_i_glide_evdw>  (120) 
-34.9897

>  <r_i_glide_ecoul>  (120) 
-11.46

>  <r_i_glide_erotb>  (120) 
0.146374

>  <r_i_glide_esite>  (120) 
-0.0992238

>  <r_i_glide_emodel>  (120) 
-54.3356

>  <r_i_glide_energy>  (120) 
-46.4497

>  <r_i_glide_einternal>  (120) 
5.4836

>  <r_i_glide_intrahb_reward>  (120) 
-0

>  <i_i_glide_confnum>  (120) 
1

>  <i_i_glide_posenum>  (120) 
14

>  <r_i_glide_eff_state_penalty>  (120) 
0

>  <ligand_id>  (120) 
58

>  <original_smiles>  (120) 
CC(=O)OC1CCC(C)(C)C2(O)C1(C)CC1[S+]([O-])C3(O)C4OCC3(O)OC(O)(C3(O)OCC43)C34C5OC(O5)C13C2(O)C(OC(=O)c1ccc[nH]1)C4(C)O

>  <smiles>  (120) 
[H]OC12OC3(O[H])C4(O[H])OC([H])([H])C4([H])C([H])(OC1([H])[H])C2(O[H])S(=O)C1([H])C([H])([H])C2(C([H])([H])[H])C([H])(OC(=O)C([H])([H])[H])C([H])([H])C([H])([H])C(C([H])([H])[H])(C([H])([H])[H])C2(O[H])C2(O[H])C([H])(OC(=O)c4c([H])c([H])c([H])n4[H])C(O[H])(C([H])([H])[H])C34C3([H])OC([H])(O3)C124

$$$$
59:0:0
     RDKit          3D

 78 86  0  0  1  0  0  0  0  0999 V2000
    2.6944  -10.7965    5.4406 C   0  0  0  0  0  0  0  0  0  0  0  0
    3.8288  -10.3664    4.6485 O   0  0  0  0  0  0  0  0  0  0  0  0
    4.3475   -9.0334    4.7713 C   0  0  2  0  0  0  0  0  0  0  0  0
    4.1107   -8.5853    6.2257 C   0  0  1  0  0  0  0  0  0  0  0  0
    5.1960   -7.9456    6.9093 O   0  0  0  0  0  0  0  0  0  0  0  0
    4.0954   -7.1203    6.5510 C   0  0  1  0  0  0  0  0  0  0  0  0
    4.0406   -6.1091    5.3685 C   0  0  2  0  0  0  0  0  0  0  0  0
    2.7050   -5.3459    5.6130 C   0  0  1  0  0  0  0  0  0  0  0  0
    2.4295   -4.0593    4.8134 C   0  0  0  0  0  0  0  0  0  0  0  0
    1.4507   -6.2437    5.7183 C   0  0  0  0  0  0  0  0  0  0  0  0
    0.4327   -5.8062    6.2474 O   0  0  0  0  0  0  0  0  0  0  0  0
    1.5629   -7.5457    5.3571 O   0  0  0  0  0  0  0  0  0  0  0  0
    2.0135   -8.0034    4.0365 C   0  0  1  0  0  0  0  0  0  0  0  0
    0.9962   -9.0593    3.4718 C   0  0  0  0  0  0  0  0  0  0  0  0
    1.4736  -10.1710    2.5514 C   0  0  0  0  0  0  0  0  0  0  0  0
   -0.1914   -9.5706    4.3054 C   0  0  0  0  0  0  0  0  0  0  0  0
    0.9585   -7.6052    2.9941 C   0  0  1  0  0  0  0  0  0  0  0  0
   -0.2723   -6.7313    3.1608 C   0  0  0  0  0  0  0  0  0  0  0  0
   -0.6913   -6.6526    1.8285 O   0  0  0  0  0  0  0  0  0  0  0  0
    0.3976   -6.8750    0.9841 C   0  0  0  0  0  0  0  0  0  0  0  0
    1.4556   -7.2483    1.7392 O   0  0  0  0  0  0  0  0  0  0  0  0
    3.5753   -8.0832    3.7529 C   0  0  2  0  0  0  0  0  0  0  0  0
    3.8275   -8.6593    2.3187 C   0  0  0  0  0  0  0  0  0  0  0  0
    4.1691   -6.6515    3.8563 C   0  0  2  0  0  0  0  0  0  0  0  0
    5.5223   -6.2618    2.9945 C   0  0  2  0  0  0  0  0  0  0  0  0
    5.9833   -4.7778    3.2352 C   0  0  0  0  0  0  0  0  0  0  0  0
    5.1824   -3.7002    2.5126 C   0  0  2  0  0  0  0  0  0  0  0  0
    5.6097   -2.2766    2.8588 C   0  0  0  0  0  0  0  0  0  0  0  0
    3.7801   -3.9125    2.3126 O   0  0  0  0  0  0  0  0  0  0  0  0
    4.6261   -4.0392    1.1626 C   0  0  1  0  0  0  0  0  0  0  0  0
    4.4204   -2.9707    0.0839 C   0  0  0  0  0  0  0  0  0  0  0  0
    4.8732   -5.4645    0.6788 C   0  0  0  0  0  0  0  0  0  0  0  0
    4.7721   -5.7797   -0.4978 O   0  0  0  0  0  0  0  0  0  0  0  0
    5.2815   -6.3807    1.5894 O   0  0  0  0  0  0  0  0  0  0  0  0
    6.8259   -7.1664    3.1641 C   0  0  2  0  0  0  0  0  0  0  0  0
    7.0641   -8.4942    2.3944 C   0  0  0  0  0  0  0  0  0  0  0  0
    6.5209   -9.7100    3.1893 C   0  0  0  0  0  0  0  0  0  0  0  0
    5.9533   -9.2255    4.5466 C   0  0  1  0  0  0  0  0  0  0  0  0
    6.9754   -7.7059    4.8987 S   0  0  0  0  0  0  0  0  0  0  0  0
    8.4238   -8.1551    5.1432 O   0  0  0  0  0  0  0  0  0  0  0  0
    2.2237  -11.6779    5.0267 H   0  0  0  0  0  0  0  0  0  0  0  0
    1.9519  -10.0195    5.5280 H   0  0  0  0  0  0  0  0  0  0  0  0
    2.9775  -11.0397    6.4634 H   0  0  0  0  0  0  0  0  0  0  0  0
    3.4574   -9.1614    6.8815 H   0  0  0  0  0  0  0  0  0  0  0  0
    3.5725   -6.8177    7.4604 H   0  0  0  0  0  0  0  0  0  0  0  0
    4.8341   -5.4155    5.5833 H   0  0  0  0  0  0  0  0  0  0  0  0
    2.8145   -4.9613    6.6265 H   0  0  0  0  0  0  0  0  0  0  0  0
    1.7190   -3.4275    5.3397 H   0  0  0  0  0  0  0  0  0  0  0  0
    1.9893   -4.2688    3.8388 H   0  0  0  0  0  0  0  0  0  0  0  0
    3.3323   -3.4718    4.6918 H   0  0  0  0  0  0  0  0  0  0  0  0
    0.7034  -10.7422    2.1090 H   0  0  0  0  0  0  0  0  0  0  0  0
    2.1662  -10.8322    3.0591 H   0  0  0  0  0  0  0  0  0  0  0  0
    1.9519   -9.7551    1.6551 H   0  0  0  0  0  0  0  0  0  0  0  0
   -0.9728   -9.9448    3.6500 H   0  0  0  0  0  0  0  0  0  0  0  0
   -0.6398   -8.8135    4.9534 H   0  0  0  0  0  0  0  0  0  0  0  0
    0.0890  -10.3844    4.9609 H   0  0  0  0  0  0  0  0  0  0  0  0
   -0.9725   -7.1536    3.9147 H   0  0  0  0  0  0  0  0  0  0  0  0
    0.0397   -5.7376    3.5941 H   0  0  0  0  0  0  0  0  0  0  0  0
    0.1783   -7.6458    0.2467 H   0  0  0  0  0  0  0  0  0  0  0  0
    0.7021   -5.9822    0.4275 H   0  0  0  0  0  0  0  0  0  0  0  0
    3.2842   -8.2363    1.4964 H   0  0  0  0  0  0  0  0  0  0  0  0
    3.7954   -9.7490    2.2936 H   0  0  0  0  0  0  0  0  0  0  0  0
    4.7916   -8.5626    1.8949 H   0  0  0  0  0  0  0  0  0  0  0  0
    3.4343   -6.0661    3.3064 H   0  0  0  0  0  0  0  0  0  0  0  0
    6.1380   -4.5423    4.2750 H   0  0  0  0  0  0  0  0  0  0  0  0
    6.9629   -4.6658    2.7752 H   0  0  0  0  0  0  0  0  0  0  0  0
    6.6096   -2.0813    2.4744 H   0  0  0  0  0  0  0  0  0  0  0  0
    5.6054   -2.1103    3.9289 H   0  0  0  0  0  0  0  0  0  0  0  0
    4.9427   -1.5313    2.4114 H   0  0  0  0  0  0  0  0  0  0  0  0
    5.3843   -2.5680   -0.2138 H   0  0  0  0  0  0  0  0  0  0  0  0
    3.8233   -2.1429    0.4680 H   0  0  0  0  0  0  0  0  0  0  0  0
    3.9113   -3.3547   -0.7939 H   0  0  0  0  0  0  0  0  0  0  0  0
    7.7104   -6.5725    2.9745 H   0  0  0  0  0  0  0  0  0  0  0  0
    6.7406   -8.4741    1.3509 H   0  0  0  0  0  0  0  0  0  0  0  0
    8.1441   -8.6326    2.3020 H   0  0  0  0  0  0  0  0  0  0  0  0
    5.8276  -10.3315    2.6195 H   0  0  0  0  0  0  0  0  0  0  0  0
    7.3489  -10.3822    3.3848 H   0  0  0  0  0  0  0  0  0  0  0  0
    6.2738   -9.9316    5.3050 H   0  0  0  0  0  0  0  0  0  0  0  0
  1  2  1  0
  1 41  1  0
  1 42  1  0
  1 43  1  0
  3  2  1  1
  3 22  1  0
  3 38  1  0
  3  4  1  0
  4  6  1  0
  4  5  1  0
  4 44  1  1
  5  6  1  0
  6  7  1  0
  6 45  1  1
  7 24  1  0
  7  8  1  0
  7 46  1  1
  8  9  1  0
  8 10  1  0
  8 47  1  1
  9 48  1  0
  9 49  1  0
  9 50  1  0
 10 11  2  0
 10 12  1  0
 13 12  1  1
 13 17  1  0
 13 14  1  0
 13 22  1  0
 14 15  1  0
 14 16  1  0
 14 17  1  0
 15 51  1  0
 15 52  1  0
 15 53  1  0
 16 54  1  0
 16 55  1  0
 16 56  1  0
 17 21  1  6
 17 18  1  0
 18 19  1  0
 18 57  1  0
 18 58  1  0
 19 20  1  0
 20 21  1  0
 20 59  1  0
 20 60  1  0
 22 23  1  6
 22 24  1  0
 23 61  1  0
 23 62  1  0
 23 63  1  0
 24 25  1  0
 24 64  1  6
 25 34  1  6
 25 26  1  0
 25 35  1  0
 26 27  1  0
 26 65  1  0
 26 66  1  0
 27 30  1  0
 27 28  1  6
 27 29  1  0
 28 67  1  0
 28 68  1  0
 28 69  1  0
 29 30  1  0
 30 31  1  6
 30 32  1  0
 31 70  1  0
 31 71  1  0
 31 72  1  0
 32 33  2  0
 32 34  1  0
 39 35  1  6
 35 36  1  0
 35 73  1  6
 36 37  1  0
 36 74  1  0
 36 75  1  0
 37 38  1  0
 37 76  1  0
 37 77  1  0
 38 39  1  0
 38 78  1  1
 39 40  2  0
M  END
>  <i_m_ct_stereo_status>  (121) 
1

>  <s_m_source_file>  (121) 
/var/tmp/pbs.5075288.sched01/tmp4tfr24xl/130i3iej58d.sdf

>  <i_m_source_file_index>  (121) 
22

>  <i_lp_mmshare_version>  (121) 
48012

>  <i_f3d_flags>  (121) 
0

>  <s_epik_input>  (121) 
TzFbQ0gyXU9bQ0gyXVtDQF0xKEMyKFtDSDNdKVtDSDNdKVtDQF0yM1tDQF00KFtDSDNdKVtDQF01KE9bQ0gzXSlbQ0BASF02W0NAQEhdKE82KVtDQEhdKFtDQEBIXShbQ0gzXSlDKD1PKU8zKVtDQEhdNFtDQEBdNyhbQ0gyXVtDQEBdOChbQ0gzXSlbQ0BAXShPOCkoW0NIM10pQyg9TylPNylbQ0BASF05W0NIMl1bQ0gyXVtDQEhdNVtTK105W08tXQ==

>  <s_epik_cmdline>  (121) 
J2VwaWtfcHl0aG9uJywgJy1waHQnLCAnMi4wJywgJy1waCcsICc3LjAnLCAnLXRuJywgJzgnLCAnLW1hJywgJzIwMCcsICctaW1hZScsICc8aW5maWxlLm1hZT4nLCAnLW9tYWUnLCAnPG91dGZpbGUubWFlPic=

>  <r_lp_tautomer_probability>  (121) 
1

>  <r_epik_Ionization_Penalty>  (121) 
6.23652e-12

>  <r_epik_Ionization_Penalty_Charging>  (121) 
0

>  <r_epik_Ionization_Penalty_Neutral>  (121) 
6.23652e-12

>  <r_epik_State_Penalty>  (121) 
-0

>  <r_epik_Charging_Adjusted_Penalty>  (121) 
0

>  <i_epik_Tot_Q>  (121) 
0

>  <i_epik_Tot_abs_Q>  (121) 
2

>  <s_epik_Chemistry_Notes>  (121) 
This compound has an ester and may undergo hydrolysis at high or low pH. This compound contains an acetal/aminal-like group ( X-CH(R)-Y where X, Y are N, S, or O) that may be acid/base labile, releasing an aldehyde.

>  <s_lp_Force_Field>  (121) 
OPLS3e

>  <r_lp_Energy>  (121) 
138.742

>  <b_lp_Chiralities_Consistent>  (121) 
1

>  <s_lp_Variant>  (121) 
59:0-1

>  <s_i_glide_gridfile>  (121) 
pfpi4k_grid

>  <i_i_glide_lignum>  (121) 
22

>  <i_i_glide_rotatable_bonds>  (121) 
1

>  <r_i_docking_score>  (121) 
-1.99101

>  <r_i_glide_ligand_efficiency>  (121) 
-0.0497752

>  <r_i_glide_ligand_efficiency_sa>  (121) 
-0.170229

>  <r_i_glide_ligand_efficiency_ln>  (121) 
-0.424623

>  <r_i_glide_gscore>  (121) 
-1.99101

>  <r_i_glide_lipo>  (121) 
-0.35526

>  <r_i_glide_hbond>  (121) 
-0.185031

>  <r_i_glide_metal>  (121) 
-0

>  <r_i_glide_rewards>  (121) 
-0.108844

>  <r_i_glide_evdw>  (121) 
-20.9192

>  <r_i_glide_ecoul>  (121) 
-1.30426

>  <r_i_glide_erotb>  (121) 
0

>  <r_i_glide_esite>  (121) 
-0.100272

>  <r_i_glide_emodel>  (121) 
-16.1795

>  <r_i_glide_energy>  (121) 
-22.2235

>  <r_i_glide_einternal>  (121) 
11.1984

>  <r_i_glide_intrahb_reward>  (121) 
-0

>  <i_i_glide_confnum>  (121) 
5

>  <i_i_glide_posenum>  (121) 
39

>  <r_i_glide_eff_state_penalty>  (121) 
0

>  <ligand_id>  (121) 
59

>  <original_smiles>  (121) 
COC12C3OC3C3C(C)C(=O)OC4(C(C)(C)C45COCO5)C1(C)C3C1(CC3(C)OC3(C)C(=O)O1)C1CCC2[S+]1[O-]

>  <smiles>  (121) 
[H]C([H])([H])OC12C3([H])OC3([H])C3([H])C([H])(C([H])([H])[H])C(=O)OC4(C5(OC([H])([H])OC5([H])[H])C4(C([H])([H])[H])C([H])([H])[H])C1(C([H])([H])[H])C3([H])C1(OC(=O)C3(C([H])([H])[H])OC3(C([H])([H])[H])C1([H])[H])C1([H])S(=O)C2([H])C([H])([H])C1([H])[H]

$$$$
59:0:1
     RDKit          3D

 78 86  0  0  1  0  0  0  0  0999 V2000
    3.5501   -1.7861    6.9194 C   0  0  0  0  0  0  0  0  0  0  0  0
    3.3225   -2.7747    5.9177 O   0  0  0  0  0  0  0  0  0  0  0  0
    3.0933   -4.1507    6.2736 C   0  0  2  0  0  0  0  0  0  0  0  0
    4.4560   -4.6108    6.8010 C   0  0  1  0  0  0  0  0  0  0  0  0
    4.4238   -5.4604    7.9607 O   0  0  0  0  0  0  0  0  0  0  0  0
    4.8038   -6.0886    6.7357 C   0  0  1  0  0  0  0  0  0  0  0  0
    3.9130   -7.0053    5.8529 C   0  0  2  0  0  0  0  0  0  0  0  0
    4.9189   -7.5655    4.7956 C   0  0  1  0  0  0  0  0  0  0  0  0
    4.4817   -8.7245    3.8912 C   0  0  0  0  0  0  0  0  0  0  0  0
    5.6978   -6.4849    4.0197 C   0  0  0  0  0  0  0  0  0  0  0  0
    6.7479   -6.7868    3.4457 O   0  0  0  0  0  0  0  0  0  0  0  0
    5.2885   -5.1870    4.1253 O   0  0  0  0  0  0  0  0  0  0  0  0
    3.9430   -4.7152    3.7820 C   0  0  1  0  0  0  0  0  0  0  0  0
    4.0462   -3.4892    2.8496 C   0  0  0  0  0  0  0  0  0  0  0  0
    2.9760   -2.3869    2.8607 C   0  0  0  0  0  0  0  0  0  0  0  0
    5.4005   -2.8376    2.4936 C   0  0  0  0  0  0  0  0  0  0  0  0
    3.7405   -4.8664    2.2951 C   0  0  1  0  0  0  0  0  0  0  0  0
    4.6154   -5.5566    1.2581 C   0  0  0  0  0  0  0  0  0  0  0  0
    3.8080   -5.4873    0.0805 O   0  0  0  0  0  0  0  0  0  0  0  0
    2.4741   -5.3711    0.5243 C   0  0  0  0  0  0  0  0  0  0  0  0
    2.4276   -5.2045    1.8843 O   0  0  0  0  0  0  0  0  0  0  0  0
    2.7851   -4.8831    4.8827 C   0  0  2  0  0  0  0  0  0  0  0  0
    1.4375   -4.2537    4.3560 C   0  0  0  0  0  0  0  0  0  0  0  0
    2.5732   -6.4125    5.1766 C   0  0  2  0  0  0  0  0  0  0  0  0
    1.1129   -6.9514    5.6709 C   0  0  2  0  0  0  0  0  0  0  0  0
    1.0885   -8.4966    5.9190 C   0  0  0  0  0  0  0  0  0  0  0  0
    1.0199   -9.3735    4.6871 C   0  0  2  0  0  0  0  0  0  0  0  0
    1.1002  -10.8641    4.9683 C   0  0  0  0  0  0  0  0  0  0  0  0
    1.6594   -8.9094    3.4851 O   0  0  0  0  0  0  0  0  0  0  0  0
    0.2311   -8.8537    3.4996 C   0  0  1  0  0  0  0  0  0  0  0  0
   -0.4675   -9.7775    2.5247 C   0  0  0  0  0  0  0  0  0  0  0  0
   -0.3653   -7.4730    3.6539 C   0  0  0  0  0  0  0  0  0  0  0  0
   -1.2634   -7.0661    2.9235 O   0  0  0  0  0  0  0  0  0  0  0  0
    0.1019   -6.6859    4.6687 O   0  0  0  0  0  0  0  0  0  0  0  0
    0.4549   -6.2776    6.9568 C   0  0  2  0  0  0  0  0  0  0  0  0
   -0.3630   -4.9517    6.9313 C   0  0  0  0  0  0  0  0  0  0  0  0
    0.5522   -3.7234    7.1731 C   0  0  0  0  0  0  0  0  0  0  0  0
    1.9958   -4.2035    7.4428 C   0  0  1  0  0  0  0  0  0  0  0  0
    1.7534   -5.8971    8.1716 S   0  0  0  0  0  0  0  0  0  0  0  0
    1.0634   -5.6958    9.5449 O   0  0  0  0  0  0  0  0  0  0  0  0
    3.8772   -0.8682    6.4329 H   0  0  0  0  0  0  0  0  0  0  0  0
    4.3241   -2.0776    7.6286 H   0  0  0  0  0  0  0  0  0  0  0  0
    2.6375   -1.5484    7.4654 H   0  0  0  0  0  0  0  0  0  0  0  0
    5.2975   -3.9295    6.7298 H   0  0  0  0  0  0  0  0  0  0  0  0
    5.8434   -6.3775    6.8140 H   0  0  0  0  0  0  0  0  0  0  0  0
    3.6480   -7.8421    6.4882 H   0  0  0  0  0  0  0  0  0  0  0  0
    5.6886   -8.0344    5.4097 H   0  0  0  0  0  0  0  0  0  0  0  0
    5.3473   -9.2758    3.5240 H   0  0  0  0  0  0  0  0  0  0  0  0
    3.9415   -8.3864    3.0101 H   0  0  0  0  0  0  0  0  0  0  0  0
    3.8773   -9.4472    4.4354 H   0  0  0  0  0  0  0  0  0  0  0  0
    3.0667   -1.6476    2.0813 H   0  0  0  0  0  0  0  0  0  0  0  0
    3.0003   -1.8826    3.8318 H   0  0  0  0  0  0  0  0  0  0  0  0
    2.0034   -2.8219    2.6846 H   0  0  0  0  0  0  0  0  0  0  0  0
    5.3154   -2.2843    1.5550 H   0  0  0  0  0  0  0  0  0  0  0  0
    6.2125   -3.5652    2.3643 H   0  0  0  0  0  0  0  0  0  0  0  0
    5.7122   -2.1520    3.2830 H   0  0  0  0  0  0  0  0  0  0  0  0
    5.6236   -5.0710    1.1700 H   0  0  0  0  0  0  0  0  0  0  0  0
    4.8074   -6.6149    1.5523 H   0  0  0  0  0  0  0  0  0  0  0  0
    1.9898   -4.5256    0.0513 H   0  0  0  0  0  0  0  0  0  0  0  0
    1.9006   -6.2559    0.2835 H   0  0  0  0  0  0  0  0  0  0  0  0
    1.1375   -4.5264    3.3578 H   0  0  0  0  0  0  0  0  0  0  0  0
    1.4334   -3.1627    4.4670 H   0  0  0  0  0  0  0  0  0  0  0  0
    0.5643   -4.4955    4.8470 H   0  0  0  0  0  0  0  0  0  0  0  0
    2.5987   -6.8079    4.1639 H   0  0  0  0  0  0  0  0  0  0  0  0
    1.8594   -8.8324    6.6034 H   0  0  0  0  0  0  0  0  0  0  0  0
    0.1576   -8.7430    6.4248 H   0  0  0  0  0  0  0  0  0  0  0  0
    0.2117  -11.1888    5.5186 H   0  0  0  0  0  0  0  0  0  0  0  0
    1.9802  -11.0988    5.5659 H   0  0  0  0  0  0  0  0  0  0  0  0
    1.1580  -11.4534    4.0555 H   0  0  0  0  0  0  0  0  0  0  0  0
   -1.2715  -10.2755    3.0610 H   0  0  0  0  0  0  0  0  0  0  0  0
    0.2162  -10.5351    2.1390 H   0  0  0  0  0  0  0  0  0  0  0  0
   -0.9069   -9.2555    1.6597 H   0  0  0  0  0  0  0  0  0  0  0  0
   -0.1996   -6.9894    7.4436 H   0  0  0  0  0  0  0  0  0  0  0  0
   -1.0133   -4.8455    6.0632 H   0  0  0  0  0  0  0  0  0  0  0  0
   -1.0795   -4.9779    7.7540 H   0  0  0  0  0  0  0  0  0  0  0  0
    0.4748   -2.9591    6.4005 H   0  0  0  0  0  0  0  0  0  0  0  0
    0.1970   -3.2045    8.0605 H   0  0  0  0  0  0  0  0  0  0  0  0
    2.3910   -3.6251    8.2725 H   0  0  0  0  0  0  0  0  0  0  0  0
  1  2  1  0
  1 41  1  0
  1 42  1  0
  1 43  1  0
  3  2  1  6
  3 22  1  0
  3 38  1  0
  3  4  1  0
  4  6  1  0
  4  5  1  0
  4 44  1  1
  5  6  1  0
  6  7  1  0
  6 45  1  1
  7 24  1  0
  7  8  1  0
  7 46  1  1
  8  9  1  0
  8 10  1  0
  8 47  1  1
  9 48  1  0
  9 49  1  0
  9 50  1  0
 10 11  2  0
 10 12  1  0
 13 12  1  1
 13 17  1  0
 13 14  1  0
 13 22  1  0
 14 15  1  0
 14 16  1  0
 14 17  1  0
 15 51  1  0
 15 52  1  0
 15 53  1  0
 16 54  1  0
 16 55  1  0
 16 56  1  0
 17 21  1  1
 17 18  1  0
 18 19  1  0
 18 57  1  0
 18 58  1  0
 19 20  1  0
 20 21  1  0
 20 59  1  0
 20 60  1  0
 22 23  1  6
 22 24  1  0
 23 61  1  0
 23 62  1  0
 23 63  1  0
 24 25  1  0
 24 64  1  6
 25 34  1  6
 25 26  1  0
 25 35  1  0
 26 27  1  0
 26 65  1  0
 26 66  1  0
 27 30  1  0
 27 28  1  1
 27 29  1  0
 28 67  1  0
 28 68  1  0
 28 69  1  0
 29 30  1  0
 30 31  1  6
 30 32  1  0
 31 70  1  0
 31 71  1  0
 31 72  1  0
 32 33  2  0
 32 34  1  0
 39 35  1  6
 35 36  1  0
 35 73  1  1
 36 37  1  0
 36 74  1  0
 36 75  1  0
 37 38  1  0
 37 76  1  0
 37 77  1  0
 38 39  1  0
 38 78  1  1
 39 40  2  0
M  END
>  <i_m_ct_stereo_status>  (122) 
1

>  <s_m_source_file>  (122) 
/var/tmp/pbs.5075288.sched01/tmp4tfr24xl/130i3iej58d.sdf

>  <i_m_source_file_index>  (122) 
22

>  <i_lp_mmshare_version>  (122) 
48012

>  <i_f3d_flags>  (122) 
0

>  <s_epik_input>  (122) 
TzFbQ0gyXU9bQ0gyXVtDQF0xKEMyKFtDSDNdKVtDSDNdKVtDQF0yM1tDQF00KFtDSDNdKVtDQF01KE9bQ0gzXSlbQ0BASF02W0NAQEhdKE82KVtDQEhdKFtDQEBIXShbQ0gzXSlDKD1PKU8zKVtDQEhdNFtDQEBdNyhbQ0gyXVtDQEBdOChbQ0gzXSlbQ0BAXShPOCkoW0NIM10pQyg9TylPNylbQ0BASF05W0NIMl1bQ0gyXVtDQEhdNVtTK105W08tXQ==

>  <s_epik_cmdline>  (122) 
J2VwaWtfcHl0aG9uJywgJy1waHQnLCAnMi4wJywgJy1waCcsICc3LjAnLCAnLXRuJywgJzgnLCAnLW1hJywgJzIwMCcsICctaW1hZScsICc8aW5maWxlLm1hZT4nLCAnLW9tYWUnLCAnPG91dGZpbGUubWFlPic=

>  <r_lp_tautomer_probability>  (122) 
1

>  <r_epik_Ionization_Penalty>  (122) 
6.23652e-12

>  <r_epik_Ionization_Penalty_Charging>  (122) 
0

>  <r_epik_Ionization_Penalty_Neutral>  (122) 
6.23652e-12

>  <r_epik_State_Penalty>  (122) 
-0

>  <r_epik_Charging_Adjusted_Penalty>  (122) 
0

>  <i_epik_Tot_Q>  (122) 
0

>  <i_epik_Tot_abs_Q>  (122) 
2

>  <s_epik_Chemistry_Notes>  (122) 
This compound has an ester and may undergo hydrolysis at high or low pH. This compound contains an acetal/aminal-like group ( X-CH(R)-Y where X, Y are N, S, or O) that may be acid/base labile, releasing an aldehyde.

>  <s_lp_Force_Field>  (122) 
OPLS3e

>  <r_lp_Energy>  (122) 
138.742

>  <b_lp_Chiralities_Consistent>  (122) 
1

>  <s_lp_Variant>  (122) 
59:0-1

>  <s_i_glide_gridfile>  (122) 
pfpi4k_grid

>  <i_i_glide_lignum>  (122) 
22

>  <i_i_glide_rotatable_bonds>  (122) 
1

>  <r_i_docking_score>  (122) 
-1.9278

>  <r_i_glide_ligand_efficiency>  (122) 
-0.0481949

>  <r_i_glide_ligand_efficiency_sa>  (122) 
-0.164824

>  <r_i_glide_ligand_efficiency_ln>  (122) 
-0.411143

>  <r_i_glide_gscore>  (122) 
-1.9278

>  <r_i_glide_lipo>  (122) 
-0.172843

>  <r_i_glide_hbond>  (122) 
-0.16

>  <r_i_glide_metal>  (122) 
-0

>  <r_i_glide_rewards>  (122) 
0

>  <r_i_glide_evdw>  (122) 
-23.5313

>  <r_i_glide_ecoul>  (122) 
-2.13068

>  <r_i_glide_erotb>  (122) 
0

>  <r_i_glide_esite>  (122) 
-0.0987885

>  <r_i_glide_emodel>  (122) 
-26.1825

>  <r_i_glide_energy>  (122) 
-25.662

>  <r_i_glide_einternal>  (122) 
0.00121166

>  <r_i_glide_intrahb_reward>  (122) 
-0

>  <i_i_glide_confnum>  (122) 
5

>  <i_i_glide_posenum>  (122) 
10

>  <r_i_glide_eff_state_penalty>  (122) 
0

>  <ligand_id>  (122) 
59

>  <original_smiles>  (122) 
COC12C3OC3C3C(C)C(=O)OC4(C(C)(C)C45COCO5)C1(C)C3C1(CC3(C)OC3(C)C(=O)O1)C1CCC2[S+]1[O-]

>  <smiles>  (122) 
[H]C([H])([H])OC12C3([H])OC3([H])C3([H])C([H])(C([H])([H])[H])C(=O)OC4(C5(OC([H])([H])OC5([H])[H])C4(C([H])([H])[H])C([H])([H])[H])C1(C([H])([H])[H])C3([H])C1(OC(=O)C3(C([H])([H])[H])OC3(C([H])([H])[H])C1([H])[H])C1([H])S(=O)C2([H])C([H])([H])C1([H])[H]

$$$$
59:0:2
     RDKit          3D

 78 86  0  0  1  0  0  0  0  0999 V2000
    5.3697  -10.7857    5.1123 C   0  0  0  0  0  0  0  0  0  0  0  0
    4.5544   -9.7715    4.5307 O   0  0  0  0  0  0  0  0  0  0  0  0
    4.8688   -8.3777    4.7001 C   0  0  2  0  0  0  0  0  0  0  0  0
    4.6107   -8.1377    6.1914 C   0  0  1  0  0  0  0  0  0  0  0  0
    5.5636   -7.2905    6.8651 O   0  0  0  0  0  0  0  0  0  0  0  0
    4.2642   -6.7306    6.6552 C   0  0  1  0  0  0  0  0  0  0  0  0
    3.8758   -5.6861    5.5762 C   0  0  2  0  0  0  0  0  0  0  0  0
    2.4174   -5.2883    5.9776 C   0  0  1  0  0  0  0  0  0  0  0  0
    1.7639   -4.0745    5.3061 C   0  0  0  0  0  0  0  0  0  0  0  0
    1.4439   -6.4763    6.1022 C   0  0  0  0  0  0  0  0  0  0  0  0
    0.3983   -6.3372    6.7511 O   0  0  0  0  0  0  0  0  0  0  0  0
    1.8366   -7.6924    5.6338 O   0  0  0  0  0  0  0  0  0  0  0  0
    2.2517   -7.9503    4.2455 C   0  0  1  0  0  0  0  0  0  0  0  0
    1.4907   -9.1748    3.7010 C   0  0  0  0  0  0  0  0  0  0  0  0
    2.1139  -10.0956    2.6429 C   0  0  0  0  0  0  0  0  0  0  0  0
    0.5611  -10.0323    4.5879 C   0  0  0  0  0  0  0  0  0  0  0  0
    1.0512   -7.7705    3.3479 C   0  0  1  0  0  0  0  0  0  0  0  0
   -0.3376   -7.2206    3.6597 C   0  0  0  0  0  0  0  0  0  0  0  0
   -0.9508   -7.1308    2.3703 O   0  0  0  0  0  0  0  0  0  0  0  0
    0.1160   -7.0796    1.4453 C   0  0  0  0  0  0  0  0  0  0  0  0
    1.3241   -7.2155    2.0739 O   0  0  0  0  0  0  0  0  0  0  0  0
    3.7644   -7.6043    3.8386 C   0  0  2  0  0  0  0  0  0  0  0  0
    4.0268   -8.0178    2.3362 C   0  0  0  0  0  0  0  0  0  0  0  0
    4.0048   -6.0625    4.0125 C   0  0  2  0  0  0  0  0  0  0  0  0
    5.1163   -5.3029    3.0900 C   0  0  2  0  0  0  0  0  0  0  0  0
    5.2222   -3.7713    3.4012 C   0  0  0  0  0  0  0  0  0  0  0  0
    4.1236   -2.8954    2.8384 C   0  0  2  0  0  0  0  0  0  0  0  0
    4.2141   -1.4363    3.2544 C   0  0  0  0  0  0  0  0  0  0  0  0
    2.8029   -3.4469    2.7159 O   0  0  0  0  0  0  0  0  0  0  0  0
    3.5337   -3.2815    1.5001 C   0  0  1  0  0  0  0  0  0  0  0  0
    2.9754   -2.2506    0.5372 C   0  0  0  0  0  0  0  0  0  0  0  0
    4.0706   -4.5621    0.8792 C   0  0  0  0  0  0  0  0  0  0  0  0
    3.9308   -4.8166   -0.2970 O   0  0  0  0  0  0  0  0  0  0  0  0
    4.7743   -5.4044    1.6919 O   0  0  0  0  0  0  0  0  0  0  0  0
    6.6080   -5.8670    3.0811 C   0  0  2  0  0  0  0  0  0  0  0  0
    7.0935   -7.0488    2.1902 C   0  0  0  0  0  0  0  0  0  0  0  0
    6.9444   -8.4047    2.9278 C   0  0  0  0  0  0  0  0  0  0  0  0
    6.4222   -8.1579    4.3617 C   0  0  1  0  0  0  0  0  0  0  0  0
    7.0364   -6.4465    4.7505 S   0  0  0  0  0  0  0  0  0  0  0  0
    8.5847   -6.5369    4.8374 O   0  0  0  0  0  0  0  0  0  0  0  0
    4.8561  -11.7423    5.0164 H   0  0  0  0  0  0  0  0  0  0  0  0
    5.5575  -10.6197    6.1725 H   0  0  0  0  0  0  0  0  0  0  0  0
    6.3233  -10.8832    4.5939 H   0  0  0  0  0  0  0  0  0  0  0  0
    4.1813   -8.9392    6.7820 H   0  0  0  0  0  0  0  0  0  0  0  0
    3.7929   -6.6103    7.6215 H   0  0  0  0  0  0  0  0  0  0  0  0
    4.4920   -4.8188    5.7849 H   0  0  0  0  0  0  0  0  0  0  0  0
    2.5294   -4.9477    7.0073 H   0  0  0  0  0  0  0  0  0  0  0  0
    0.9736   -3.6657    5.9349 H   0  0  0  0  0  0  0  0  0  0  0  0
    1.2988   -4.3242    4.3550 H   0  0  0  0  0  0  0  0  0  0  0  0
    2.4795   -3.2686    5.1628 H   0  0  0  0  0  0  0  0  0  0  0  0
    1.4389  -10.8264    2.2405 H   0  0  0  0  0  0  0  0  0  0  0  0
    2.9768  -10.6053    3.0796 H   0  0  0  0  0  0  0  0  0  0  0  0
    2.4121   -9.5158    1.7787 H   0  0  0  0  0  0  0  0  0  0  0  0
   -0.1663  -10.5622    3.9684 H   0  0  0  0  0  0  0  0  0  0  0  0
   -0.0147   -9.4419    5.3143 H   0  0  0  0  0  0  0  0  0  0  0  0
    1.1378  -10.7611    5.1583 H   0  0  0  0  0  0  0  0  0  0  0  0
   -0.8771   -7.8601    4.4093 H   0  0  0  0  0  0  0  0  0  0  0  0
   -0.2528   -6.2077    4.1185 H   0  0  0  0  0  0  0  0  0  0  0  0
    0.0200   -7.8406    0.6811 H   0  0  0  0  0  0  0  0  0  0  0  0
    0.1350   -6.1268    0.9441 H   0  0  0  0  0  0  0  0  0  0  0  0
    3.2937   -7.6979    1.6155 H   0  0  0  0  0  0  0  0  0  0  0  0
    4.2122   -9.0922    2.2403 H   0  0  0  0  0  0  0  0  0  0  0  0
    4.8706   -7.6379    1.8713 H   0  0  0  0  0  0  0  0  0  0  0  0
    3.0878   -5.6743    3.5775 H   0  0  0  0  0  0  0  0  0  0  0  0
    5.4043   -3.5613    4.4500 H   0  0  0  0  0  0  0  0  0  0  0  0
    6.0973   -3.3868    2.8807 H   0  0  0  0  0  0  0  0  0  0  0  0
    5.1030   -0.9775    2.8197 H   0  0  0  0  0  0  0  0  0  0  0  0
    4.2721   -1.3428    4.3369 H   0  0  0  0  0  0  0  0  0  0  0  0
    3.3508   -0.8638    2.9229 H   0  0  0  0  0  0  0  0  0  0  0  0
    3.7759   -1.5954    0.1945 H   0  0  0  0  0  0  0  0  0  0  0  0
    2.2339   -1.6243    1.0307 H   0  0  0  0  0  0  0  0  0  0  0  0
    2.4914   -2.6982   -0.3300 H   0  0  0  0  0  0  0  0  0  0  0  0
    7.2981   -5.0636    2.8584 H   0  0  0  0  0  0  0  0  0  0  0  0
    6.6780   -7.0509    1.1807 H   0  0  0  0  0  0  0  0  0  0  0  0
    8.1596   -6.9152    1.9994 H   0  0  0  0  0  0  0  0  0  0  0  0
    6.3757   -9.1478    2.3695 H   0  0  0  0  0  0  0  0  0  0  0  0
    7.9285   -8.8616    2.9996 H   0  0  0  0  0  0  0  0  0  0  0  0
    6.9870   -8.7940    5.0385 H   0  0  0  0  0  0  0  0  0  0  0  0
  1  2  1  0
  1 41  1  0
  1 42  1  0
  1 43  1  0
  3  2  1  1
  3 22  1  0
  3 38  1  0
  3  4  1  0
  4  6  1  0
  4  5  1  0
  4 44  1  1
  5  6  1  0
  6  7  1  0
  6 45  1  1
  7 24  1  0
  7  8  1  0
  7 46  1  6
  8  9  1  0
  8 10  1  0
  8 47  1  1
  9 48  1  0
  9 49  1  0
  9 50  1  0
 10 11  2  0
 10 12  1  0
 13 12  1  1
 13 17  1  0
 13 14  1  0
 13 22  1  0
 14 15  1  0
 14 16  1  0
 14 17  1  0
 15 51  1  0
 15 52  1  0
 15 53  1  0
 16 54  1  0
 16 55  1  0
 16 56  1  0
 17 21  1  6
 17 18  1  0
 18 19  1  0
 18 57  1  0
 18 58  1  0
 19 20  1  0
 20 21  1  0
 20 59  1  0
 20 60  1  0
 22 23  1  6
 22 24  1  0
 23 61  1  0
 23 62  1  0
 23 63  1  0
 24 25  1  0
 24 64  1  6
 25 34  1  6
 25 26  1  0
 25 35  1  0
 26 27  1  0
 26 65  1  0
 26 66  1  0
 27 30  1  0
 27 28  1  6
 27 29  1  0
 28 67  1  0
 28 68  1  0
 28 69  1  0
 29 30  1  0
 30 31  1  6
 30 32  1  0
 31 70  1  0
 31 71  1  0
 31 72  1  0
 32 33  2  0
 32 34  1  0
 39 35  1  6
 35 36  1  0
 35 73  1  6
 36 37  1  0
 36 74  1  0
 36 75  1  0
 37 38  1  0
 37 76  1  0
 37 77  1  0
 38 39  1  0
 38 78  1  1
 39 40  2  0
M  END
>  <i_m_ct_stereo_status>  (123) 
1

>  <s_m_source_file>  (123) 
/var/tmp/pbs.5075288.sched01/tmp4tfr24xl/130i3iej58d.sdf

>  <i_m_source_file_index>  (123) 
22

>  <i_lp_mmshare_version>  (123) 
48012

>  <i_f3d_flags>  (123) 
0

>  <s_epik_input>  (123) 
TzFbQ0gyXU9bQ0gyXVtDQF0xKEMyKFtDSDNdKVtDSDNdKVtDQF0yM1tDQF00KFtDSDNdKVtDQF01KE9bQ0gzXSlbQ0BASF02W0NAQEhdKE82KVtDQEhdKFtDQEBIXShbQ0gzXSlDKD1PKU8zKVtDQEhdNFtDQEBdNyhbQ0gyXVtDQEBdOChbQ0gzXSlbQ0BAXShPOCkoW0NIM10pQyg9TylPNylbQ0BASF05W0NIMl1bQ0gyXVtDQEhdNVtTK105W08tXQ==

>  <s_epik_cmdline>  (123) 
J2VwaWtfcHl0aG9uJywgJy1waHQnLCAnMi4wJywgJy1waCcsICc3LjAnLCAnLXRuJywgJzgnLCAnLW1hJywgJzIwMCcsICctaW1hZScsICc8aW5maWxlLm1hZT4nLCAnLW9tYWUnLCAnPG91dGZpbGUubWFlPic=

>  <r_lp_tautomer_probability>  (123) 
1

>  <r_epik_Ionization_Penalty>  (123) 
6.23652e-12

>  <r_epik_Ionization_Penalty_Charging>  (123) 
0

>  <r_epik_Ionization_Penalty_Neutral>  (123) 
6.23652e-12

>  <r_epik_State_Penalty>  (123) 
-0

>  <r_epik_Charging_Adjusted_Penalty>  (123) 
0

>  <i_epik_Tot_Q>  (123) 
0

>  <i_epik_Tot_abs_Q>  (123) 
2

>  <s_epik_Chemistry_Notes>  (123) 
This compound has an ester and may undergo hydrolysis at high or low pH. This compound contains an acetal/aminal-like group ( X-CH(R)-Y where X, Y are N, S, or O) that may be acid/base labile, releasing an aldehyde.

>  <s_lp_Force_Field>  (123) 
OPLS3e

>  <r_lp_Energy>  (123) 
138.742

>  <b_lp_Chiralities_Consistent>  (123) 
1

>  <s_lp_Variant>  (123) 
59:0-1

>  <s_i_glide_gridfile>  (123) 
pfpi4k_grid

>  <i_i_glide_lignum>  (123) 
22

>  <i_i_glide_rotatable_bonds>  (123) 
1

>  <r_i_docking_score>  (123) 
-1.56832

>  <r_i_glide_ligand_efficiency>  (123) 
-0.0392079

>  <r_i_glide_ligand_efficiency_sa>  (123) 
-0.134089

>  <r_i_glide_ligand_efficiency_ln>  (123) 
-0.334476

>  <r_i_glide_gscore>  (123) 
-1.56832

>  <r_i_glide_lipo>  (123) 
-0.203733

>  <r_i_glide_hbond>  (123) 
-0.16

>  <r_i_glide_metal>  (123) 
-0

>  <r_i_glide_rewards>  (123) 
-0.0317662

>  <r_i_glide_evdw>  (123) 
-23.224

>  <r_i_glide_ecoul>  (123) 
0.593359

>  <r_i_glide_erotb>  (123) 
0

>  <r_i_glide_esite>  (123) 
-0.100619

>  <r_i_glide_emodel>  (123) 
-22.4763

>  <r_i_glide_energy>  (123) 
-22.6307

>  <r_i_glide_einternal>  (123) 
0.012712

>  <r_i_glide_intrahb_reward>  (123) 
-0

>  <i_i_glide_confnum>  (123) 
5

>  <i_i_glide_posenum>  (123) 
2

>  <r_i_glide_eff_state_penalty>  (123) 
0

>  <ligand_id>  (123) 
59

>  <original_smiles>  (123) 
COC12C3OC3C3C(C)C(=O)OC4(C(C)(C)C45COCO5)C1(C)C3C1(CC3(C)OC3(C)C(=O)O1)C1CCC2[S+]1[O-]

>  <smiles>  (123) 
[H]C([H])([H])OC12C3([H])OC3([H])C3([H])C([H])(C([H])([H])[H])C(=O)OC4(C5(OC([H])([H])OC5([H])[H])C4(C([H])([H])[H])C([H])([H])[H])C1(C([H])([H])[H])C3([H])C1(OC(=O)C3(C([H])([H])[H])OC3(C([H])([H])[H])C1([H])[H])C1([H])S(=O)C2([H])C([H])([H])C1([H])[H]

$$$$
64:0:0
     RDKit          3D

 82 88  0  0  1  0  0  0  0  0999 V2000
    6.6857   -9.7444    7.0746 C   0  0  0  0  0  0  0  0  0  0  0  0
    6.0620   -9.3718    5.8643 O   0  0  0  0  0  0  0  0  0  0  0  0
    6.2643  -10.0327    4.7336 C   0  0  0  0  0  0  0  0  0  0  0  0
    7.1188  -10.9068    4.6085 O   0  0  0  0  0  0  0  0  0  0  0  0
    5.3236   -9.5776    3.5423 C   0  0  1  0  0  0  0  0  0  0  0  0
    6.0623  -10.0226    2.3777 O   0  0  0  0  0  0  0  0  0  0  0  0
    4.0210  -10.6121    3.4770 C   0  0  1  0  0  0  0  0  0  0  0  0
    4.4843  -11.8471    2.8876 O   0  0  0  0  0  0  0  0  0  0  0  0
    3.2225  -11.2401    4.7124 C   0  0  1  0  0  0  0  0  0  0  0  0
    3.7982  -11.3224    6.0096 O   0  0  0  0  0  0  0  0  0  0  0  0
    1.7523  -10.6997    4.7315 C   0  0  1  0  0  0  0  0  0  0  0  0
    1.3257  -10.2533    6.0116 O   0  0  0  0  0  0  0  0  0  0  0  0
    1.5354   -9.7420    3.4986 C   0  0  1  0  0  0  0  0  0  0  0  0
    0.2726  -10.2670    2.7250 C   0  0  0  0  0  0  0  0  0  0  0  0
   -0.9858   -9.8415    3.2338 O   0  0  0  0  0  0  0  0  0  0  0  0
    1.3413   -8.1450    3.7898 C   0  0  1  0  0  0  0  0  0  0  0  0
    1.6172   -7.4041    5.1682 C   0  0  1  0  0  0  0  0  0  0  0  0
    2.9581   -7.4578    5.8246 C   0  0  1  0  0  0  0  0  0  0  0  0
    3.5318   -8.6699    5.7125 O   0  0  0  0  0  0  0  0  0  0  0  0
    3.9559   -6.3602    5.4781 C   0  0  2  0  0  0  0  0  0  0  0  0
    4.9116   -6.4087    6.7574 C   0  0  0  0  0  0  0  0  0  0  0  0
    3.0788   -4.9670    5.5187 C   0  0  1  0  0  0  0  0  0  0  0  0
    3.2561   -4.3925    6.8059 O   0  0  0  0  0  0  0  0  0  0  0  0
    3.2395   -3.6986    4.4916 C   0  0  1  0  0  0  0  0  0  0  0  0
    2.7918   -2.3432    5.0762 C   0  0  0  0  0  0  0  0  0  0  0  0
    4.5008   -3.4914    3.5650 C   0  0  0  0  0  0  0  0  0  0  0  0
    5.4033   -2.7364    3.9301 O   0  0  0  0  0  0  0  0  0  0  0  0
    4.6254   -4.1671    2.0990 C   0  0  0  0  0  0  0  0  0  0  0  0
    4.5301   -3.3346    1.1982 O   0  0  0  0  0  0  0  0  0  0  0  0
    4.7597   -5.7098    1.5799 C   0  0  2  0  0  0  0  0  0  0  0  0
    6.1366   -5.5257    1.2607 O   0  0  0  0  0  0  0  0  0  0  0  0
    5.1150   -7.2581    1.8814 C   0  0  0  0  0  0  0  0  0  0  0  0
    5.2079   -7.9745    0.8879 O   0  0  0  0  0  0  0  0  0  0  0  0
    5.3992   -7.9009    3.2943 C   0  0  2  0  0  0  0  0  0  0  0  0
    6.8330   -7.8249    3.2332 O   0  0  0  0  0  0  0  0  0  0  0  0
    4.7606   -6.6467    4.0766 C   0  0  2  0  0  0  0  0  0  0  0  0
    6.0745   -5.7812    4.4251 C   0  0  0  0  0  0  0  0  0  0  0  0
    3.9053   -6.1789    2.7732 C   0  0  2  0  0  0  0  0  0  0  0  0
    2.4588   -6.3641    2.2089 C   0  0  1  0  0  0  0  0  0  0  0  0
    2.1809   -7.5236    1.4719 O   0  0  0  0  0  0  0  0  0  0  0  0
    1.2977   -7.2587    2.5555 C   0  0  1  0  0  0  0  0  0  0  0  0
   -0.1128   -6.9156    2.0662 C   0  0  0  0  0  0  0  0  0  0  0  0
    1.2964   -5.5662    5.3017 S   0  0  0  0  0  0  0  0  0  0  0  0
    0.6671   -4.9855    4.0451 O   0  0  0  0  0  0  0  0  0  0  0  0
    2.7718  -10.2519    2.6458 C   0  0  1  0  0  0  0  0  0  0  0  0
    3.0744   -9.8404    1.3351 O   0  0  0  0  0  0  0  0  0  0  0  0
    6.2526   -9.1538    7.8822 H   0  0  0  0  0  0  0  0  0  0  0  0
    7.7533   -9.5335    7.0366 H   0  0  0  0  0  0  0  0  0  0  0  0
    6.5192  -10.7932    7.3248 H   0  0  0  0  0  0  0  0  0  0  0  0
    5.4923   -9.9431    1.6238 H   0  0  0  0  0  0  0  0  0  0  0  0
    4.3864  -11.8503    1.9273 H   0  0  0  0  0  0  0  0  0  0  0  0
    3.0717  -12.3042    4.5076 H   0  0  0  0  0  0  0  0  0  0  0  0
    3.2415  -11.8872    6.5323 H   0  0  0  0  0  0  0  0  0  0  0  0
    1.1322  -11.5896    4.5996 H   0  0  0  0  0  0  0  0  0  0  0  0
    1.2923  -11.0052    6.6070 H   0  0  0  0  0  0  0  0  0  0  0  0
    0.3201   -9.9480    1.6889 H   0  0  0  0  0  0  0  0  0  0  0  0
    0.2585  -11.3564    2.6660 H   0  0  0  0  0  0  0  0  0  0  0  0
   -1.2487  -10.3384    4.0124 H   0  0  0  0  0  0  0  0  0  0  0  0
    0.2871   -8.1184    4.0321 H   0  0  0  0  0  0  0  0  0  0  0  0
    0.9133   -7.8413    5.8765 H   0  0  0  0  0  0  0  0  0  0  0  0
    2.6911   -7.3793    6.8806 H   0  0  0  0  0  0  0  0  0  0  0  0
    2.9247   -9.3238    6.0520 H   0  0  0  0  0  0  0  0  0  0  0  0
    5.5257   -5.5257    6.9287 H   0  0  0  0  0  0  0  0  0  0  0  0
    5.6114   -7.2305    6.7245 H   0  0  0  0  0  0  0  0  0  0  0  0
    4.3773   -6.5315    7.6979 H   0  0  0  0  0  0  0  0  0  0  0  0
    4.1282   -4.6003    7.1091 H   0  0  0  0  0  0  0  0  0  0  0  0
    2.4794   -3.8201    3.7285 H   0  0  0  0  0  0  0  0  0  0  0  0
    2.6450   -1.6165    4.2730 H   0  0  0  0  0  0  0  0  0  0  0  0
    3.5283   -1.9313    5.7695 H   0  0  0  0  0  0  0  0  0  0  0  0
    1.8387   -2.4411    5.5968 H   0  0  0  0  0  0  0  0  0  0  0  0
    6.4244   -6.2854    0.7758 H   0  0  0  0  0  0  0  0  0  0  0  0
    7.0925   -8.4639    2.5854 H   0  0  0  0  0  0  0  0  0  0  0  0
    6.6658   -5.4217    3.5859 H   0  0  0  0  0  0  0  0  0  0  0  0
    6.7866   -6.3438    5.0368 H   0  0  0  0  0  0  0  0  0  0  0  0
    5.9136   -4.8982    5.0291 H   0  0  0  0  0  0  0  0  0  0  0  0
    3.2864   -5.5479    3.2936 H   0  0  0  0  0  0  0  0  0  0  0  0
    2.1392   -5.4701    1.6592 H   0  0  0  0  0  0  0  0  0  0  0  0
   -0.7463   -6.5703    2.8812 H   0  0  0  0  0  0  0  0  0  0  0  0
   -0.5916   -7.7744    1.6052 H   0  0  0  0  0  0  0  0  0  0  0  0
   -0.0653   -6.1361    1.3101 H   0  0  0  0  0  0  0  0  0  0  0  0
    2.3962  -11.2354    2.3689 H   0  0  0  0  0  0  0  0  0  0  0  0
    3.4537  -10.5742    0.8509 H   0  0  0  0  0  0  0  0  0  0  0  0
  1  2  1  0
  1 47  1  0
  1 48  1  0
  1 49  1  0
  2  3  1  0
  3  4  2  0
  3  5  1  0
  5 34  1  0
  5  6  1  6
  5  7  1  0
  6 50  1  0
  7 45  1  0
  7  8  1  6
  7  9  1  0
  8 51  1  0
  9 10  1  0
  9 11  1  0
  9 52  1  6
 10 53  1  0
 11 12  1  0
 11 13  1  0
 11 54  1  6
 12 55  1  0
 13 14  1  6
 13 16  1  0
 13 45  1  0
 14 15  1  0
 14 56  1  0
 14 57  1  0
 15 58  1  0
 16 41  1  0
 16 17  1  0
 16 59  1  1
 17 43  1  0
 17 18  1  0
 17 60  1  1
 18 19  1  0
 18 20  1  0
 18 61  1  1
 19 62  1  0
 20 36  1  0
 20 21  1  1
 20 22  1  0
 21 63  1  0
 21 64  1  0
 21 65  1  0
 22 23  1  1
 22 24  1  0
 43 22  1  6
 23 66  1  0
 24 25  1  0
 24 26  1  0
 24 67  1  6
 25 68  1  0
 25 69  1  0
 25 70  1  0
 26 27  2  0
 26 28  1  0
 28 29  2  0
 28 30  1  0
 30 38  1  0
 30 31  1  1
 30 32  1  0
 31 71  1  0
 32 33  2  0
 32 34  1  0
 34 35  1  1
 34 36  1  0
 35 72  1  0
 36 37  1  1
 36 38  1  0
 37 73  1  0
 37 74  1  0
 37 75  1  0
 38 39  1  0
 38 76  1  1
 39 41  1  0
 39 40  1  0
 39 77  1  6
 40 41  1  0
 41 42  1  6
 42 78  1  0
 42 79  1  0
 42 80  1  0
 43 44  2  0
 45 46  1  0
 45 81  1  6
 46 82  1  0
M  END
>  <i_m_ct_stereo_status>  (124) 
1

>  <s_m_source_file>  (124) 
/var/tmp/pbs.5075288.sched01/tmp4tfr24xl/130i3iej58d.sdf

>  <i_m_source_file_index>  (124) 
29

>  <i_lp_mmshare_version>  (124) 
48012

>  <i_f3d_flags>  (124) 
0

>  <s_epik_input>  (124) 
W0NIM11PQyg9TylbQ0BAXShbT0hdKShbQ0BAXTEyW09IXSlbQ0BdMyhbT0hdKVtDQF00KFtDSDNdKVtDQEBdNShbQ0gzXSlbQ0BAXTYoW09IXSlbQ0BASF0oW0NIM10pQyg9TylDKD1PKUMoW09IXSkoQzM9TylbQ0BIXTRbQ0BASF03W0NAXShPNykoW0NIM10pW0NAQEhdKFtDQEhdKFtTK102W08tXSlbQ0BIXTVbT0hdKVtDQEBdKFtDSDJdW09IXSkoW0NASF0yW09IXSlbQ0BIXShbT0hdKVtDQEBIXTFbT0hd

>  <s_epik_cmdline>  (124) 
J2VwaWtfcHl0aG9uJywgJy1waHQnLCAnMi4wJywgJy1waCcsICc3LjAnLCAnLXRuJywgJzgnLCAnLW1hJywgJzIwMCcsICctaW1hZScsICc8aW5maWxlLm1hZT4nLCAnLW9tYWUnLCAnPG91dGZpbGUubWFlPic=

>  <r_lp_tautomer_probability>  (124) 
1

>  <r_epik_Ionization_Penalty>  (124) 
3.89718e-05

>  <r_epik_Ionization_Penalty_Charging>  (124) 
0

>  <r_epik_Ionization_Penalty_Neutral>  (124) 
3.89718e-05

>  <r_epik_State_Penalty>  (124) 
-0

>  <r_epik_Charging_Adjusted_Penalty>  (124) 
0

>  <i_epik_Tot_Q>  (124) 
0

>  <i_epik_Tot_abs_Q>  (124) 
2

>  <s_epik_Chemistry_Notes>  (124) 
This compound has an ester and may undergo hydrolysis at high or low pH.

>  <s_lp_Force_Field>  (124) 
OPLS3e

>  <r_lp_Energy>  (124) 
478.482

>  <b_lp_Chiralities_Consistent>  (124) 
1

>  <s_lp_Variant>  (124) 
64:0-1

>  <s_i_glide_gridfile>  (124) 
pfpi4k_grid

>  <i_i_glide_lignum>  (124) 
29

>  <i_i_glide_rotatable_bonds>  (124) 
13

>  <r_i_docking_score>  (124) 
-4.10497

>  <r_i_glide_ligand_efficiency>  (124) 
-0.0892384

>  <r_i_glide_ligand_efficiency_sa>  (124) 
-0.319745

>  <r_i_glide_ligand_efficiency_ln>  (124) 
-0.850128

>  <r_i_glide_gscore>  (124) 
-4.10497

>  <r_i_glide_lipo>  (124) 
-0.166934

>  <r_i_glide_hbond>  (124) 
-0.16

>  <r_i_glide_metal>  (124) 
-0

>  <r_i_glide_rewards>  (124) 
-0.111248

>  <r_i_glide_evdw>  (124) 
-21.8267

>  <r_i_glide_ecoul>  (124) 
-17.7883

>  <r_i_glide_erotb>  (124) 
0.0932432

>  <r_i_glide_esite>  (124) 
-0.000455236

>  <r_i_glide_emodel>  (124) 
-47.9847

>  <r_i_glide_energy>  (124) 
-39.6149

>  <r_i_glide_einternal>  (124) 
6.59154

>  <r_i_glide_intrahb_reward>  (124) 
-0

>  <i_i_glide_confnum>  (124) 
4

>  <i_i_glide_posenum>  (124) 
14

>  <r_i_glide_eff_state_penalty>  (124) 
0

>  <ligand_id>  (124) 
64

>  <original_smiles>  (124) 
COC(=O)C1(O)C2(O)C(O)C(O)C(CO)(C3C4C(O)C5(C)C(O)(C(C)C(=O)C(=O)C6(O)C(=O)C1(O)C5(C)C6C1OC13C)[S+]4[O-])C2O

>  <smiles>  (124) 
[H]OC([H])([H])C12C([H])(O[H])C([H])(O[H])C(O[H])(C1([H])O[H])C(O[H])(C(=O)OC([H])([H])[H])C1(O[H])C(=O)C3(O[H])C(=O)C(=O)C([H])(C([H])([H])[H])C4(O[H])S(=O)C5([H])C([H])(O[H])C4(C([H])([H])[H])C1(C([H])([H])[H])C3([H])C1([H])OC1(C([H])([H])[H])C52[H]

$$$$
64:0:1
     RDKit          3D

 82 88  0  0  1  0  0  0  0  0999 V2000
    7.8505   -9.1069    6.1799 C   0  0  0  0  0  0  0  0  0  0  0  0
    6.9174   -8.9063    5.1351 O   0  0  0  0  0  0  0  0  0  0  0  0
    6.8632   -9.6979    4.0803 C   0  0  0  0  0  0  0  0  0  0  0  0
    7.7093  -10.5677    3.8387 O   0  0  0  0  0  0  0  0  0  0  0  0
    5.6297   -9.4234    3.1403 C   0  0  1  0  0  0  0  0  0  0  0  0
    6.0955   -9.9117    1.8552 O   0  0  0  0  0  0  0  0  0  0  0  0
    4.4656  -10.5498    3.4710 C   0  0  1  0  0  0  0  0  0  0  0  0
    4.8949  -11.8059    2.8863 O   0  0  0  0  0  0  0  0  0  0  0  0
    4.0353  -11.1214    4.8855 C   0  0  1  0  0  0  0  0  0  0  0  0
    4.9061  -11.0458    6.0054 O   0  0  0  0  0  0  0  0  0  0  0  0
    2.5743  -10.6916    5.2185 C   0  0  1  0  0  0  0  0  0  0  0  0
    2.3817  -10.1931    6.5230 O   0  0  0  0  0  0  0  0  0  0  0  0
    1.9781   -9.8911    4.0110 C   0  0  1  0  0  0  0  0  0  0  0  0
    0.5841  -10.5450    3.6720 C   0  0  0  0  0  0  0  0  0  0  0  0
    0.6151  -11.9317    3.4575 O   0  0  0  0  0  0  0  0  0  0  0  0
    1.6580   -8.3078    4.2605 C   0  0  1  0  0  0  0  0  0  0  0  0
    2.1938   -7.4086    5.4660 C   0  0  1  0  0  0  0  0  0  0  0  0
    3.6552   -7.2938    5.7679 C   0  0  1  0  0  0  0  0  0  0  0  0
    4.3081   -8.4738    5.6218 O   0  0  0  0  0  0  0  0  0  0  0  0
    4.4490   -6.1638    5.1165 C   0  0  2  0  0  0  0  0  0  0  0  0
    5.6836   -6.0099    6.1275 C   0  0  0  0  0  0  0  0  0  0  0  0
    3.4906   -4.8404    5.2853 C   0  0  1  0  0  0  0  0  0  0  0  0
    3.9258   -4.1407    6.4503 O   0  0  0  0  0  0  0  0  0  0  0  0
    3.2832   -3.6542    4.1716 C   0  0  1  0  0  0  0  0  0  0  0  0
    2.8676   -2.2904    4.7565 C   0  0  0  0  0  0  0  0  0  0  0  0
    4.2564   -3.4397    2.9465 C   0  0  0  0  0  0  0  0  0  0  0  0
    5.1518   -2.5965    3.0218 O   0  0  0  0  0  0  0  0  0  0  0  0
    4.0818   -4.2312    1.5510 C   0  0  0  0  0  0  0  0  0  0  0  0
    3.6906   -3.4871    0.6514 O   0  0  0  0  0  0  0  0  0  0  0  0
    4.2305   -5.7904    1.1144 C   0  0  2  0  0  0  0  0  0  0  0  0
    5.4610   -5.5355    0.4469 O   0  0  0  0  0  0  0  0  0  0  0  0
    4.7872   -7.2716    1.4245 C   0  0  0  0  0  0  0  0  0  0  0  0
    4.7033   -8.0528    0.4795 O   0  0  0  0  0  0  0  0  0  0  0  0
    5.4597   -7.7782    2.7628 C   0  0  2  0  0  0  0  0  0  0  0  0
    6.8264   -7.6129    2.3558 O   0  0  0  0  0  0  0  0  0  0  0  0
    4.9224   -6.5116    3.5868 C   0  0  2  0  0  0  0  0  0  0  0  0
    6.1988   -5.5326    3.5399 C   0  0  0  0  0  0  0  0  0  0  0  0
    3.7390   -6.2223    2.5117 C   0  0  2  0  0  0  0  0  0  0  0  0
    2.2254   -6.5656    2.3496 C   0  0  1  0  0  0  0  0  0  0  0  0
    1.8709   -7.7934    1.7783 O   0  0  0  0  0  0  0  0  0  0  0  0
    1.2536   -7.5104    3.0267 C   0  0  1  0  0  0  0  0  0  0  0  0
   -0.2517   -7.2985    2.8782 C   0  0  0  0  0  0  0  0  0  0  0  0
    1.7730   -5.5904    5.5557 S   0  0  0  0  0  0  0  0  0  0  0  0
    0.8175   -5.1576    4.4503 O   0  0  0  0  0  0  0  0  0  0  0  0
    3.0472  -10.3516    2.9258 C   0  0  1  0  0  0  0  0  0  0  0  0
    3.0446   -9.9537    1.5964 O   0  0  0  0  0  0  0  0  0  0  0  0
    7.5909   -8.4381    6.9995 H   0  0  0  0  0  0  0  0  0  0  0  0
    8.8506   -8.8507    5.8349 H   0  0  0  0  0  0  0  0  0  0  0  0
    7.8215  -10.1209    6.5873 H   0  0  0  0  0  0  0  0  0  0  0  0
    5.3431  -10.0042    1.2867 H   0  0  0  0  0  0  0  0  0  0  0  0
    4.6903  -11.8368    1.9595 H   0  0  0  0  0  0  0  0  0  0  0  0
    3.9249  -12.2089    4.7976 H   0  0  0  0  0  0  0  0  0  0  0  0
    4.5457  -11.6088    6.6734 H   0  0  0  0  0  0  0  0  0  0  0  0
    2.0497  -11.6376    5.3528 H   0  0  0  0  0  0  0  0  0  0  0  0
    1.9607  -10.9006    7.0199 H   0  0  0  0  0  0  0  0  0  0  0  0
   -0.1460  -10.3605    4.4635 H   0  0  0  0  0  0  0  0  0  0  0  0
    0.1908  -10.1219    2.7501 H   0  0  0  0  0  0  0  0  0  0  0  0
    0.9459  -12.3800    4.2069 H   0  0  0  0  0  0  0  0  0  0  0  0
    0.6745   -8.4314    4.7281 H   0  0  0  0  0  0  0  0  0  0  0  0
    1.7362   -7.8415    6.3556 H   0  0  0  0  0  0  0  0  0  0  0  0
    3.6600   -7.1423    6.8457 H   0  0  0  0  0  0  0  0  0  0  0  0
    3.8565   -9.1389    6.1443 H   0  0  0  0  0  0  0  0  0  0  0  0
    6.2365   -5.0695    6.0835 H   0  0  0  0  0  0  0  0  0  0  0  0
    6.4367   -6.7619    5.9738 H   0  0  0  0  0  0  0  0  0  0  0  0
    5.4125   -6.1038    7.1771 H   0  0  0  0  0  0  0  0  0  0  0  0
    4.7730   -4.4830    6.6984 H   0  0  0  0  0  0  0  0  0  0  0  0
    2.3775   -3.8989    3.6342 H   0  0  0  0  0  0  0  0  0  0  0  0
    2.4623   -1.6526    3.9697 H   0  0  0  0  0  0  0  0  0  0  0  0
    3.7076   -1.7664    5.2166 H   0  0  0  0  0  0  0  0  0  0  0  0
    2.0821   -2.4140    5.5021 H   0  0  0  0  0  0  0  0  0  0  0  0
    5.6359   -6.2712   -0.1227 H   0  0  0  0  0  0  0  0  0  0  0  0
    6.9965   -8.3235    1.7533 H   0  0  0  0  0  0  0  0  0  0  0  0
    6.5322   -5.1988    2.5614 H   0  0  0  0  0  0  0  0  0  0  0  0
    7.0893   -5.9804    3.9974 H   0  0  0  0  0  0  0  0  0  0  0  0
    6.0991   -4.6172    4.1008 H   0  0  0  0  0  0  0  0  0  0  0  0
    3.2214   -5.5833    3.1225 H   0  0  0  0  0  0  0  0  0  0  0  0
    1.7092   -5.7524    1.8432 H   0  0  0  0  0  0  0  0  0  0  0  0
   -0.6957   -6.9099    3.7954 H   0  0  0  0  0  0  0  0  0  0  0  0
   -0.7621   -8.2205    2.6111 H   0  0  0  0  0  0  0  0  0  0  0  0
   -0.4443   -6.5915    2.0759 H   0  0  0  0  0  0  0  0  0  0  0  0
    2.7467  -11.3831    2.7152 H   0  0  0  0  0  0  0  0  0  0  0  0
    3.2406  -10.7262    1.0691 H   0  0  0  0  0  0  0  0  0  0  0  0
  1  2  1  0
  1 47  1  0
  1 48  1  0
  1 49  1  0
  2  3  1  0
  3  4  2  0
  3  5  1  0
  5 34  1  0
  5  6  1  6
  5  7  1  0
  6 50  1  0
  7 45  1  0
  7  8  1  6
  7  9  1  0
  8 51  1  0
  9 10  1  0
  9 11  1  0
  9 52  1  6
 10 53  1  0
 11 12  1  0
 11 13  1  0
 11 54  1  1
 12 55  1  0
 13 14  1  6
 13 16  1  0
 13 45  1  0
 14 15  1  0
 14 56  1  0
 14 57  1  0
 15 58  1  0
 16 41  1  0
 16 17  1  0
 16 59  1  1
 17 43  1  0
 17 18  1  0
 17 60  1  1
 18 19  1  0
 18 20  1  0
 18 61  1  1
 19 62  1  0
 20 36  1  0
 20 21  1  1
 20 22  1  0
 21 63  1  0
 21 64  1  0
 21 65  1  0
 22 23  1  1
 22 24  1  0
 43 22  1  6
 23 66  1  0
 24 25  1  0
 24 26  1  0
 24 67  1  6
 25 68  1  0
 25 69  1  0
 25 70  1  0
 26 27  2  0
 26 28  1  0
 28 29  2  0
 28 30  1  0
 30 38  1  0
 30 31  1  1
 30 32  1  0
 31 71  1  0
 32 33  2  0
 32 34  1  0
 34 35  1  6
 34 36  1  0
 35 72  1  0
 36 37  1  6
 36 38  1  0
 37 73  1  0
 37 74  1  0
 37 75  1  0
 38 39  1  0
 38 76  1  1
 39 41  1  0
 39 40  1  0
 39 77  1  6
 40 41  1  0
 41 42  1  6
 42 78  1  0
 42 79  1  0
 42 80  1  0
 43 44  2  0
 45 46  1  0
 45 81  1  6
 46 82  1  0
M  END
>  <i_m_ct_stereo_status>  (125) 
1

>  <s_m_source_file>  (125) 
/var/tmp/pbs.5075288.sched01/tmp4tfr24xl/130i3iej58d.sdf

>  <i_m_source_file_index>  (125) 
29

>  <i_lp_mmshare_version>  (125) 
48012

>  <i_f3d_flags>  (125) 
0

>  <s_epik_input>  (125) 
W0NIM11PQyg9TylbQ0BAXShbT0hdKShbQ0BAXTEyW09IXSlbQ0BdMyhbT0hdKVtDQF00KFtDSDNdKVtDQEBdNShbQ0gzXSlbQ0BAXTYoW09IXSlbQ0BASF0oW0NIM10pQyg9TylDKD1PKUMoW09IXSkoQzM9TylbQ0BIXTRbQ0BASF03W0NAXShPNykoW0NIM10pW0NAQEhdKFtDQEhdKFtTK102W08tXSlbQ0BIXTVbT0hdKVtDQEBdKFtDSDJdW09IXSkoW0NASF0yW09IXSlbQ0BIXShbT0hdKVtDQEBIXTFbT0hd

>  <s_epik_cmdline>  (125) 
J2VwaWtfcHl0aG9uJywgJy1waHQnLCAnMi4wJywgJy1waCcsICc3LjAnLCAnLXRuJywgJzgnLCAnLW1hJywgJzIwMCcsICctaW1hZScsICc8aW5maWxlLm1hZT4nLCAnLW9tYWUnLCAnPG91dGZpbGUubWFlPic=

>  <r_lp_tautomer_probability>  (125) 
1

>  <r_epik_Ionization_Penalty>  (125) 
3.89718e-05

>  <r_epik_Ionization_Penalty_Charging>  (125) 
0

>  <r_epik_Ionization_Penalty_Neutral>  (125) 
3.89718e-05

>  <r_epik_State_Penalty>  (125) 
-0

>  <r_epik_Charging_Adjusted_Penalty>  (125) 
0

>  <i_epik_Tot_Q>  (125) 
0

>  <i_epik_Tot_abs_Q>  (125) 
2

>  <s_epik_Chemistry_Notes>  (125) 
This compound has an ester and may undergo hydrolysis at high or low pH.

>  <s_lp_Force_Field>  (125) 
OPLS3e

>  <r_lp_Energy>  (125) 
478.482

>  <b_lp_Chiralities_Consistent>  (125) 
1

>  <s_lp_Variant>  (125) 
64:0-1

>  <s_i_glide_gridfile>  (125) 
pfpi4k_grid

>  <i_i_glide_lignum>  (125) 
29

>  <i_i_glide_rotatable_bonds>  (125) 
13

>  <r_i_docking_score>  (125) 
-3.42318

>  <r_i_glide_ligand_efficiency>  (125) 
-0.074417

>  <r_i_glide_ligand_efficiency_sa>  (125) 
-0.26664

>  <r_i_glide_ligand_efficiency_ln>  (125) 
-0.708932

>  <r_i_glide_gscore>  (125) 
-3.42318

>  <r_i_glide_lipo>  (125) 
-0.069334

>  <r_i_glide_hbond>  (125) 
0

>  <r_i_glide_metal>  (125) 
-0

>  <r_i_glide_rewards>  (125) 
-0.157388

>  <r_i_glide_evdw>  (125) 
-26.3276

>  <r_i_glide_ecoul>  (125) 
-13.1552

>  <r_i_glide_erotb>  (125) 
0.0932432

>  <r_i_glide_esite>  (125) 
-4.61024e-05

>  <r_i_glide_emodel>  (125) 
-46.0774

>  <r_i_glide_energy>  (125) 
-39.4828

>  <r_i_glide_einternal>  (125) 
7.60939

>  <r_i_glide_intrahb_reward>  (125) 
-0

>  <i_i_glide_confnum>  (125) 
5

>  <i_i_glide_posenum>  (125) 
39

>  <r_i_glide_eff_state_penalty>  (125) 
0

>  <ligand_id>  (125) 
64

>  <original_smiles>  (125) 
COC(=O)C1(O)C2(O)C(O)C(O)C(CO)(C3C4C(O)C5(C)C(O)(C(C)C(=O)C(=O)C6(O)C(=O)C1(O)C5(C)C6C1OC13C)[S+]4[O-])C2O

>  <smiles>  (125) 
[H]OC([H])([H])C12C([H])(O[H])C([H])(O[H])C(O[H])(C1([H])O[H])C(O[H])(C(=O)OC([H])([H])[H])C1(O[H])C(=O)C3(O[H])C(=O)C(=O)C([H])(C([H])([H])[H])C4(O[H])S(=O)C5([H])C([H])(O[H])C4(C([H])([H])[H])C1(C([H])([H])[H])C3([H])C1([H])OC1(C([H])([H])[H])C52[H]

$$$$
64:0:2
     RDKit          3D

 82 88  0  0  1  0  0  0  0  0999 V2000
    6.0364    3.1591    6.9718 C   0  0  0  0  0  0  0  0  0  0  0  0
    4.7504    3.6652    6.6616 O   0  0  0  0  0  0  0  0  0  0  0  0
    4.5664    4.6449    5.7956 C   0  0  0  0  0  0  0  0  0  0  0  0
    5.4838    5.3109    5.3436 O   0  0  0  0  0  0  0  0  0  0  0  0
    3.0362    4.9109    5.4475 C   0  0  1  0  0  0  0  0  0  0  0  0
    3.0791    6.1921    4.7828 O   0  0  0  0  0  0  0  0  0  0  0  0
    2.5856    3.9204    4.1862 C   0  0  1  0  0  0  0  0  0  0  0  0
    3.1122    4.5236    2.9933 O   0  0  0  0  0  0  0  0  0  0  0  0
    3.0016    2.3914    3.9396 C   0  0  1  0  0  0  0  0  0  0  0  0
    4.1305    1.7811    4.5592 O   0  0  0  0  0  0  0  0  0  0  0  0
    1.7240    1.4818    4.0220 C   0  0  1  0  0  0  0  0  0  0  0  0
    1.8491    0.2356    4.7010 O   0  0  0  0  0  0  0  0  0  0  0  0
    0.4555    2.3713    4.2634 C   0  0  1  0  0  0  0  0  0  0  0  0
   -0.5893    1.9298    3.1656 C   0  0  0  0  0  0  0  0  0  0  0  0
   -1.5446    2.9176    2.8614 O   0  0  0  0  0  0  0  0  0  0  0  0
   -0.2594    2.1904    5.7211 C   0  0  1  0  0  0  0  0  0  0  0  0
    0.3633    1.4958    7.0162 C   0  0  1  0  0  0  0  0  0  0  0  0
    1.6674    1.9355    7.6000 C   0  0  1  0  0  0  0  0  0  0  0  0
    2.5545    2.2656    6.6385 O   0  0  0  0  0  0  0  0  0  0  0  0
    1.6733    3.0279    8.6671 C   0  0  2  0  0  0  0  0  0  0  0  0
    3.0754    2.7471    9.3857 C   0  0  0  0  0  0  0  0  0  0  0  0
    0.4595    2.5960    9.6800 C   0  0  1  0  0  0  0  0  0  0  0  0
    1.0519    1.8878   10.7581 O   0  0  0  0  0  0  0  0  0  0  0  0
   -0.5929    3.6193   10.4062 C   0  0  1  0  0  0  0  0  0  0  0  0
   -1.1823    3.0781   11.7069 C   0  0  0  0  0  0  0  0  0  0  0  0
   -0.3528    5.1709   10.5400 C   0  0  0  0  0  0  0  0  0  0  0  0
    0.1339    5.6209   11.5783 O   0  0  0  0  0  0  0  0  0  0  0  0
   -0.7763    6.2079    9.3819 C   0  0  0  0  0  0  0  0  0  0  0  0
   -1.7410    6.8948    9.7099 O   0  0  0  0  0  0  0  0  0  0  0  0
   -0.2650    6.4617    7.8591 C   0  0  2  0  0  0  0  0  0  0  0  0
    0.4125    7.6508    8.2446 O   0  0  0  0  0  0  0  0  0  0  0  0
    0.8754    6.2918    6.7286 C   0  0  0  0  0  0  0  0  0  0  0  0
    0.7176    7.0104    5.7463 O   0  0  0  0  0  0  0  0  0  0  0  0
    2.1569    5.3632    6.8100 C   0  0  2  0  0  0  0  0  0  0  0  0
    3.0819    6.3777    7.2240 O   0  0  0  0  0  0  0  0  0  0  0  0
    1.5789    4.5467    8.0545 C   0  0  2  0  0  0  0  0  0  0  0  0
    2.2742    5.2966    9.2967 C   0  0  0  0  0  0  0  0  0  0  0  0
    0.0537    4.9609    7.7201 C   0  0  2  0  0  0  0  0  0  0  0  0
   -1.1482    4.3440    6.9476 C   0  0  1  0  0  0  0  0  0  0  0  0
   -1.1918    4.5192    5.5511 O   0  0  0  0  0  0  0  0  0  0  0  0
   -1.3482    3.1830    6.0160 C   0  0  1  0  0  0  0  0  0  0  0  0
   -2.7599    2.6515    5.7949 C   0  0  0  0  0  0  0  0  0  0  0  0
   -0.5994    1.4364    8.6214 S   0  0  0  0  0  0  0  0  0  0  0  0
   -2.0142    1.9655    8.4635 O   0  0  0  0  0  0  0  0  0  0  0  0
    1.0986    3.7563    3.8057 C   0  0  1  0  0  0  0  0  0  0  0  0
    0.4225    4.9860    3.6733 O   0  0  0  0  0  0  0  0  0  0  0  0
    5.8932    2.3102    7.6440 H   0  0  0  0  0  0  0  0  0  0  0  0
    6.6568    3.8993    7.4788 H   0  0  0  0  0  0  0  0  0  0  0  0
    6.5398    2.7759    6.0829 H   0  0  0  0  0  0  0  0  0  0  0  0
    2.2302    6.3423    4.3783 H   0  0  0  0  0  0  0  0  0  0  0  0
    3.1531    3.8830    2.3003 H   0  0  0  0  0  0  0  0  0  0  0  0
    3.2854    2.2986    2.8843 H   0  0  0  0  0  0  0  0  0  0  0  0
    4.2402    2.1527    5.4272 H   0  0  0  0  0  0  0  0  0  0  0  0
    1.6748    1.0685    3.0181 H   0  0  0  0  0  0  0  0  0  0  0  0
    2.0298    0.3510    5.6187 H   0  0  0  0  0  0  0  0  0  0  0  0
   -0.1388    1.7236    2.1952 H   0  0  0  0  0  0  0  0  0  0  0  0
   -1.0875    0.9976    3.4372 H   0  0  0  0  0  0  0  0  0  0  0  0
   -1.1318    3.5415    2.2716 H   0  0  0  0  0  0  0  0  0  0  0  0
   -0.8508    1.3081    5.4811 H   0  0  0  0  0  0  0  0  0  0  0  0
    0.4822    0.4486    6.7486 H   0  0  0  0  0  0  0  0  0  0  0  0
    2.0580    1.0151    8.0442 H   0  0  0  0  0  0  0  0  0  0  0  0
    2.8139    1.4904    6.1637 H   0  0  0  0  0  0  0  0  0  0  0  0
    3.1719    3.1499   10.3960 H   0  0  0  0  0  0  0  0  0  0  0  0
    3.9250    3.1347    8.8371 H   0  0  0  0  0  0  0  0  0  0  0  0
    3.2858    1.6896    9.5439 H   0  0  0  0  0  0  0  0  0  0  0  0
    0.6605    2.1950   11.5648 H   0  0  0  0  0  0  0  0  0  0  0  0
   -1.4908    3.6179    9.7964 H   0  0  0  0  0  0  0  0  0  0  0  0
   -2.0812    3.6429   11.9665 H   0  0  0  0  0  0  0  0  0  0  0  0
   -0.5048    3.1412   12.5603 H   0  0  0  0  0  0  0  0  0  0  0  0
   -1.4706    2.0352   11.5751 H   0  0  0  0  0  0  0  0  0  0  0  0
    0.7108    8.0886    7.4561 H   0  0  0  0  0  0  0  0  0  0  0  0
    3.2217    6.8992    6.4411 H   0  0  0  0  0  0  0  0  0  0  0  0
    2.0416    6.3526    9.4222 H   0  0  0  0  0  0  0  0  0  0  0  0
    3.3679    5.2611    9.2454 H   0  0  0  0  0  0  0  0  0  0  0  0
    2.0882    4.8730   10.2742 H   0  0  0  0  0  0  0  0  0  0  0  0
   -0.3738    4.2560    8.3239 H   0  0  0  0  0  0  0  0  0  0  0  0
   -2.0905    4.5880    7.4341 H   0  0  0  0  0  0  0  0  0  0  0  0
   -2.8970    1.6964    6.2963 H   0  0  0  0  0  0  0  0  0  0  0  0
   -2.9684    2.5303    4.7409 H   0  0  0  0  0  0  0  0  0  0  0  0
   -3.5076    3.3419    6.1732 H   0  0  0  0  0  0  0  0  0  0  0  0
    1.1251    3.5511    2.7278 H   0  0  0  0  0  0  0  0  0  0  0  0
    0.2579    5.1359    2.7534 H   0  0  0  0  0  0  0  0  0  0  0  0
  1  2  1  0
  1 47  1  0
  1 48  1  0
  1 49  1  0
  2  3  1  0
  3  4  2  0
  3  5  1  0
  5 34  1  0
  5  6  1  6
  5  7  1  0
  6 50  1  0
  7 45  1  0
  7  8  1  6
  7  9  1  0
  8 51  1  0
  9 10  1  0
  9 11  1  0
  9 52  1  6
 10 53  1  0
 11 12  1  0
 11 13  1  0
 11 54  1  6
 12 55  1  0
 13 14  1  6
 13 16  1  0
 13 45  1  0
 14 15  1  0
 14 56  1  0
 14 57  1  0
 15 58  1  0
 16 41  1  0
 16 17  1  0
 16 59  1  6
 17 43  1  0
 17 18  1  0
 17 60  1  6
 18 19  1  0
 18 20  1  0
 18 61  1  1
 19 62  1  0
 20 36  1  0
 20 21  1  1
 20 22  1  0
 21 63  1  0
 21 64  1  0
 21 65  1  0
 22 23  1  1
 22 24  1  0
 43 22  1  1
 23 66  1  0
 24 25  1  0
 24 26  1  0
 24 67  1  6
 25 68  1  0
 25 69  1  0
 25 70  1  0
 26 27  2  0
 26 28  1  0
 28 29  2  0
 28 30  1  0
 30 38  1  0
 30 31  1  1
 30 32  1  0
 31 71  1  0
 32 33  2  0
 32 34  1  0
 34 35  1  1
 34 36  1  0
 35 72  1  0
 36 37  1  1
 36 38  1  0
 37 73  1  0
 37 74  1  0
 37 75  1  0
 38 39  1  0
 38 76  1  1
 39 41  1  0
 39 40  1  0
 39 77  1  1
 40 41  1  0
 41 42  1  1
 42 78  1  0
 42 79  1  0
 42 80  1  0
 43 44  2  0
 45 46  1  0
 45 81  1  6
 46 82  1  0
M  END
>  <i_m_ct_stereo_status>  (126) 
1

>  <s_m_source_file>  (126) 
/var/tmp/pbs.5075288.sched01/tmp4tfr24xl/130i3iej58d.sdf

>  <i_m_source_file_index>  (126) 
29

>  <i_lp_mmshare_version>  (126) 
48012

>  <i_f3d_flags>  (126) 
0

>  <s_epik_input>  (126) 
W0NIM11PQyg9TylbQ0BAXShbT0hdKShbQ0BAXTEyW09IXSlbQ0BdMyhbT0hdKVtDQF00KFtDSDNdKVtDQEBdNShbQ0gzXSlbQ0BAXTYoW09IXSlbQ0BASF0oW0NIM10pQyg9TylDKD1PKUMoW09IXSkoQzM9TylbQ0BIXTRbQ0BASF03W0NAXShPNykoW0NIM10pW0NAQEhdKFtDQEhdKFtTK102W08tXSlbQ0BIXTVbT0hdKVtDQEBdKFtDSDJdW09IXSkoW0NASF0yW09IXSlbQ0BIXShbT0hdKVtDQEBIXTFbT0hd

>  <s_epik_cmdline>  (126) 
J2VwaWtfcHl0aG9uJywgJy1waHQnLCAnMi4wJywgJy1waCcsICc3LjAnLCAnLXRuJywgJzgnLCAnLW1hJywgJzIwMCcsICctaW1hZScsICc8aW5maWxlLm1hZT4nLCAnLW9tYWUnLCAnPG91dGZpbGUubWFlPic=

>  <r_lp_tautomer_probability>  (126) 
1

>  <r_epik_Ionization_Penalty>  (126) 
3.89718e-05

>  <r_epik_Ionization_Penalty_Charging>  (126) 
0

>  <r_epik_Ionization_Penalty_Neutral>  (126) 
3.89718e-05

>  <r_epik_State_Penalty>  (126) 
-0

>  <r_epik_Charging_Adjusted_Penalty>  (126) 
0

>  <i_epik_Tot_Q>  (126) 
0

>  <i_epik_Tot_abs_Q>  (126) 
2

>  <s_epik_Chemistry_Notes>  (126) 
This compound has an ester and may undergo hydrolysis at high or low pH.

>  <s_lp_Force_Field>  (126) 
OPLS3e

>  <r_lp_Energy>  (126) 
478.482

>  <b_lp_Chiralities_Consistent>  (126) 
1

>  <s_lp_Variant>  (126) 
64:0-1

>  <s_i_glide_gridfile>  (126) 
pfpi4k_grid

>  <i_i_glide_lignum>  (126) 
29

>  <i_i_glide_rotatable_bonds>  (126) 
13

>  <r_i_docking_score>  (126) 
-3.34051

>  <r_i_glide_ligand_efficiency>  (126) 
-0.0726197

>  <r_i_glide_ligand_efficiency_sa>  (126) 
-0.2602

>  <r_i_glide_ligand_efficiency_ln>  (126) 
-0.691811

>  <r_i_glide_gscore>  (126) 
-3.34051

>  <r_i_glide_lipo>  (126) 
-0.104241

>  <r_i_glide_hbond>  (126) 
0

>  <r_i_glide_metal>  (126) 
-0

>  <r_i_glide_rewards>  (126) 
-1.00001

>  <r_i_glide_evdw>  (126) 
-23.7351

>  <r_i_glide_ecoul>  (126) 
-7.7079

>  <r_i_glide_erotb>  (126) 
0.0932432

>  <r_i_glide_esite>  (126) 
-0.0350713

>  <r_i_glide_emodel>  (126) 
-46.9172

>  <r_i_glide_energy>  (126) 
-31.443

>  <r_i_glide_einternal>  (126) 
5.36289

>  <r_i_glide_intrahb_reward>  (126) 
-1

>  <i_i_glide_confnum>  (126) 
2

>  <i_i_glide_posenum>  (126) 
30

>  <r_i_glide_eff_state_penalty>  (126) 
0

>  <ligand_id>  (126) 
64

>  <original_smiles>  (126) 
COC(=O)C1(O)C2(O)C(O)C(O)C(CO)(C3C4C(O)C5(C)C(O)(C(C)C(=O)C(=O)C6(O)C(=O)C1(O)C5(C)C6C1OC13C)[S+]4[O-])C2O

>  <smiles>  (126) 
[H]OC([H])([H])C12C([H])(O[H])C([H])(O[H])C(O[H])(C1([H])O[H])C(O[H])(C(=O)OC([H])([H])[H])C1(O[H])C(=O)C3(O[H])C(=O)C(=O)C([H])(C([H])([H])[H])C4(O[H])S(=O)C5([H])C([H])(O[H])C4(C([H])([H])[H])C1(C([H])([H])[H])C3([H])C1([H])OC1(C([H])([H])[H])C52[H]

$$$$
64:1:0
     RDKit          3D

 82 88  0  0  1  0  0  0  0  0999 V2000
    3.5523   -0.1132   10.8987 C   0  0  0  0  0  0  0  0  0  0  0  0
    3.0158   -0.1161    9.5756 O   0  0  0  0  0  0  0  0  0  0  0  0
    3.7346    0.4383    8.5713 C   0  0  0  0  0  0  0  0  0  0  0  0
    4.8338    0.9561    8.7426 O   0  0  0  0  0  0  0  0  0  0  0  0
    3.0423    0.3722    7.1456 C   0  0  1  0  0  0  0  0  0  0  0  0
    4.0894    0.7231    6.2691 O   0  0  0  0  0  0  0  0  0  0  0  0
    2.9013   -1.2447    6.8148 C   0  0  1  0  0  0  0  0  0  0  0  0
    3.9760   -1.9472    7.4434 O   0  0  0  0  0  0  0  0  0  0  0  0
    1.6534   -2.0389    7.2910 C   0  0  1  0  0  0  0  0  0  0  0  0
    0.8150   -1.3264    8.1482 O   0  0  0  0  0  0  0  0  0  0  0  0
    0.9999   -2.6292    5.9867 C   0  0  1  0  0  0  0  0  0  0  0  0
   -0.3693   -2.9601    5.9560 O   0  0  0  0  0  0  0  0  0  0  0  0
    1.6491   -1.9652    4.7153 C   0  0  1  0  0  0  0  0  0  0  0  0
    1.5935   -2.9443    3.4995 C   0  0  0  0  0  0  0  0  0  0  0  0
    2.0505   -4.2563    3.7625 O   0  0  0  0  0  0  0  0  0  0  0  0
    1.1241   -0.5045    4.3193 C   0  0  2  0  0  0  0  0  0  0  0  0
   -0.4085   -0.2424    4.0843 C   0  0  1  0  0  0  0  0  0  0  0  0
   -1.0757    0.2894    5.3333 C   0  0  1  0  0  0  0  0  0  0  0  0
   -1.0409   -0.4718    6.4903 O   0  0  0  0  0  0  0  0  0  0  0  0
   -0.8241    1.7765    5.6398 C   0  0  2  0  0  0  0  0  0  0  0  0
   -1.9701    1.9742    6.7543 C   0  0  0  0  0  0  0  0  0  0  0  0
   -1.2839    2.5388    4.2565 C   0  0  1  0  0  0  0  0  0  0  0  0
   -2.6639    2.8173    4.3619 O   0  0  0  0  0  0  0  0  0  0  0  0
   -0.6763    3.9419    3.6453 C   0  0  1  0  0  0  0  0  0  0  0  0
   -1.6647    4.7651    2.7928 C   0  0  0  0  0  0  0  0  0  0  0  0
    0.2750    4.9170    4.4305 C   0  0  0  0  0  0  0  0  0  0  0  0
   -0.1853    5.9017    5.0012 O   0  0  0  0  0  0  0  0  0  0  0  0
    1.8657    4.6335    4.4522 C   0  0  0  0  0  0  0  0  0  0  0  0
    2.4942    5.2418    3.5860 O   0  0  0  0  0  0  0  0  0  0  0  0
    2.7608    3.6844    5.4256 C   0  0  2  0  0  0  0  0  0  0  0  0
    2.9404    4.9547    6.0584 O   0  0  0  0  0  0  0  0  0  0  0  0
    2.7041    2.9538    6.9034 C   0  0  0  0  0  0  0  0  0  0  0  0
    3.3227    3.3644    7.8742 O   0  0  0  0  0  0  0  0  0  0  0  0
    1.8721    1.6104    7.1143 C   0  0  2  0  0  0  0  0  0  0  0  0
    1.2164    1.5336    8.3722 O   0  0  0  0  0  0  0  0  0  0  0  0
    0.7084    2.2046    6.1503 C   0  0  2  0  0  0  0  0  0  0  0  0
    0.1388    3.5105    6.9968 C   0  0  0  0  0  0  0  0  0  0  0  0
    1.7389    2.5658    5.0022 C   0  0  2  0  0  0  0  0  0  0  0  0
    2.2877    1.7615    3.7906 C   0  0  1  0  0  0  0  0  0  0  0  0
    3.2563    0.7745    3.9602 O   0  0  0  0  0  0  0  0  0  0  0  0
    2.0132    0.3309    3.4177 C   0  0  1  0  0  0  0  0  0  0  0  0
    2.1495   -0.1457    1.9720 C   0  0  0  0  0  0  0  0  0  0  0  0
   -0.9788    1.1850    2.9780 S   0  0  0  0  0  0  0  0  0  0  0  0
    0.0859    1.6417    1.9815 O   0  0  0  0  0  0  0  0  0  0  0  0
    3.0488   -1.8640    5.3687 C   0  0  1  0  0  0  0  0  0  0  0  0
    4.1563   -1.5205    4.5668 O   0  0  0  0  0  0  0  0  0  0  0  0
    2.8568   -0.6031   11.5848 H   0  0  0  0  0  0  0  0  0  0  0  0
    3.7086    0.9064   11.2573 H   0  0  0  0  0  0  0  0  0  0  0  0
    4.5037   -0.6477   10.9575 H   0  0  0  0  0  0  0  0  0  0  0  0
    3.8277    0.5725    5.3581 H   0  0  0  0  0  0  0  0  0  0  0  0
    3.9669   -2.8563    7.1717 H   0  0  0  0  0  0  0  0  0  0  0  0
    1.9511   -2.9112    7.8897 H   0  0  0  0  0  0  0  0  0  0  0  0
    1.3335   -1.1165    8.9202 H   0  0  0  0  0  0  0  0  0  0  0  0
    1.3766   -3.6514    6.0453 H   0  0  0  0  0  0  0  0  0  0  0  0
   -0.4866   -3.5946    5.2615 H   0  0  0  0  0  0  0  0  0  0  0  0
    0.5693   -3.0173    3.1339 H   0  0  0  0  0  0  0  0  0  0  0  0
    2.2062   -2.6071    2.6810 H   0  0  0  0  0  0  0  0  0  0  0  0
    2.9471   -4.2262    4.0736 H   0  0  0  0  0  0  0  0  0  0  0  0
    1.2747   -0.0117    5.2607 H   0  0  0  0  0  0  0  0  0  0  0  0
   -0.8664   -1.1652    3.7299 H   0  0  0  0  0  0  0  0  0  0  0  0
   -2.1268    0.1847    5.0657 H   0  0  0  0  0  0  0  0  0  0  0  0
   -0.1565   -0.5408    6.8436 H   0  0  0  0  0  0  0  0  0  0  0  0
   -2.3674    2.9852    6.8672 H   0  0  0  0  0  0  0  0  0  0  0  0
   -1.6491    1.6375    7.7416 H   0  0  0  0  0  0  0  0  0  0  0  0
   -2.8768    1.4103    6.5445 H   0  0  0  0  0  0  0  0  0  0  0  0
   -3.1116    2.2966    3.7080 H   0  0  0  0  0  0  0  0  0  0  0  0
    0.0162    3.6236    2.8765 H   0  0  0  0  0  0  0  0  0  0  0  0
   -1.1344    5.5370    2.2233 H   0  0  0  0  0  0  0  0  0  0  0  0
   -2.4334    5.2640    3.3535 H   0  0  0  0  0  0  0  0  0  0  0  0
   -2.1743    4.1166    2.0818 H   0  0  0  0  0  0  0  0  0  0  0  0
    3.1482    5.5815    5.3688 H   0  0  0  0  0  0  0  0  0  0  0  0
    1.8704    1.5747    9.0550 H   0  0  0  0  0  0  0  0  0  0  0  0
    0.7860    4.3668    7.1970 H   0  0  0  0  0  0  0  0  0  0  0  0
   -0.2387    3.2785    7.9960 H   0  0  0  0  0  0  0  0  0  0  0  0
   -0.6895    4.0218    6.5309 H   0  0  0  0  0  0  0  0  0  0  0  0
    1.0062    2.6219    4.2686 H   0  0  0  0  0  0  0  0  0  0  0  0
    2.5172    2.4045    2.9382 H   0  0  0  0  0  0  0  0  0  0  0  0
    1.2334   -0.6223    1.6351 H   0  0  0  0  0  0  0  0  0  0  0  0
    2.9912   -0.8196    1.8586 H   0  0  0  0  0  0  0  0  0  0  0  0
    2.3388    0.7056    1.3170 H   0  0  0  0  0  0  0  0  0  0  0  0
    3.3358   -2.9061    5.5257 H   0  0  0  0  0  0  0  0  0  0  0  0
    4.1183   -1.9984    3.7485 H   0  0  0  0  0  0  0  0  0  0  0  0
  1  2  1  0
  1 47  1  0
  1 48  1  0
  1 49  1  0
  2  3  1  0
  3  4  2  0
  3  5  1  0
  5 34  1  0
  5  6  1  6
  5  7  1  0
  6 50  1  0
  7 45  1  0
  7  8  1  1
  7  9  1  0
  8 51  1  0
  9 10  1  0
  9 11  1  0
  9 52  1  1
 10 53  1  0
 11 12  1  0
 11 13  1  0
 11 54  1  6
 12 55  1  0
 13 14  1  6
 13 16  1  0
 13 45  1  0
 14 15  1  0
 14 56  1  0
 14 57  1  0
 15 58  1  0
 16 41  1  0
 16 17  1  0
 16 59  1  1
 17 43  1  0
 17 18  1  0
 17 60  1  6
 18 19  1  0
 18 20  1  0
 18 61  1  6
 19 62  1  0
 20 36  1  0
 20 21  1  1
 20 22  1  0
 21 63  1  0
 21 64  1  0
 21 65  1  0
 22 23  1  1
 22 24  1  0
 43 22  1  1
 23 66  1  0
 24 25  1  0
 24 26  1  0
 24 67  1  6
 25 68  1  0
 25 69  1  0
 25 70  1  0
 26 27  2  0
 26 28  1  0
 28 29  2  0
 28 30  1  0
 30 38  1  0
 30 31  1  1
 30 32  1  0
 31 71  1  0
 32 33  2  0
 32 34  1  0
 34 35  1  1
 34 36  1  0
 35 72  1  0
 36 37  1  1
 36 38  1  0
 37 73  1  0
 37 74  1  0
 37 75  1  0
 38 39  1  0
 38 76  1  6
 39 41  1  0
 39 40  1  0
 39 77  1  6
 40 41  1  0
 41 42  1  6
 42 78  1  0
 42 79  1  0
 42 80  1  0
 43 44  2  0
 45 46  1  0
 45 81  1  1
 46 82  1  0
M  END
>  <i_m_ct_stereo_status>  (127) 
1

>  <s_m_source_file>  (127) 
/var/tmp/pbs.5075288.sched01/tmp4tfr24xl/130i3iej58d.sdf

>  <i_m_source_file_index>  (127) 
30

>  <i_lp_mmshare_version>  (127) 
48012

>  <i_f3d_flags>  (127) 
0

>  <s_epik_input>  (127) 
W0NIM11PQyg9TylbQ0BAXShbT0hdKShbQ0BAXTEyW09IXSlbQ0BdMyhbT0hdKVtDQF00KFtDSDNdKVtDQEBdNShbQ0gzXSlbQ0BAXTYoW09IXSlbQ0BASF0oW0NIM10pQyg9TylDKD1PKUMoW09IXSkoQzM9TylbQ0BIXTRbQ0BASF03W0NAXShPNykoW0NIM10pW0NAQEhdKFtDQEhdKFtTK102W08tXSlbQ0BIXTVbT0hdKVtDQEBdKFtDSDJdW09IXSkoW0NASF0yW09IXSlbQ0BIXShbT0hdKVtDQEBIXTFbT0hd

>  <s_epik_cmdline>  (127) 
J2VwaWtfcHl0aG9uJywgJy1waHQnLCAnMi4wJywgJy1waCcsICc3LjAnLCAnLXRuJywgJzgnLCAnLW1hJywgJzIwMCcsICctaW1hZScsICc8aW5maWxlLm1hZT4nLCAnLW9tYWUnLCAnPG91dGZpbGUubWFlPic=

>  <r_lp_tautomer_probability>  (127) 
1

>  <r_epik_Ionization_Penalty>  (127) 
3.89718e-05

>  <r_epik_Ionization_Penalty_Charging>  (127) 
0

>  <r_epik_Ionization_Penalty_Neutral>  (127) 
3.89718e-05

>  <r_epik_State_Penalty>  (127) 
-0

>  <r_epik_Charging_Adjusted_Penalty>  (127) 
0

>  <i_epik_Tot_Q>  (127) 
0

>  <i_epik_Tot_abs_Q>  (127) 
2

>  <s_epik_Chemistry_Notes>  (127) 
This compound has an ester and may undergo hydrolysis at high or low pH.

>  <s_lp_Force_Field>  (127) 
OPLS3e

>  <r_lp_Energy>  (127) 
465.164

>  <b_lp_Chiralities_Consistent>  (127) 
1

>  <s_lp_Variant>  (127) 
64:0-2

>  <s_i_glide_gridfile>  (127) 
pfpi4k_grid

>  <i_i_glide_lignum>  (127) 
30

>  <i_i_glide_rotatable_bonds>  (127) 
13

>  <r_i_docking_score>  (127) 
-4.37306

>  <r_i_glide_ligand_efficiency>  (127) 
-0.0950665

>  <r_i_glide_ligand_efficiency_sa>  (127) 
-0.340628

>  <r_i_glide_ligand_efficiency_ln>  (127) 
-0.90565

>  <r_i_glide_gscore>  (127) 
-4.37306

>  <r_i_glide_lipo>  (127) 
-0.0313134

>  <r_i_glide_hbond>  (127) 
0

>  <r_i_glide_metal>  (127) 
-0

>  <r_i_glide_rewards>  (127) 
-1.5

>  <r_i_glide_evdw>  (127) 
-26.78

>  <r_i_glide_ecoul>  (127) 
-9.92002

>  <r_i_glide_erotb>  (127) 
0.0932432

>  <r_i_glide_esite>  (127) 
-0.107988

>  <r_i_glide_emodel>  (127) 
-57.7111

>  <r_i_glide_energy>  (127) 
-36.7

>  <r_i_glide_einternal>  (127) 
5.67186

>  <r_i_glide_intrahb_reward>  (127) 
-1.5

>  <i_i_glide_confnum>  (127) 
3

>  <i_i_glide_posenum>  (127) 
25

>  <r_i_glide_eff_state_penalty>  (127) 
0

>  <ligand_id>  (127) 
64

>  <original_smiles>  (127) 
COC(=O)C1(O)C2(O)C(O)C(O)C(CO)(C3C4C(O)C5(C)C(O)(C(C)C(=O)C(=O)C6(O)C(=O)C1(O)C5(C)C6C1OC13C)[S+]4[O-])C2O

>  <smiles>  (127) 
[H]OC([H])([H])C12C([H])(O[H])C([H])(O[H])C(O[H])(C1([H])O[H])C(O[H])(C(=O)OC([H])([H])[H])C1(O[H])C(=O)C3(O[H])C(=O)C(=O)C([H])(C([H])([H])[H])C4(O[H])S(=O)C5([H])C([H])(O[H])C4(C([H])([H])[H])C1(C([H])([H])[H])C3([H])C1([H])OC1(C([H])([H])[H])C52[H]

$$$$
64:1:1
     RDKit          3D

 82 88  0  0  1  0  0  0  0  0999 V2000
    7.2503    0.3017    7.8704 C   0  0  0  0  0  0  0  0  0  0  0  0
    5.9965    0.2157    7.2129 O   0  0  0  0  0  0  0  0  0  0  0  0
    5.6437    1.1929    6.3475 C   0  0  0  0  0  0  0  0  0  0  0  0
    6.3772    2.1530    6.0934 O   0  0  0  0  0  0  0  0  0  0  0  0
    4.2470    0.9958    5.6304 C   0  0  1  0  0  0  0  0  0  0  0  0
    4.2725    1.8892    4.5486 O   0  0  0  0  0  0  0  0  0  0  0  0
    4.3681   -0.4171    4.7870 C   0  0  1  0  0  0  0  0  0  0  0  0
    5.7213   -0.5615    4.3761 O   0  0  0  0  0  0  0  0  0  0  0  0
    4.0343   -1.7477    5.5067 C   0  0  1  0  0  0  0  0  0  0  0  0
    3.8099   -1.5427    6.8681 O   0  0  0  0  0  0  0  0  0  0  0  0
    2.8939   -2.3963    4.6456 C   0  0  1  0  0  0  0  0  0  0  0  0
    1.9761   -3.2825    5.2379 O   0  0  0  0  0  0  0  0  0  0  0  0
    2.3362   -1.3621    3.6050 C   0  0  1  0  0  0  0  0  0  0  0  0
    1.7782   -2.1039    2.3454 C   0  0  0  0  0  0  0  0  0  0  0  0
    2.6377   -3.0395    1.7240 O   0  0  0  0  0  0  0  0  0  0  0  0
    1.3153   -0.2615    4.1405 C   0  0  2  0  0  0  0  0  0  0  0  0
    0.0111   -0.7046    4.8842 C   0  0  1  0  0  0  0  0  0  0  0  0
    0.2225   -0.6828    6.3889 C   0  0  1  0  0  0  0  0  0  0  0  0
    1.1846   -1.4865    6.9830 O   0  0  0  0  0  0  0  0  0  0  0  0
    0.2030    0.7080    7.0565 C   0  0  2  0  0  0  0  0  0  0  0  0
    0.0494    0.2246    8.5900 C   0  0  0  0  0  0  0  0  0  0  0  0
   -1.2132    1.3292    6.5413 C   0  0  1  0  0  0  0  0  0  0  0  0
   -2.1839    0.9400    7.4778 O   0  0  0  0  0  0  0  0  0  0  0  0
   -1.5918    2.9095    6.3057 C   0  0  1  0  0  0  0  0  0  0  0  0
   -3.0766    3.2553    6.5397 C   0  0  0  0  0  0  0  0  0  0  0  0
   -0.6755    4.1049    6.7706 C   0  0  0  0  0  0  0  0  0  0  0  0
   -0.9449    4.7382    7.7920 O   0  0  0  0  0  0  0  0  0  0  0  0
    0.5372    4.5973    5.8445 C   0  0  0  0  0  0  0  0  0  0  0  0
    0.2192    5.5154    5.0723 O   0  0  0  0  0  0  0  0  0  0  0  0
    2.0631    4.0369    5.7185 C   0  0  2  0  0  0  0  0  0  0  0  0
    2.2536    5.1751    6.5745 O   0  0  0  0  0  0  0  0  0  0  0  0
    3.1647    3.1772    6.5712 C   0  0  0  0  0  0  0  0  0  0  0  0
    4.1388    3.7236    7.1389 O   0  0  0  0  0  0  0  0  0  0  0  0
    3.0588    1.5874    6.6881 C   0  0  2  0  0  0  0  0  0  0  0  0
    3.4412    1.0659    7.9648 O   0  0  0  0  0  0  0  0  0  0  0  0
    1.4653    1.7272    6.7941 C   0  0  2  0  0  0  0  0  0  0  0  0
    1.2545    2.5103    8.2357 C   0  0  0  0  0  0  0  0  0  0  0  0
    1.3852    2.6298    5.5013 C   0  0  2  0  0  0  0  0  0  0  0  0
    1.2332    2.3457    3.9788 C   0  0  1  0  0  0  0  0  0  0  0  0
    2.2691    1.8429    3.2014 O   0  0  0  0  0  0  0  0  0  0  0  0
    1.1477    0.9835    3.3087 C   0  0  1  0  0  0  0  0  0  0  0  0
    0.4323    0.8369    1.9713 C   0  0  0  0  0  0  0  0  0  0  0  0
   -1.4884    0.4343    4.9092 S   0  0  0  0  0  0  0  0  0  0  0  0
   -1.5145    1.4826    3.7786 O   0  0  0  0  0  0  0  0  0  0  0  0
    3.7134   -0.7105    3.3784 C   0  0  1  0  0  0  0  0  0  0  0  0
    3.8933    0.1333    2.2702 O   0  0  0  0  0  0  0  0  0  0  0  0
    7.3862   -0.5705    8.5094 H   0  0  0  0  0  0  0  0  0  0  0  0
    7.2980    1.1940    8.5022 H   0  0  0  0  0  0  0  0  0  0  0  0
    8.0940    0.3336    7.1709 H   0  0  0  0  0  0  0  0  0  0  0  0
    3.4662    1.8176    4.0502 H   0  0  0  0  0  0  0  0  0  0  0  0
    5.7765   -1.3070    3.7955 H   0  0  0  0  0  0  0  0  0  0  0  0
    4.8789   -2.4424    5.4693 H   0  0  0  0  0  0  0  0  0  0  0  0
    4.6748   -1.4273    7.2590 H   0  0  0  0  0  0  0  0  0  0  0  0
    3.4702   -3.1363    4.0851 H   0  0  0  0  0  0  0  0  0  0  0  0
    1.5943   -3.8124    4.5464 H   0  0  0  0  0  0  0  0  0  0  0  0
    0.8632   -2.6201    2.6397 H   0  0  0  0  0  0  0  0  0  0  0  0
    1.5411   -1.4235    1.5388 H   0  0  0  0  0  0  0  0  0  0  0  0
    3.2148   -2.5555    1.1394 H   0  0  0  0  0  0  0  0  0  0  0  0
    1.8903    0.1226    4.9566 H   0  0  0  0  0  0  0  0  0  0  0  0
   -0.2953   -1.6848    4.5144 H   0  0  0  0  0  0  0  0  0  0  0  0
   -0.6720   -1.2088    6.7181 H   0  0  0  0  0  0  0  0  0  0  0  0
    2.0658   -1.2646    6.6773 H   0  0  0  0  0  0  0  0  0  0  0  0
   -0.4628    0.9084    9.2764 H   0  0  0  0  0  0  0  0  0  0  0  0
    1.0098   -0.0219    9.0361 H   0  0  0  0  0  0  0  0  0  0  0  0
   -0.5375   -0.6879    8.7072 H   0  0  0  0  0  0  0  0  0  0  0  0
   -2.5272    1.7464    7.8529 H   0  0  0  0  0  0  0  0  0  0  0  0
   -1.5414    3.0698    5.2349 H   0  0  0  0  0  0  0  0  0  0  0  0
   -3.2866    4.1441    5.9614 H   0  0  0  0  0  0  0  0  0  0  0  0
   -3.3273    3.4259    7.5961 H   0  0  0  0  0  0  0  0  0  0  0  0
   -3.7413    2.5366    6.1323 H   0  0  0  0  0  0  0  0  0  0  0  0
    1.8336    5.9224    6.1470 H   0  0  0  0  0  0  0  0  0  0  0  0
    3.3494    0.1137    7.9537 H   0  0  0  0  0  0  0  0  0  0  0  0
    1.6073    3.5252    8.3678 H   0  0  0  0  0  0  0  0  0  0  0  0
    1.6937    2.0119    9.1025 H   0  0  0  0  0  0  0  0  0  0  0  0
    0.2265    2.6381    8.5219 H   0  0  0  0  0  0  0  0  0  0  0  0
    0.3651    2.4637    5.3420 H   0  0  0  0  0  0  0  0  0  0  0  0
    0.6558    3.1007    3.4597 H   0  0  0  0  0  0  0  0  0  0  0  0
   -0.3177    0.0500    2.0252 H   0  0  0  0  0  0  0  0  0  0  0  0
    1.1411    0.6292    1.1788 H   0  0  0  0  0  0  0  0  0  0  0  0
   -0.0820    1.7585    1.7025 H   0  0  0  0  0  0  0  0  0  0  0  0
    4.3161   -1.5254    2.9619 H   0  0  0  0  0  0  0  0  0  0  0  0
    3.4320    0.9607    2.4342 H   0  0  0  0  0  0  0  0  0  0  0  0
  1  2  1  0
  1 47  1  0
  1 48  1  0
  1 49  1  0
  2  3  1  0
  3  4  2  0
  3  5  1  0
  5 34  1  0
  5  6  1  6
  5  7  1  0
  6 50  1  0
  7 45  1  0
  7  8  1  6
  7  9  1  0
  8 51  1  0
  9 10  1  0
  9 11  1  0
  9 52  1  1
 10 53  1  0
 11 12  1  0
 11 13  1  0
 11 54  1  6
 12 55  1  0
 13 14  1  6
 13 16  1  0
 13 45  1  0
 14 15  1  0
 14 56  1  0
 14 57  1  0
 15 58  1  0
 16 41  1  0
 16 17  1  0
 16 59  1  1
 17 43  1  0
 17 18  1  0
 17 60  1  6
 18 19  1  0
 18 20  1  0
 18 61  1  1
 19 62  1  0
 20 36  1  0
 20 21  1  1
 20 22  1  0
 21 63  1  0
 21 64  1  0
 21 65  1  0
 22 23  1  1
 22 24  1  0
 43 22  1  1
 23 66  1  0
 24 25  1  0
 24 26  1  0
 24 67  1  6
 25 68  1  0
 25 69  1  0
 25 70  1  0
 26 27  2  0
 26 28  1  0
 28 29  2  0
 28 30  1  0
 30 38  1  0
 30 31  1  1
 30 32  1  0
 31 71  1  0
 32 33  2  0
 32 34  1  0
 34 35  1  1
 34 36  1  0
 35 72  1  0
 36 37  1  1
 36 38  1  0
 37 73  1  0
 37 74  1  0
 37 75  1  0
 38 39  1  0
 38 76  1  1
 39 41  1  0
 39 40  1  0
 39 77  1  6
 40 41  1  0
 41 42  1  6
 42 78  1  0
 42 79  1  0
 42 80  1  0
 43 44  2  0
 45 46  1  0
 45 81  1  6
 46 82  1  0
M  END
>  <i_m_ct_stereo_status>  (128) 
1

>  <s_m_source_file>  (128) 
/var/tmp/pbs.5075288.sched01/tmp4tfr24xl/130i3iej58d.sdf

>  <i_m_source_file_index>  (128) 
30

>  <i_lp_mmshare_version>  (128) 
48012

>  <i_f3d_flags>  (128) 
0

>  <s_epik_input>  (128) 
W0NIM11PQyg9TylbQ0BAXShbT0hdKShbQ0BAXTEyW09IXSlbQ0BdMyhbT0hdKVtDQF00KFtDSDNdKVtDQEBdNShbQ0gzXSlbQ0BAXTYoW09IXSlbQ0BASF0oW0NIM10pQyg9TylDKD1PKUMoW09IXSkoQzM9TylbQ0BIXTRbQ0BASF03W0NAXShPNykoW0NIM10pW0NAQEhdKFtDQEhdKFtTK102W08tXSlbQ0BIXTVbT0hdKVtDQEBdKFtDSDJdW09IXSkoW0NASF0yW09IXSlbQ0BIXShbT0hdKVtDQEBIXTFbT0hd

>  <s_epik_cmdline>  (128) 
J2VwaWtfcHl0aG9uJywgJy1waHQnLCAnMi4wJywgJy1waCcsICc3LjAnLCAnLXRuJywgJzgnLCAnLW1hJywgJzIwMCcsICctaW1hZScsICc8aW5maWxlLm1hZT4nLCAnLW9tYWUnLCAnPG91dGZpbGUubWFlPic=

>  <r_lp_tautomer_probability>  (128) 
1

>  <r_epik_Ionization_Penalty>  (128) 
3.89718e-05

>  <r_epik_Ionization_Penalty_Charging>  (128) 
0

>  <r_epik_Ionization_Penalty_Neutral>  (128) 
3.89718e-05

>  <r_epik_State_Penalty>  (128) 
-0

>  <r_epik_Charging_Adjusted_Penalty>  (128) 
0

>  <i_epik_Tot_Q>  (128) 
0

>  <i_epik_Tot_abs_Q>  (128) 
2

>  <s_epik_Chemistry_Notes>  (128) 
This compound has an ester and may undergo hydrolysis at high or low pH.

>  <s_lp_Force_Field>  (128) 
OPLS3e

>  <r_lp_Energy>  (128) 
465.164

>  <b_lp_Chiralities_Consistent>  (128) 
1

>  <s_lp_Variant>  (128) 
64:0-2

>  <s_i_glide_gridfile>  (128) 
pfpi4k_grid

>  <i_i_glide_lignum>  (128) 
30

>  <i_i_glide_rotatable_bonds>  (128) 
13

>  <r_i_docking_score>  (128) 
-4.26514

>  <r_i_glide_ligand_efficiency>  (128) 
-0.0927205

>  <r_i_glide_ligand_efficiency_sa>  (128) 
-0.332222

>  <r_i_glide_ligand_efficiency_ln>  (128) 
-0.8833

>  <r_i_glide_gscore>  (128) 
-4.26514

>  <r_i_glide_lipo>  (128) 
-0.245271

>  <r_i_glide_hbond>  (128) 
-0.16

>  <r_i_glide_metal>  (128) 
-0

>  <r_i_glide_rewards>  (128) 
-2.04694

>  <r_i_glide_evdw>  (128) 
-18.7681

>  <r_i_glide_ecoul>  (128) 
-6.14001

>  <r_i_glide_erotb>  (128) 
0.0932432

>  <r_i_glide_esite>  (128) 
-0.0467703

>  <r_i_glide_emodel>  (128) 
-51.0908

>  <r_i_glide_energy>  (128) 
-24.9081

>  <r_i_glide_einternal>  (128) 
4.01076

>  <r_i_glide_intrahb_reward>  (128) 
-2

>  <i_i_glide_confnum>  (128) 
3

>  <i_i_glide_posenum>  (128) 
5

>  <r_i_glide_eff_state_penalty>  (128) 
0

>  <ligand_id>  (128) 
64

>  <original_smiles>  (128) 
COC(=O)C1(O)C2(O)C(O)C(O)C(CO)(C3C4C(O)C5(C)C(O)(C(C)C(=O)C(=O)C6(O)C(=O)C1(O)C5(C)C6C1OC13C)[S+]4[O-])C2O

>  <smiles>  (128) 
[H]OC([H])([H])C12C([H])(O[H])C([H])(O[H])C(O[H])(C1([H])O[H])C(O[H])(C(=O)OC([H])([H])[H])C1(O[H])C(=O)C3(O[H])C(=O)C(=O)C([H])(C([H])([H])[H])C4(O[H])S(=O)C5([H])C([H])(O[H])C4(C([H])([H])[H])C1(C([H])([H])[H])C3([H])C1([H])OC1(C([H])([H])[H])C52[H]

$$$$
64:1:2
     RDKit          3D

 82 88  0  0  1  0  0  0  0  0999 V2000
    4.5132    0.1362   10.4152 C   0  0  0  0  0  0  0  0  0  0  0  0
    3.8049    0.0824    9.1828 O   0  0  0  0  0  0  0  0  0  0  0  0
    4.3756    0.6178    8.0975 C   0  0  0  0  0  0  0  0  0  0  0  0
    5.4711    1.1662    8.1077 O   0  0  0  0  0  0  0  0  0  0  0  0
    3.5384    0.4776    6.7682 C   0  0  1  0  0  0  0  0  0  0  0  0
    4.4665    0.8284    5.7736 O   0  0  0  0  0  0  0  0  0  0  0  0
    3.4440   -1.1427    6.4812 C   0  0  1  0  0  0  0  0  0  0  0  0
    4.6427   -1.7450    6.9630 O   0  0  0  0  0  0  0  0  0  0  0  0
    2.3174   -1.9889    7.1225 C   0  0  1  0  0  0  0  0  0  0  0  0
    1.5270   -1.2923    8.0333 O   0  0  0  0  0  0  0  0  0  0  0  0
    1.5462   -2.6631    5.9253 C   0  0  1  0  0  0  0  0  0  0  0  0
    0.1988   -3.0538    6.0676 O   0  0  0  0  0  0  0  0  0  0  0  0
    2.0074   -2.0142    4.5652 C   0  0  1  0  0  0  0  0  0  0  0  0
    1.8403   -3.0387    3.4000 C   0  0  0  0  0  0  0  0  0  0  0  0
    2.3994   -4.3208    3.6202 O   0  0  0  0  0  0  0  0  0  0  0  0
    1.3678   -0.6042    4.1881 C   0  0  2  0  0  0  0  0  0  0  0  0
   -0.1939   -0.4319    4.1423 C   0  0  1  0  0  0  0  0  0  0  0  0
   -0.7332    0.1131    5.4519 C   0  0  1  0  0  0  0  0  0  0  0  0
   -0.5927   -0.6118    6.6369 O   0  0  0  0  0  0  0  0  0  0  0  0
   -0.5215    1.6294    5.6567 C   0  0  2  0  0  0  0  0  0  0  0  0
   -1.5431    1.8316    6.8792 C   0  0  0  0  0  0  0  0  0  0  0  0
   -1.1886    2.3179    4.3171 C   0  0  1  0  0  0  0  0  0  0  0  0
   -2.5687    2.5482    4.5747 O   0  0  0  0  0  0  0  0  0  0  0  0
   -0.7138    3.7133    3.5730 C   0  0  1  0  0  0  0  0  0  0  0  0
   -1.8526    4.4367    2.8292 C   0  0  0  0  0  0  0  0  0  0  0  0
    0.2635    4.7771    4.2080 C   0  0  0  0  0  0  0  0  0  0  0  0
   -0.1946    5.7549    4.8055 O   0  0  0  0  0  0  0  0  0  0  0  0
    1.8649    4.5728    4.0452 C   0  0  0  0  0  0  0  0  0  0  0  0
    2.3585    5.2362    3.1349 O   0  0  0  0  0  0  0  0  0  0  0  0
    2.9129    3.6899    4.9391 C   0  0  2  0  0  0  0  0  0  0  0  0
    3.1093    4.9889    5.5167 O   0  0  0  0  0  0  0  0  0  0  0  0
    3.0635    3.0248    6.4488 C   0  0  0  0  0  0  0  0  0  0  0  0
    3.7820    3.4849    7.3220 O   0  0  0  0  0  0  0  0  0  0  0  0
    2.3156    1.6592    6.8046 C   0  0  2  0  0  0  0  0  0  0  0  0
    1.7946    1.5800    8.1252 O   0  0  0  0  0  0  0  0  0  0  0  0
    1.0347    2.1526    5.9566 C   0  0  2  0  0  0  0  0  0  0  0  0
    0.5025    3.4646    6.8191 C   0  0  0  0  0  0  0  0  0  0  0  0
    1.9095    2.5069    4.6856 C   0  0  2  0  0  0  0  0  0  0  0  0
    2.3484    1.6937    3.4426 C   0  0  1  0  0  0  0  0  0  0  0  0
    3.3665    0.7473    3.5167 O   0  0  0  0  0  0  0  0  0  0  0  0
    2.0909    0.2309    3.1599 C   0  0  1  0  0  0  0  0  0  0  0  0
    2.0761   -0.2868    1.7261 C   0  0  0  0  0  0  0  0  0  0  0  0
   -0.9730    0.9244    3.0641 S   0  0  0  0  0  0  0  0  0  0  0  0
   -0.0500    1.4034    1.9343 O   0  0  0  0  0  0  0  0  0  0  0  0
    3.4650   -1.8186    5.0557 C   0  0  1  0  0  0  0  0  0  0  0  0
    4.4919   -1.4895    4.1436 O   0  0  0  0  0  0  0  0  0  0  0  0
    3.9358   -0.3609   11.2035 H   0  0  0  0  0  0  0  0  0  0  0  0
    4.6752    1.1760   10.7168 H   0  0  0  0  0  0  0  0  0  0  0  0
    5.4908   -0.3573   10.3524 H   0  0  0  0  0  0  0  0  0  0  0  0
    5.1137    0.1357    5.7284 H   0  0  0  0  0  0  0  0  0  0  0  0
    4.6203   -2.6765    6.7885 H   0  0  0  0  0  0  0  0  0  0  0  0
    2.7445   -2.8142    7.7130 H   0  0  0  0  0  0  0  0  0  0  0  0
    2.1001   -1.0448    8.7539 H   0  0  0  0  0  0  0  0  0  0  0  0
    1.9853   -3.6635    5.9560 H   0  0  0  0  0  0  0  0  0  0  0  0
    0.1791   -3.7206    6.7417 H   0  0  0  0  0  0  0  0  0  0  0  0
    0.7762   -3.1731    3.1851 H   0  0  0  0  0  0  0  0  0  0  0  0
    2.3055   -2.7027    2.4902 H   0  0  0  0  0  0  0  0  0  0  0  0
    3.3275   -4.2371    3.8032 H   0  0  0  0  0  0  0  0  0  0  0  0
    1.5957   -0.0631    5.0849 H   0  0  0  0  0  0  0  0  0  0  0  0
   -0.6378   -1.3906    3.8880 H   0  0  0  0  0  0  0  0  0  0  0  0
   -1.8052   -0.0136    5.2721 H   0  0  0  0  0  0  0  0  0  0  0  0
    0.3180   -0.6230    6.9401 H   0  0  0  0  0  0  0  0  0  0  0  0
   -1.9688    2.8369    7.0000 H   0  0  0  0  0  0  0  0  0  0  0  0
   -1.0975    1.5421    7.8308 H   0  0  0  0  0  0  0  0  0  0  0  0
   -2.4498    1.2287    6.7679 H   0  0  0  0  0  0  0  0  0  0  0  0
   -3.0531    2.0816    3.9235 H   0  0  0  0  0  0  0  0  0  0  0  0
   -0.1181    3.3888    2.7269 H   0  0  0  0  0  0  0  0  0  0  0  0
   -1.4426    5.2414    2.2058 H   0  0  0  0  0  0  0  0  0  0  0  0
   -2.5797    4.8646    3.5150 H   0  0  0  0  0  0  0  0  0  0  0  0
   -2.3900    3.7641    2.1597 H   0  0  0  0  0  0  0  0  0  0  0  0
    3.1953    5.6012    4.7867 H   0  0  0  0  0  0  0  0  0  0  0  0
    2.5104    1.7068    8.7305 H   0  0  0  0  0  0  0  0  0  0  0  0
    1.1346    4.3505    6.9233 H   0  0  0  0  0  0  0  0  0  0  0  0
    0.2461    3.2476    7.8609 H   0  0  0  0  0  0  0  0  0  0  0  0
   -0.3958    3.9172    6.4280 H   0  0  0  0  0  0  0  0  0  0  0  0
    1.0886    2.5118    4.0409 H   0  0  0  0  0  0  0  0  0  0  0  0
    2.4321    2.3134    2.5476 H   0  0  0  0  0  0  0  0  0  0  0  0
    1.1539   -0.8313    1.5308 H   0  0  0  0  0  0  0  0  0  0  0  0
    2.9405   -0.9115    1.5517 H   0  0  0  0  0  0  0  0  0  0  0  0
    2.1309    0.5508    1.0308 H   0  0  0  0  0  0  0  0  0  0  0  0
    3.7973   -2.8492    5.2191 H   0  0  0  0  0  0  0  0  0  0  0  0
    4.3367   -1.9422    3.3236 H   0  0  0  0  0  0  0  0  0  0  0  0
  1  2  1  0
  1 47  1  0
  1 48  1  0
  1 49  1  0
  2  3  1  0
  3  4  2  0
  3  5  1  0
  5 34  1  0
  5  6  1  6
  5  7  1  0
  6 50  1  0
  7 45  1  0
  7  8  1  1
  7  9  1  0
  8 51  1  0
  9 10  1  0
  9 11  1  0
  9 52  1  1
 10 53  1  0
 11 12  1  0
 11 13  1  0
 11 54  1  6
 12 55  1  0
 13 14  1  6
 13 16  1  0
 13 45  1  0
 14 15  1  0
 14 56  1  0
 14 57  1  0
 15 58  1  0
 16 41  1  0
 16 17  1  0
 16 59  1  1
 17 43  1  0
 17 18  1  0
 17 60  1  6
 18 19  1  0
 18 20  1  0
 18 61  1  6
 19 62  1  0
 20 36  1  0
 20 21  1  1
 20 22  1  0
 21 63  1  0
 21 64  1  0
 21 65  1  0
 22 23  1  1
 22 24  1  0
 43 22  1  1
 23 66  1  0
 24 25  1  0
 24 26  1  0
 24 67  1  6
 25 68  1  0
 25 69  1  0
 25 70  1  0
 26 27  2  0
 26 28  1  0
 28 29  2  0
 28 30  1  0
 30 38  1  0
 30 31  1  1
 30 32  1  0
 31 71  1  0
 32 33  2  0
 32 34  1  0
 34 35  1  1
 34 36  1  0
 35 72  1  0
 36 37  1  1
 36 38  1  0
 37 73  1  0
 37 74  1  0
 37 75  1  0
 38 39  1  0
 38 76  1  6
 39 41  1  0
 39 40  1  0
 39 77  1  6
 40 41  1  0
 41 42  1  6
 42 78  1  0
 42 79  1  0
 42 80  1  0
 43 44  2  0
 45 46  1  0
 45 81  1  1
 46 82  1  0
M  END
>  <i_m_ct_stereo_status>  (129) 
1

>  <s_m_source_file>  (129) 
/var/tmp/pbs.5075288.sched01/tmp4tfr24xl/130i3iej58d.sdf

>  <i_m_source_file_index>  (129) 
30

>  <i_lp_mmshare_version>  (129) 
48012

>  <i_f3d_flags>  (129) 
0

>  <s_epik_input>  (129) 
W0NIM11PQyg9TylbQ0BAXShbT0hdKShbQ0BAXTEyW09IXSlbQ0BdMyhbT0hdKVtDQF00KFtDSDNdKVtDQEBdNShbQ0gzXSlbQ0BAXTYoW09IXSlbQ0BASF0oW0NIM10pQyg9TylDKD1PKUMoW09IXSkoQzM9TylbQ0BIXTRbQ0BASF03W0NAXShPNykoW0NIM10pW0NAQEhdKFtDQEhdKFtTK102W08tXSlbQ0BIXTVbT0hdKVtDQEBdKFtDSDJdW09IXSkoW0NASF0yW09IXSlbQ0BIXShbT0hdKVtDQEBIXTFbT0hd

>  <s_epik_cmdline>  (129) 
J2VwaWtfcHl0aG9uJywgJy1waHQnLCAnMi4wJywgJy1waCcsICc3LjAnLCAnLXRuJywgJzgnLCAnLW1hJywgJzIwMCcsICctaW1hZScsICc8aW5maWxlLm1hZT4nLCAnLW9tYWUnLCAnPG91dGZpbGUubWFlPic=

>  <r_lp_tautomer_probability>  (129) 
1

>  <r_epik_Ionization_Penalty>  (129) 
3.89718e-05

>  <r_epik_Ionization_Penalty_Charging>  (129) 
0

>  <r_epik_Ionization_Penalty_Neutral>  (129) 
3.89718e-05

>  <r_epik_State_Penalty>  (129) 
-0

>  <r_epik_Charging_Adjusted_Penalty>  (129) 
0

>  <i_epik_Tot_Q>  (129) 
0

>  <i_epik_Tot_abs_Q>  (129) 
2

>  <s_epik_Chemistry_Notes>  (129) 
This compound has an ester and may undergo hydrolysis at high or low pH.

>  <s_lp_Force_Field>  (129) 
OPLS3e

>  <r_lp_Energy>  (129) 
465.164

>  <b_lp_Chiralities_Consistent>  (129) 
1

>  <s_lp_Variant>  (129) 
64:0-2

>  <s_i_glide_gridfile>  (129) 
pfpi4k_grid

>  <i_i_glide_lignum>  (129) 
30

>  <i_i_glide_rotatable_bonds>  (129) 
13

>  <r_i_docking_score>  (129) 
-3.59238

>  <r_i_glide_ligand_efficiency>  (129) 
-0.0780953

>  <r_i_glide_ligand_efficiency_sa>  (129) 
-0.279819

>  <r_i_glide_ligand_efficiency_ln>  (129) 
-0.743974

>  <r_i_glide_gscore>  (129) 
-3.59238

>  <r_i_glide_lipo>  (129) 
-0.0188674

>  <r_i_glide_hbond>  (129) 
-0.0364059

>  <r_i_glide_metal>  (129) 
-0

>  <r_i_glide_rewards>  (129) 
-1

>  <r_i_glide_evdw>  (129) 
-28.9355

>  <r_i_glide_ecoul>  (129) 
-6.96869

>  <r_i_glide_erotb>  (129) 
0.0932432

>  <r_i_glide_esite>  (129) 
-0.138272

>  <r_i_glide_emodel>  (129) 
-48.6978

>  <r_i_glide_energy>  (129) 
-35.9042

>  <r_i_glide_einternal>  (129) 
7.41279

>  <r_i_glide_intrahb_reward>  (129) 
-1

>  <i_i_glide_confnum>  (129) 
3

>  <i_i_glide_posenum>  (129) 
21

>  <r_i_glide_eff_state_penalty>  (129) 
0

>  <ligand_id>  (129) 
64

>  <original_smiles>  (129) 
COC(=O)C1(O)C2(O)C(O)C(O)C(CO)(C3C4C(O)C5(C)C(O)(C(C)C(=O)C(=O)C6(O)C(=O)C1(O)C5(C)C6C1OC13C)[S+]4[O-])C2O

>  <smiles>  (129) 
[H]OC([H])([H])C12C([H])(O[H])C([H])(O[H])C(O[H])(C1([H])O[H])C(O[H])(C(=O)OC([H])([H])[H])C1(O[H])C(=O)C3(O[H])C(=O)C(=O)C([H])(C([H])([H])[H])C4(O[H])S(=O)C5([H])C([H])(O[H])C4(C([H])([H])[H])C1(C([H])([H])[H])C3([H])C1([H])OC1(C([H])([H])[H])C52[H]

$$$$
64:2:0
     RDKit          3D

 82 88  0  0  1  0  0  0  0  0999 V2000
    4.6697   -0.6484   10.3940 C   0  0  0  0  0  0  0  0  0  0  0  0
    4.0714   -0.5680    9.1048 O   0  0  0  0  0  0  0  0  0  0  0  0
    4.6191    0.2125    8.1560 C   0  0  0  0  0  0  0  0  0  0  0  0
    5.6048    0.9243    8.3733 O   0  0  0  0  0  0  0  0  0  0  0  0
    3.8795    0.1943    6.7600 C   0  0  1  0  0  0  0  0  0  0  0  0
    4.8298    0.8005    5.9093 O   0  0  0  0  0  0  0  0  0  0  0  0
    3.9237   -1.3659    6.2067 C   0  0  1  0  0  0  0  0  0  0  0  0
    5.1389   -1.9489    6.6999 O   0  0  0  0  0  0  0  0  0  0  0  0
    2.8438   -2.4146    6.6021 C   0  0  1  0  0  0  0  0  0  0  0  0
    2.0372   -2.1629    7.7382 O   0  0  0  0  0  0  0  0  0  0  0  0
    2.1824   -2.9146    5.2412 C   0  0  1  0  0  0  0  0  0  0  0  0
    0.8388   -3.3695    5.1928 O   0  0  0  0  0  0  0  0  0  0  0  0
    2.7114   -2.1069    3.9958 C   0  0  1  0  0  0  0  0  0  0  0  0
    2.8570   -3.2092    2.8881 C   0  0  0  0  0  0  0  0  0  0  0  0
    3.6078   -2.8050    1.7807 O   0  0  0  0  0  0  0  0  0  0  0  0
    1.9008   -0.8210    3.3852 C   0  0  1  0  0  0  0  0  0  0  0  0
    0.3741   -0.5183    3.6599 C   0  0  1  0  0  0  0  0  0  0  0  0
   -0.1597   -0.2554    5.0320 C   0  0  1  0  0  0  0  0  0  0  0  0
    0.3753   -0.9614    6.0673 O   0  0  0  0  0  0  0  0  0  0  0  0
   -0.2067    1.1864    5.4867 C   0  0  2  0  0  0  0  0  0  0  0  0
   -1.3594    1.0204    6.6131 C   0  0  0  0  0  0  0  0  0  0  0  0
   -0.7918    2.0694    4.2350 C   0  0  1  0  0  0  0  0  0  0  0  0
   -2.1850    2.1497    4.4262 O   0  0  0  0  0  0  0  0  0  0  0  0
   -0.3955    3.6330    3.8237 C   0  0  1  0  0  0  0  0  0  0  0  0
   -1.5061    4.3566    3.0338 C   0  0  0  0  0  0  0  0  0  0  0  0
    0.3237    4.6804    4.8060 C   0  0  0  0  0  0  0  0  0  0  0  0
   -0.3984    5.5452    5.3028 O   0  0  0  0  0  0  0  0  0  0  0  0
    1.8905    4.6921    5.3014 C   0  0  0  0  0  0  0  0  0  0  0  0
    2.3700    5.8029    5.5474 O   0  0  0  0  0  0  0  0  0  0  0  0
    2.8643    3.4358    5.4362 C   0  0  1  0  0  0  0  0  0  0  0  0
    4.1258    3.7307    4.8541 O   0  0  0  0  0  0  0  0  0  0  0  0
    3.1401    2.7261    6.8156 C   0  0  0  0  0  0  0  0  0  0  0  0
    3.7049    3.2842    7.7633 O   0  0  0  0  0  0  0  0  0  0  0  0
    2.5553    1.2397    6.9091 C   0  0  2  0  0  0  0  0  0  0  0  0
    1.9734    0.8944    8.1645 O   0  0  0  0  0  0  0  0  0  0  0  0
    1.2655    1.7135    6.0075 C   0  0  2  0  0  0  0  0  0  0  0  0
    0.5204    2.7635    7.0667 C   0  0  0  0  0  0  0  0  0  0  0  0
    2.1372    2.3008    4.8187 C   0  0  2  0  0  0  0  0  0  0  0  0
    2.7748    1.7092    3.5659 C   0  0  1  0  0  0  0  0  0  0  0  0
    3.7948    0.7905    3.7191 O   0  0  0  0  0  0  0  0  0  0  0  0
    2.7269    0.3573    2.8889 C   0  0  1  0  0  0  0  0  0  0  0  0
    3.1109    0.3085    1.4086 C   0  0  0  0  0  0  0  0  0  0  0  0
   -0.4120    0.9414    2.7714 S   0  0  0  0  0  0  0  0  0  0  0  0
    0.5803    1.6466    1.8457 O   0  0  0  0  0  0  0  0  0  0  0  0
    4.0830   -1.8016    4.6848 C   0  0  1  0  0  0  0  0  0  0  0  0
    5.1563   -1.3104    3.9116 O   0  0  0  0  0  0  0  0  0  0  0  0
    4.1083   -1.3444   11.0205 H   0  0  0  0  0  0  0  0  0  0  0  0
    4.6728    0.3244   10.8944 H   0  0  0  0  0  0  0  0  0  0  0  0
    5.7003   -1.0127   10.3407 H   0  0  0  0  0  0  0  0  0  0  0  0
    4.5468    0.7160    5.0002 H   0  0  0  0  0  0  0  0  0  0  0  0
    5.2120   -2.8449    6.4043 H   0  0  0  0  0  0  0  0  0  0  0  0
    3.3466   -3.3129    6.9782 H   0  0  0  0  0  0  0  0  0  0  0  0
    1.5851   -1.3309    7.6646 H   0  0  0  0  0  0  0  0  0  0  0  0
    2.6530   -3.8979    5.1618 H   0  0  0  0  0  0  0  0  0  0  0  0
    0.3082   -2.6216    5.4629 H   0  0  0  0  0  0  0  0  0  0  0  0
    3.3934   -4.0916    3.2309 H   0  0  0  0  0  0  0  0  0  0  0  0
    1.8717   -3.5447    2.5657 H   0  0  0  0  0  0  0  0  0  0  0  0
    3.1169   -2.1547    1.3059 H   0  0  0  0  0  0  0  0  0  0  0  0
    1.6569   -1.2483    2.4184 H   0  0  0  0  0  0  0  0  0  0  0  0
   -0.1338   -1.4187    3.3111 H   0  0  0  0  0  0  0  0  0  0  0  0
   -1.1629   -0.6538    4.9486 H   0  0  0  0  0  0  0  0  0  0  0  0
    1.2581   -0.6320    6.1458 H   0  0  0  0  0  0  0  0  0  0  0  0
   -1.8646    1.9374    6.9160 H   0  0  0  0  0  0  0  0  0  0  0  0
   -0.9928    0.5451    7.5223 H   0  0  0  0  0  0  0  0  0  0  0  0
   -2.2052    0.4228    6.2846 H   0  0  0  0  0  0  0  0  0  0  0  0
   -2.6086    1.7129    3.6984 H   0  0  0  0  0  0  0  0  0  0  0  0
    0.3044    3.5673    2.9940 H   0  0  0  0  0  0  0  0  0  0  0  0
   -1.0917    5.2409    2.5414 H   0  0  0  0  0  0  0  0  0  0  0  0
   -2.3427    4.6681    3.6598 H   0  0  0  0  0  0  0  0  0  0  0  0
   -1.8892    3.7175    2.2354 H   0  0  0  0  0  0  0  0  0  0  0  0
    4.0005    3.9830    3.9607 H   0  0  0  0  0  0  0  0  0  0  0  0
    2.6455    0.9596    8.8310 H   0  0  0  0  0  0  0  0  0  0  0  0
    1.0433    3.6191    7.5014 H   0  0  0  0  0  0  0  0  0  0  0  0
    0.1633    2.3018    7.9922 H   0  0  0  0  0  0  0  0  0  0  0  0
   -0.3619    3.2561    6.6773 H   0  0  0  0  0  0  0  0  0  0  0  0
    1.5052    2.6661    4.1209 H   0  0  0  0  0  0  0  0  0  0  0  0
    3.0089    2.4917    2.8544 H   0  0  0  0  0  0  0  0  0  0  0  0
    2.2393    0.1309    0.7767 H   0  0  0  0  0  0  0  0  0  0  0  0
    3.8836   -0.4199    1.2035 H   0  0  0  0  0  0  0  0  0  0  0  0
    3.5615    1.2453    1.1128 H   0  0  0  0  0  0  0  0  0  0  0  0
    4.5001   -2.8174    4.7312 H   0  0  0  0  0  0  0  0  0  0  0  0
    5.1699   -1.7895    3.0914 H   0  0  0  0  0  0  0  0  0  0  0  0
  1  2  1  0
  1 47  1  0
  1 48  1  0
  1 49  1  0
  2  3  1  0
  3  4  2  0
  3  5  1  0
  5 34  1  0
  5  6  1  6
  5  7  1  0
  6 50  1  0
  7 45  1  0
  7  8  1  1
  7  9  1  0
  8 51  1  0
  9 10  1  0
  9 11  1  0
  9 52  1  1
 10 53  1  0
 11 12  1  0
 11 13  1  0
 11 54  1  6
 12 55  1  0
 13 14  1  6
 13 16  1  0
 13 45  1  0
 14 15  1  0
 14 56  1  0
 14 57  1  0
 15 58  1  0
 16 41  1  0
 16 17  1  0
 16 59  1  6
 17 43  1  0
 17 18  1  0
 17 60  1  6
 18 19  1  0
 18 20  1  0
 18 61  1  6
 19 62  1  0
 20 36  1  0
 20 21  1  1
 20 22  1  0
 21 63  1  0
 21 64  1  0
 21 65  1  0
 22 23  1  1
 22 24  1  0
 43 22  1  1
 23 66  1  0
 24 25  1  0
 24 26  1  0
 24 67  1  6
 25 68  1  0
 25 69  1  0
 25 70  1  0
 26 27  2  0
 26 28  1  0
 28 29  2  0
 28 30  1  0
 30 38  1  0
 30 31  1  6
 30 32  1  0
 31 71  1  0
 32 33  2  0
 32 34  1  0
 34 35  1  1
 34 36  1  0
 35 72  1  0
 36 37  1  1
 36 38  1  0
 37 73  1  0
 37 74  1  0
 37 75  1  0
 38 39  1  0
 38 76  1  6
 39 41  1  0
 39 40  1  0
 39 77  1  6
 40 41  1  0
 41 42  1  6
 42 78  1  0
 42 79  1  0
 42 80  1  0
 43 44  2  0
 45 46  1  0
 45 81  1  1
 46 82  1  0
M  END
>  <i_m_ct_stereo_status>  (130) 
1

>  <s_m_source_file>  (130) 
/var/tmp/pbs.5075288.sched01/tmp4tfr24xl/130i3iej58d.sdf

>  <i_m_source_file_index>  (130) 
31

>  <i_lp_mmshare_version>  (130) 
48012

>  <i_f3d_flags>  (130) 
0

>  <s_epik_input>  (130) 
W0NIM11PQyg9TylbQ0BAXShbT0hdKShbQ0BAXTEyW09IXSlbQ0BdMyhbT0hdKVtDQF00KFtDSDNdKVtDQEBdNShbQ0gzXSlbQ0BAXTYoW09IXSlbQ0BASF0oW0NIM10pQyg9TylDKD1PKUMoW09IXSkoQzM9TylbQ0BIXTRbQ0BASF03W0NAXShPNykoW0NIM10pW0NAQEhdKFtDQEhdKFtTK102W08tXSlbQ0BIXTVbT0hdKVtDQEBdKFtDSDJdW09IXSkoW0NASF0yW09IXSlbQ0BIXShbT0hdKVtDQEBIXTFbT0hd

>  <s_epik_cmdline>  (130) 
J2VwaWtfcHl0aG9uJywgJy1waHQnLCAnMi4wJywgJy1waCcsICc3LjAnLCAnLXRuJywgJzgnLCAnLW1hJywgJzIwMCcsICctaW1hZScsICc8aW5maWxlLm1hZT4nLCAnLW9tYWUnLCAnPG91dGZpbGUubWFlPic=

>  <r_lp_tautomer_probability>  (130) 
1

>  <r_epik_Ionization_Penalty>  (130) 
3.89718e-05

>  <r_epik_Ionization_Penalty_Charging>  (130) 
0

>  <r_epik_Ionization_Penalty_Neutral>  (130) 
3.89718e-05

>  <r_epik_State_Penalty>  (130) 
-0

>  <r_epik_Charging_Adjusted_Penalty>  (130) 
0

>  <i_epik_Tot_Q>  (130) 
0

>  <i_epik_Tot_abs_Q>  (130) 
2

>  <s_epik_Chemistry_Notes>  (130) 
This compound has an ester and may undergo hydrolysis at high or low pH.

>  <s_lp_Force_Field>  (130) 
OPLS3e

>  <r_lp_Energy>  (130) 
391.84

>  <b_lp_Chiralities_Consistent>  (130) 
1

>  <s_lp_Variant>  (130) 
64:0-3

>  <s_i_glide_gridfile>  (130) 
pfpi4k_grid

>  <i_i_glide_lignum>  (130) 
31

>  <i_i_glide_rotatable_bonds>  (130) 
13

>  <r_i_docking_score>  (130) 
-4.70012

>  <r_i_glide_ligand_efficiency>  (130) 
-0.102177

>  <r_i_glide_ligand_efficiency_sa>  (130) 
-0.366104

>  <r_i_glide_ligand_efficiency_ln>  (130) 
-0.973384

>  <r_i_glide_gscore>  (130) 
-4.70012

>  <r_i_glide_lipo>  (130) 
-0.0991254

>  <r_i_glide_hbond>  (130) 
-0.150213

>  <r_i_glide_metal>  (130) 
-0

>  <r_i_glide_rewards>  (130) 
-2

>  <r_i_glide_evdw>  (130) 
-25.976

>  <r_i_glide_ecoul>  (130) 
-7.75133

>  <r_i_glide_erotb>  (130) 
0.0932432

>  <r_i_glide_esite>  (130) 
-0.0825308

>  <r_i_glide_emodel>  (130) 
-60.7896

>  <r_i_glide_energy>  (130) 
-33.7273

>  <r_i_glide_einternal>  (130) 
3.54204

>  <r_i_glide_intrahb_reward>  (130) 
-2

>  <i_i_glide_confnum>  (130) 
4

>  <i_i_glide_posenum>  (130) 
14

>  <r_i_glide_eff_state_penalty>  (130) 
0

>  <ligand_id>  (130) 
64

>  <original_smiles>  (130) 
COC(=O)C1(O)C2(O)C(O)C(O)C(CO)(C3C4C(O)C5(C)C(O)(C(C)C(=O)C(=O)C6(O)C(=O)C1(O)C5(C)C6C1OC13C)[S+]4[O-])C2O

>  <smiles>  (130) 
[H]OC([H])([H])C12C([H])(O[H])C([H])(O[H])C(O[H])(C1([H])O[H])C(O[H])(C(=O)OC([H])([H])[H])C1(O[H])C(=O)C3(O[H])C(=O)C(=O)C([H])(C([H])([H])[H])C4(O[H])S(=O)C5([H])C([H])(O[H])C4(C([H])([H])[H])C1(C([H])([H])[H])C3([H])C1([H])OC1(C([H])([H])[H])C52[H]

$$$$
64:2:1
     RDKit          3D

 82 88  0  0  1  0  0  0  0  0999 V2000
    4.0951   -5.5674    9.1406 C   0  0  0  0  0  0  0  0  0  0  0  0
    3.8671   -4.8958    7.9092 O   0  0  0  0  0  0  0  0  0  0  0  0
    4.8343   -4.1268    7.3720 C   0  0  0  0  0  0  0  0  0  0  0  0
    5.9224   -3.9365    7.9205 O   0  0  0  0  0  0  0  0  0  0  0  0
    4.4510   -3.4618    5.9819 C   0  0  1  0  0  0  0  0  0  0  0  0
    5.7110   -3.0429    5.5010 O   0  0  0  0  0  0  0  0  0  0  0  0
    4.1215   -4.6908    4.9128 C   0  0  1  0  0  0  0  0  0  0  0  0
    4.9614   -5.7947    5.2872 O   0  0  0  0  0  0  0  0  0  0  0  0
    2.7053   -5.3342    4.8051 C   0  0  1  0  0  0  0  0  0  0  0  0
    1.7996   -5.1097    5.8723 O   0  0  0  0  0  0  0  0  0  0  0  0
    2.2394   -5.1452    3.3028 C   0  0  1  0  0  0  0  0  0  0  0  0
    0.8605   -5.0595    3.0457 O   0  0  0  0  0  0  0  0  0  0  0  0
    3.2457   -4.2405    2.4791 C   0  0  1  0  0  0  0  0  0  0  0  0
    3.4289   -4.8892    1.0562 C   0  0  0  0  0  0  0  0  0  0  0  0
    2.2726   -4.8031    0.2487 O   0  0  0  0  0  0  0  0  0  0  0  0
    3.0719   -2.6251    2.2840 C   0  0  1  0  0  0  0  0  0  0  0  0
    1.7206   -1.8300    2.4776 C   0  0  1  0  0  0  0  0  0  0  0  0
    0.9952   -1.8132    3.7862 C   0  0  1  0  0  0  0  0  0  0  0  0
    1.0585   -2.9421    4.5525 O   0  0  0  0  0  0  0  0  0  0  0  0
    1.3181   -0.6611    4.7160 C   0  0  2  0  0  0  0  0  0  0  0  0
   -0.0513   -0.6933    5.5785 C   0  0  0  0  0  0  0  0  0  0  0  0
    1.3502    0.7051    3.8004 C   0  0  1  0  0  0  0  0  0  0  0  0
    0.0455    1.2575    3.8323 O   0  0  0  0  0  0  0  0  0  0  0  0
    2.3252    2.0381    4.0146 C   0  0  1  0  0  0  0  0  0  0  0  0
    1.7426    3.3288    3.3984 C   0  0  0  0  0  0  0  0  0  0  0  0
    3.0922    2.3929    5.3753 C   0  0  0  0  0  0  0  0  0  0  0  0
    2.6074    3.2934    6.0697 O   0  0  0  0  0  0  0  0  0  0  0  0
    4.4398    1.6765    5.9859 C   0  0  0  0  0  0  0  0  0  0  0  0
    5.1747    2.3928    6.6666 O   0  0  0  0  0  0  0  0  0  0  0  0
    4.8920    0.1571    5.7613 C   0  0  1  0  0  0  0  0  0  0  0  0
    6.2688    0.1451    5.4201 O   0  0  0  0  0  0  0  0  0  0  0  0
    4.6162   -0.9704    6.8458 C   0  0  0  0  0  0  0  0  0  0  0  0
    5.1155   -0.9690    7.9700 O   0  0  0  0  0  0  0  0  0  0  0  0
    3.5505   -2.0707    6.3466 C   0  0  2  0  0  0  0  0  0  0  0  0
    2.6450   -2.5112    7.3559 O   0  0  0  0  0  0  0  0  0  0  0  0
    2.7219   -0.9016    5.5409 C   0  0  2  0  0  0  0  0  0  0  0  0
    2.1450   -0.0047    6.8186 C   0  0  0  0  0  0  0  0  0  0  0  0
    3.9919   -0.3985    4.7228 C   0  0  2  0  0  0  0  0  0  0  0  0
    4.6815   -0.8002    3.4106 C   0  0  1  0  0  0  0  0  0  0  0  0
    5.3042   -2.0365    3.3241 O   0  0  0  0  0  0  0  0  0  0  0  0
    4.3434   -1.7783    2.3061 C   0  0  1  0  0  0  0  0  0  0  0  0
    5.0007   -1.5825    0.9398 C   0  0  0  0  0  0  0  0  0  0  0  0
    1.6977    0.0114    2.0815 S   0  0  0  0  0  0  0  0  0  0  0  0
    3.0341    0.5354    1.5638 O   0  0  0  0  0  0  0  0  0  0  0  0
    4.4619   -4.6721    3.3588 C   0  0  1  0  0  0  0  0  0  0  0  0
    5.7741   -4.4336    2.8841 O   0  0  0  0  0  0  0  0  0  0  0  0
    3.2154   -6.1562    9.4050 H   0  0  0  0  0  0  0  0  0  0  0  0
    4.2807   -4.8580    9.9503 H   0  0  0  0  0  0  0  0  0  0  0  0
    4.9453   -6.2511    9.0772 H   0  0  0  0  0  0  0  0  0  0  0  0
    5.5927   -2.7105    4.6180 H   0  0  0  0  0  0  0  0  0  0  0  0
    4.8030   -6.5247    4.7054 H   0  0  0  0  0  0  0  0  0  0  0  0
    2.7983   -6.4183    4.8998 H   0  0  0  0  0  0  0  0  0  0  0  0
    1.5927   -4.1876    5.9612 H   0  0  0  0  0  0  0  0  0  0  0  0
    2.3929   -6.1428    2.8888 H   0  0  0  0  0  0  0  0  0  0  0  0
    0.5743   -4.2442    3.4521 H   0  0  0  0  0  0  0  0  0  0  0  0
    4.2468   -4.4193    0.5154 H   0  0  0  0  0  0  0  0  0  0  0  0
    3.6942   -5.9456    1.1059 H   0  0  0  0  0  0  0  0  0  0  0  0
    2.5045   -5.0890   -0.6255 H   0  0  0  0  0  0  0  0  0  0  0  0
    2.9314   -2.6122    1.2053 H   0  0  0  0  0  0  0  0  0  0  0  0
    1.0282   -2.2580    1.7572 H   0  0  0  0  0  0  0  0  0  0  0  0
   -0.0422   -1.7684    3.4656 H   0  0  0  0  0  0  0  0  0  0  0  0
    1.9610   -3.0125    4.8243 H   0  0  0  0  0  0  0  0  0  0  0  0
   -0.2855    0.2192    6.1259 H   0  0  0  0  0  0  0  0  0  0  0  0
   -0.0816   -1.5175    6.2908 H   0  0  0  0  0  0  0  0  0  0  0  0
   -0.9503   -0.8035    4.9732 H   0  0  0  0  0  0  0  0  0  0  0  0
   -0.0320    1.8573    3.1029 H   0  0  0  0  0  0  0  0  0  0  0  0
    3.1440    1.9452    3.3042 H   0  0  0  0  0  0  0  0  0  0  0  0
    2.5264    4.0801    3.2860 H   0  0  0  0  0  0  0  0  0  0  0  0
    0.9499    3.7665    4.0070 H   0  0  0  0  0  0  0  0  0  0  0  0
    1.3569    3.1468    2.3951 H   0  0  0  0  0  0  0  0  0  0  0  0
    6.5431   -0.7555    5.3297 H   0  0  0  0  0  0  0  0  0  0  0  0
    3.1340   -2.9492    8.0429 H   0  0  0  0  0  0  0  0  0  0  0  0
    2.8089    0.4158    7.5736 H   0  0  0  0  0  0  0  0  0  0  0  0
    1.4564   -0.5443    7.4734 H   0  0  0  0  0  0  0  0  0  0  0  0
    1.5762    0.8721    6.5404 H   0  0  0  0  0  0  0  0  0  0  0  0
    3.6827    0.3596    4.1327 H   0  0  0  0  0  0  0  0  0  0  0  0
    5.3118    0.0128    3.0495 H   0  0  0  0  0  0  0  0  0  0  0  0
    4.2975   -1.1766    0.2123 H   0  0  0  0  0  0  0  0  0  0  0  0
    5.3893   -2.5215    0.5599 H   0  0  0  0  0  0  0  0  0  0  0  0
    5.8341   -0.8853    1.0076 H   0  0  0  0  0  0  0  0  0  0  0  0
    4.5203   -5.7350    3.1016 H   0  0  0  0  0  0  0  0  0  0  0  0
    5.9285   -3.5009    2.9674 H   0  0  0  0  0  0  0  0  0  0  0  0
  1  2  1  0
  1 47  1  0
  1 48  1  0
  1 49  1  0
  2  3  1  0
  3  4  2  0
  3  5  1  0
  5 34  1  0
  5  6  1  6
  5  7  1  0
  6 50  1  0
  7 45  1  0
  7  8  1  1
  7  9  1  0
  8 51  1  0
  9 10  1  0
  9 11  1  0
  9 52  1  6
 10 53  1  0
 11 12  1  0
 11 13  1  0
 11 54  1  6
 12 55  1  0
 13 14  1  6
 13 16  1  0
 13 45  1  0
 14 15  1  0
 14 56  1  0
 14 57  1  0
 15 58  1  0
 16 41  1  0
 16 17  1  0
 16 59  1  6
 17 43  1  0
 17 18  1  0
 17 60  1  6
 18 19  1  0
 18 20  1  0
 18 61  1  6
 19 62  1  0
 20 36  1  0
 20 21  1  1
 20 22  1  0
 21 63  1  0
 21 64  1  0
 21 65  1  0
 22 23  1  6
 22 24  1  0
 43 22  1  1
 23 66  1  0
 24 25  1  0
 24 26  1  0
 24 67  1  6
 25 68  1  0
 25 69  1  0
 25 70  1  0
 26 27  2  0
 26 28  1  0
 28 29  2  0
 28 30  1  0
 30 38  1  0
 30 31  1  6
 30 32  1  0
 31 71  1  0
 32 33  2  0
 32 34  1  0
 34 35  1  1
 34 36  1  0
 35 72  1  0
 36 37  1  1
 36 38  1  0
 37 73  1  0
 37 74  1  0
 37 75  1  0
 38 39  1  0
 38 76  1  6
 39 41  1  0
 39 40  1  0
 39 77  1  6
 40 41  1  0
 41 42  1  6
 42 78  1  0
 42 79  1  0
 42 80  1  0
 43 44  2  0
 45 46  1  0
 45 81  1  6
 46 82  1  0
M  END
>  <i_m_ct_stereo_status>  (131) 
1

>  <s_m_source_file>  (131) 
/var/tmp/pbs.5075288.sched01/tmp4tfr24xl/130i3iej58d.sdf

>  <i_m_source_file_index>  (131) 
31

>  <i_lp_mmshare_version>  (131) 
48012

>  <i_f3d_flags>  (131) 
0

>  <s_epik_input>  (131) 
W0NIM11PQyg9TylbQ0BAXShbT0hdKShbQ0BAXTEyW09IXSlbQ0BdMyhbT0hdKVtDQF00KFtDSDNdKVtDQEBdNShbQ0gzXSlbQ0BAXTYoW09IXSlbQ0BASF0oW0NIM10pQyg9TylDKD1PKUMoW09IXSkoQzM9TylbQ0BIXTRbQ0BASF03W0NAXShPNykoW0NIM10pW0NAQEhdKFtDQEhdKFtTK102W08tXSlbQ0BIXTVbT0hdKVtDQEBdKFtDSDJdW09IXSkoW0NASF0yW09IXSlbQ0BIXShbT0hdKVtDQEBIXTFbT0hd

>  <s_epik_cmdline>  (131) 
J2VwaWtfcHl0aG9uJywgJy1waHQnLCAnMi4wJywgJy1waCcsICc3LjAnLCAnLXRuJywgJzgnLCAnLW1hJywgJzIwMCcsICctaW1hZScsICc8aW5maWxlLm1hZT4nLCAnLW9tYWUnLCAnPG91dGZpbGUubWFlPic=

>  <r_lp_tautomer_probability>  (131) 
1

>  <r_epik_Ionization_Penalty>  (131) 
3.89718e-05

>  <r_epik_Ionization_Penalty_Charging>  (131) 
0

>  <r_epik_Ionization_Penalty_Neutral>  (131) 
3.89718e-05

>  <r_epik_State_Penalty>  (131) 
-0

>  <r_epik_Charging_Adjusted_Penalty>  (131) 
0

>  <i_epik_Tot_Q>  (131) 
0

>  <i_epik_Tot_abs_Q>  (131) 
2

>  <s_epik_Chemistry_Notes>  (131) 
This compound has an ester and may undergo hydrolysis at high or low pH.

>  <s_lp_Force_Field>  (131) 
OPLS3e

>  <r_lp_Energy>  (131) 
391.84

>  <b_lp_Chiralities_Consistent>  (131) 
1

>  <s_lp_Variant>  (131) 
64:0-3

>  <s_i_glide_gridfile>  (131) 
pfpi4k_grid

>  <i_i_glide_lignum>  (131) 
31

>  <i_i_glide_rotatable_bonds>  (131) 
13

>  <r_i_docking_score>  (131) 
-4.41501

>  <r_i_glide_ligand_efficiency>  (131) 
-0.0959784

>  <r_i_glide_ligand_efficiency_sa>  (131) 
-0.343895

>  <r_i_glide_ligand_efficiency_ln>  (131) 
-0.914337

>  <r_i_glide_gscore>  (131) 
-4.41501

>  <r_i_glide_lipo>  (131) 
-0.187301

>  <r_i_glide_hbond>  (131) 
0

>  <r_i_glide_metal>  (131) 
-0

>  <r_i_glide_rewards>  (131) 
-2.00166

>  <r_i_glide_evdw>  (131) 
-22.0938

>  <r_i_glide_ecoul>  (131) 
-7.73892

>  <r_i_glide_erotb>  (131) 
0.0932432

>  <r_i_glide_esite>  (131) 
-0.0537581

>  <r_i_glide_emodel>  (131) 
-56.6477

>  <r_i_glide_energy>  (131) 
-29.8328

>  <r_i_glide_einternal>  (131) 
3.06158

>  <r_i_glide_intrahb_reward>  (131) 
-2

>  <i_i_glide_confnum>  (131) 
1

>  <i_i_glide_posenum>  (131) 
7

>  <r_i_glide_eff_state_penalty>  (131) 
0

>  <ligand_id>  (131) 
64

>  <original_smiles>  (131) 
COC(=O)C1(O)C2(O)C(O)C(O)C(CO)(C3C4C(O)C5(C)C(O)(C(C)C(=O)C(=O)C6(O)C(=O)C1(O)C5(C)C6C1OC13C)[S+]4[O-])C2O

>  <smiles>  (131) 
[H]OC([H])([H])C12C([H])(O[H])C([H])(O[H])C(O[H])(C1([H])O[H])C(O[H])(C(=O)OC([H])([H])[H])C1(O[H])C(=O)C3(O[H])C(=O)C(=O)C([H])(C([H])([H])[H])C4(O[H])S(=O)C5([H])C([H])(O[H])C4(C([H])([H])[H])C1(C([H])([H])[H])C3([H])C1([H])OC1(C([H])([H])[H])C52[H]

$$$$
64:2:2
     RDKit          3D

 82 88  0  0  1  0  0  0  0  0999 V2000
    6.1204   -3.9386    9.4191 C   0  0  0  0  0  0  0  0  0  0  0  0
    5.7112   -3.5109    8.1318 O   0  0  0  0  0  0  0  0  0  0  0  0
    4.6224   -4.0343    7.5196 C   0  0  0  0  0  0  0  0  0  0  0  0
    3.9080   -4.9014    8.0233 O   0  0  0  0  0  0  0  0  0  0  0  0
    4.2871   -3.3871    6.1108 C   0  0  1  0  0  0  0  0  0  0  0  0
    5.5454   -2.9235    5.6748 O   0  0  0  0  0  0  0  0  0  0  0  0
    4.0384   -4.6197    5.0190 C   0  0  1  0  0  0  0  0  0  0  0  0
    4.9023   -5.6941    5.4173 O   0  0  0  0  0  0  0  0  0  0  0  0
    2.6492   -5.3076    4.8394 C   0  0  1  0  0  0  0  0  0  0  0  0
    1.6919   -5.1254    5.8691 O   0  0  0  0  0  0  0  0  0  0  0  0
    2.2532   -5.1176    3.3134 C   0  0  1  0  0  0  0  0  0  0  0  0
    0.8925   -5.0686    2.9718 O   0  0  0  0  0  0  0  0  0  0  0  0
    3.2685   -4.1719    2.5497 C   0  0  1  0  0  0  0  0  0  0  0  0
    3.5443   -4.7965    1.1309 C   0  0  0  0  0  0  0  0  0  0  0  0
    2.4101   -4.7644    0.2862 O   0  0  0  0  0  0  0  0  0  0  0  0
    3.0518   -2.5613    2.3605 C   0  0  1  0  0  0  0  0  0  0  0  0
    1.6682   -1.8140    2.4926 C   0  0  1  0  0  0  0  0  0  0  0  0
    0.8749   -1.8384    3.7633 C   0  0  1  0  0  0  0  0  0  0  0  0
    0.9366   -2.9740    4.5223 O   0  0  0  0  0  0  0  0  0  0  0  0
    1.1137   -0.6886    4.7206 C   0  0  2  0  0  0  0  0  0  0  0  0
   -0.2978   -0.7731    5.5092 C   0  0  0  0  0  0  0  0  0  0  0  0
    1.1476    0.6914    3.8215 C   0  0  1  0  0  0  0  0  0  0  0  0
   -0.1767    1.2016    3.7916 O   0  0  0  0  0  0  0  0  0  0  0  0
    2.0637    2.0546    4.1030 C   0  0  1  0  0  0  0  0  0  0  0  0
    1.4691    3.3361    3.4799 C   0  0  0  0  0  0  0  0  0  0  0  0
    2.7498    2.4165    5.5051 C   0  0  0  0  0  0  0  0  0  0  0  0
    2.1975    3.2865    6.1839 O   0  0  0  0  0  0  0  0  0  0  0  0
    4.0893    1.7363    6.1715 C   0  0  0  0  0  0  0  0  0  0  0  0
    4.7616    2.4647    6.9053 O   0  0  0  0  0  0  0  0  0  0  0  0
    4.6038    0.2346    5.9507 C   0  0  1  0  0  0  0  0  0  0  0  0
    6.0012    0.2503    5.6865 O   0  0  0  0  0  0  0  0  0  0  0  0
    4.3024   -0.8995    7.0165 C   0  0  0  0  0  0  0  0  0  0  0  0
    4.6958   -0.8486    8.1829 O   0  0  0  0  0  0  0  0  0  0  0  0
    3.3115   -2.0411    6.4510 C   0  0  2  0  0  0  0  0  0  0  0  0
    2.3765   -2.5339    7.4102 O   0  0  0  0  0  0  0  0  0  0  0  0
    2.4810   -0.8917    5.6166 C   0  0  2  0  0  0  0  0  0  0  0  0
    1.8053   -0.0310    6.8717 C   0  0  0  0  0  0  0  0  0  0  0  0
    3.7722   -0.3386    4.8675 C   0  0  2  0  0  0  0  0  0  0  0  0
    4.5368   -0.6949    3.5869 C   0  0  1  0  0  0  0  0  0  0  0  0
    5.2048   -1.9060    3.5109 O   0  0  0  0  0  0  0  0  0  0  0  0
    4.2903   -1.6721    2.4533 C   0  0  1  0  0  0  0  0  0  0  0  0
    5.0147   -1.4382    1.1311 C   0  0  0  0  0  0  0  0  0  0  0  0
    1.6040    0.0286    2.1154 S   0  0  0  0  0  0  0  0  0  0  0  0
    2.9534    0.6018    1.6747 O   0  0  0  0  0  0  0  0  0  0  0  0
    4.4465   -4.5756    3.4830 C   0  0  1  0  0  0  0  0  0  0  0  0
    5.7647   -4.2899    3.0715 O   0  0  0  0  0  0  0  0  0  0  0  0
    6.9679   -3.3298    9.7433 H   0  0  0  0  0  0  0  0  0  0  0  0
    6.4470   -4.9798    9.4030 H   0  0  0  0  0  0  0  0  0  0  0  0
    5.3321   -3.8220   10.1663 H   0  0  0  0  0  0  0  0  0  0  0  0
    5.4354   -2.5829    4.7930 H   0  0  0  0  0  0  0  0  0  0  0  0
    4.7645   -6.4331    4.8404 H   0  0  0  0  0  0  0  0  0  0  0  0
    2.7725   -6.3896    4.9254 H   0  0  0  0  0  0  0  0  0  0  0  0
    1.4207   -4.2184    5.9317 H   0  0  0  0  0  0  0  0  0  0  0  0
    2.4601   -6.1058    2.8955 H   0  0  0  0  0  0  0  0  0  0  0  0
    0.5620   -4.2552    3.3472 H   0  0  0  0  0  0  0  0  0  0  0  0
    4.3571   -4.2793    0.6245 H   0  0  0  0  0  0  0  0  0  0  0  0
    3.8680   -5.8370    1.1860 H   0  0  0  0  0  0  0  0  0  0  0  0
    2.6623   -5.1000   -0.5665 H   0  0  0  0  0  0  0  0  0  0  0  0
    2.9668   -2.5422    1.2752 H   0  0  0  0  0  0  0  0  0  0  0  0
    1.0289   -2.2587    1.7338 H   0  0  0  0  0  0  0  0  0  0  0  0
   -0.1464   -1.8164    3.3877 H   0  0  0  0  0  0  0  0  0  0  0  0
    1.8180   -3.0067    4.8665 H   0  0  0  0  0  0  0  0  0  0  0  0
   -0.5922    0.1256    6.0526 H   0  0  0  0  0  0  0  0  0  0  0  0
   -0.3398   -1.6068    6.2100 H   0  0  0  0  0  0  0  0  0  0  0  0
   -1.1618   -0.9025    4.8540 H   0  0  0  0  0  0  0  0  0  0  0  0
   -0.2585    1.7513    3.0229 H   0  0  0  0  0  0  0  0  0  0  0  0
    2.9192    1.9979    3.4352 H   0  0  0  0  0  0  0  0  0  0  0  0
    2.2329    4.1129    3.4127 H   0  0  0  0  0  0  0  0  0  0  0  0
    0.6326    3.7365    4.0520 H   0  0  0  0  0  0  0  0  0  0  0  0
    1.1332    3.1487    2.4632 H   0  0  0  0  0  0  0  0  0  0  0  0
    6.2988   -0.6467    5.6006 H   0  0  0  0  0  0  0  0  0  0  0  0
    2.8426   -2.9440    8.1297 H   0  0  0  0  0  0  0  0  0  0  0  0
    2.4116    0.4080    7.6649 H   0  0  0  0  0  0  0  0  0  0  0  0
    1.1076   -0.6090    7.4823 H   0  0  0  0  0  0  0  0  0  0  0  0
    1.2212    0.8303    6.5742 H   0  0  0  0  0  0  0  0  0  0  0  0
    3.4702    0.4167    4.2710 H   0  0  0  0  0  0  0  0  0  0  0  0
    5.1622    0.1407    3.2721 H   0  0  0  0  0  0  0  0  0  0  0  0
    4.3366   -1.0458    0.3739 H   0  0  0  0  0  0  0  0  0  0  0  0
    5.4540   -2.3606    0.7700 H   0  0  0  0  0  0  0  0  0  0  0  0
    5.8205   -0.7142    1.2548 H   0  0  0  0  0  0  0  0  0  0  0  0
    4.5527   -5.6340    3.2234 H   0  0  0  0  0  0  0  0  0  0  0  0
    5.8879   -3.3553    3.1839 H   0  0  0  0  0  0  0  0  0  0  0  0
  1  2  1  0
  1 47  1  0
  1 48  1  0
  1 49  1  0
  2  3  1  0
  3  4  2  0
  3  5  1  0
  5 34  1  0
  5  6  1  6
  5  7  1  0
  6 50  1  0
  7 45  1  0
  7  8  1  1
  7  9  1  0
  8 51  1  0
  9 10  1  0
  9 11  1  0
  9 52  1  6
 10 53  1  0
 11 12  1  0
 11 13  1  0
 11 54  1  6
 12 55  1  0
 13 14  1  6
 13 16  1  0
 13 45  1  0
 14 15  1  0
 14 56  1  0
 14 57  1  0
 15 58  1  0
 16 41  1  0
 16 17  1  0
 16 59  1  6
 17 43  1  0
 17 18  1  0
 17 60  1  6
 18 19  1  0
 18 20  1  0
 18 61  1  6
 19 62  1  0
 20 36  1  0
 20 21  1  1
 20 22  1  0
 21 63  1  0
 21 64  1  0
 21 65  1  0
 22 23  1  6
 22 24  1  0
 43 22  1  1
 23 66  1  0
 24 25  1  0
 24 26  1  0
 24 67  1  6
 25 68  1  0
 25 69  1  0
 25 70  1  0
 26 27  2  0
 26 28  1  0
 28 29  2  0
 28 30  1  0
 30 38  1  0
 30 31  1  6
 30 32  1  0
 31 71  1  0
 32 33  2  0
 32 34  1  0
 34 35  1  1
 34 36  1  0
 35 72  1  0
 36 37  1  1
 36 38  1  0
 37 73  1  0
 37 74  1  0
 37 75  1  0
 38 39  1  0
 38 76  1  6
 39 41  1  0
 39 40  1  0
 39 77  1  6
 40 41  1  0
 41 42  1  6
 42 78  1  0
 42 79  1  0
 42 80  1  0
 43 44  2  0
 45 46  1  0
 45 81  1  6
 46 82  1  0
M  END
>  <i_m_ct_stereo_status>  (132) 
1

>  <s_m_source_file>  (132) 
/var/tmp/pbs.5075288.sched01/tmp4tfr24xl/130i3iej58d.sdf

>  <i_m_source_file_index>  (132) 
31

>  <i_lp_mmshare_version>  (132) 
48012

>  <i_f3d_flags>  (132) 
0

>  <s_epik_input>  (132) 
W0NIM11PQyg9TylbQ0BAXShbT0hdKShbQ0BAXTEyW09IXSlbQ0BdMyhbT0hdKVtDQF00KFtDSDNdKVtDQEBdNShbQ0gzXSlbQ0BAXTYoW09IXSlbQ0BASF0oW0NIM10pQyg9TylDKD1PKUMoW09IXSkoQzM9TylbQ0BIXTRbQ0BASF03W0NAXShPNykoW0NIM10pW0NAQEhdKFtDQEhdKFtTK102W08tXSlbQ0BIXTVbT0hdKVtDQEBdKFtDSDJdW09IXSkoW0NASF0yW09IXSlbQ0BIXShbT0hdKVtDQEBIXTFbT0hd

>  <s_epik_cmdline>  (132) 
J2VwaWtfcHl0aG9uJywgJy1waHQnLCAnMi4wJywgJy1waCcsICc3LjAnLCAnLXRuJywgJzgnLCAnLW1hJywgJzIwMCcsICctaW1hZScsICc8aW5maWxlLm1hZT4nLCAnLW9tYWUnLCAnPG91dGZpbGUubWFlPic=

>  <r_lp_tautomer_probability>  (132) 
1

>  <r_epik_Ionization_Penalty>  (132) 
3.89718e-05

>  <r_epik_Ionization_Penalty_Charging>  (132) 
0

>  <r_epik_Ionization_Penalty_Neutral>  (132) 
3.89718e-05

>  <r_epik_State_Penalty>  (132) 
-0

>  <r_epik_Charging_Adjusted_Penalty>  (132) 
0

>  <i_epik_Tot_Q>  (132) 
0

>  <i_epik_Tot_abs_Q>  (132) 
2

>  <s_epik_Chemistry_Notes>  (132) 
This compound has an ester and may undergo hydrolysis at high or low pH.

>  <s_lp_Force_Field>  (132) 
OPLS3e

>  <r_lp_Energy>  (132) 
391.84

>  <b_lp_Chiralities_Consistent>  (132) 
1

>  <s_lp_Variant>  (132) 
64:0-3

>  <s_i_glide_gridfile>  (132) 
pfpi4k_grid

>  <i_i_glide_lignum>  (132) 
31

>  <i_i_glide_rotatable_bonds>  (132) 
13

>  <r_i_docking_score>  (132) 
-4.37787

>  <r_i_glide_ligand_efficiency>  (132) 
-0.0951712

>  <r_i_glide_ligand_efficiency_sa>  (132) 
-0.341003

>  <r_i_glide_ligand_efficiency_ln>  (132) 
-0.906647

>  <r_i_glide_gscore>  (132) 
-4.37787

>  <r_i_glide_lipo>  (132) 
-0.168915

>  <r_i_glide_hbond>  (132) 
0

>  <r_i_glide_metal>  (132) 
-0

>  <r_i_glide_rewards>  (132) 
-2

>  <r_i_glide_evdw>  (132) 
-21.4885

>  <r_i_glide_ecoul>  (132) 
-7.82868

>  <r_i_glide_erotb>  (132) 
0.0932432

>  <r_i_glide_esite>  (132) 
-0.0534742

>  <r_i_glide_emodel>  (132) 
-54.1903

>  <r_i_glide_energy>  (132) 
-29.3172

>  <r_i_glide_einternal>  (132) 
6.24832

>  <r_i_glide_intrahb_reward>  (132) 
-2

>  <i_i_glide_confnum>  (132) 
2

>  <i_i_glide_posenum>  (132) 
11

>  <r_i_glide_eff_state_penalty>  (132) 
0

>  <ligand_id>  (132) 
64

>  <original_smiles>  (132) 
COC(=O)C1(O)C2(O)C(O)C(O)C(CO)(C3C4C(O)C5(C)C(O)(C(C)C(=O)C(=O)C6(O)C(=O)C1(O)C5(C)C6C1OC13C)[S+]4[O-])C2O

>  <smiles>  (132) 
[H]OC([H])([H])C12C([H])(O[H])C([H])(O[H])C(O[H])(C1([H])O[H])C(O[H])(C(=O)OC([H])([H])[H])C1(O[H])C(=O)C3(O[H])C(=O)C(=O)C([H])(C([H])([H])[H])C4(O[H])S(=O)C5([H])C([H])(O[H])C4(C([H])([H])[H])C1(C([H])([H])[H])C3([H])C1([H])OC1(C([H])([H])[H])C52[H]

$$$$
64:3:0
     RDKit          3D

 82 88  0  0  1  0  0  0  0  0999 V2000
    0.0124    0.1441   11.2957 C   0  0  0  0  0  0  0  0  0  0  0  0
    0.1124    0.3849    9.9062 O   0  0  0  0  0  0  0  0  0  0  0  0
   -0.3825    1.5304    9.3525 C   0  0  0  0  0  0  0  0  0  0  0  0
   -1.0036    2.3708    9.9953 O   0  0  0  0  0  0  0  0  0  0  0  0
   -0.1768    1.6447    7.7626 C   0  0  1  0  0  0  0  0  0  0  0  0
   -1.4148    1.1323    7.3473 O   0  0  0  0  0  0  0  0  0  0  0  0
   -0.2930    3.2635    7.2966 C   0  0  1  0  0  0  0  0  0  0  0  0
   -1.0936    4.0384    8.1908 O   0  0  0  0  0  0  0  0  0  0  0  0
    1.0008    4.1175    7.2308 C   0  0  1  0  0  0  0  0  0  0  0  0
    2.1035    3.4003    7.7195 O   0  0  0  0  0  0  0  0  0  0  0  0
    0.9917    4.7223    5.7847 C   0  0  1  0  0  0  0  0  0  0  0  0
    2.1831    5.2119    5.2147 O   0  0  0  0  0  0  0  0  0  0  0  0
   -0.0129    3.9786    4.8345 C   0  0  1  0  0  0  0  0  0  0  0  0
   -0.4459    5.0271    3.7430 C   0  0  0  0  0  0  0  0  0  0  0  0
   -1.7509    4.8752    3.2145 O   0  0  0  0  0  0  0  0  0  0  0  0
    0.4590    2.5740    4.2609 C   0  0  2  0  0  0  0  0  0  0  0  0
    1.7910    2.4037    3.4394 C   0  0  1  0  0  0  0  0  0  0  0  0
    2.9587    2.0602    4.3467 C   0  0  1  0  0  0  0  0  0  0  0  0
    3.3620    2.9538    5.3408 O   0  0  0  0  0  0  0  0  0  0  0  0
    2.9795    0.5870    4.8501 C   0  0  2  0  0  0  0  0  0  0  0  0
    4.4840    0.5996    5.4200 C   0  0  0  0  0  0  0  0  0  0  0  0
    2.9472   -0.2975    3.4644 C   0  0  1  0  0  0  0  0  0  0  0  0
    4.2906   -0.4449    3.0239 O   0  0  0  0  0  0  0  0  0  0  0  0
    2.3331   -1.8416    3.2102 C   0  0  1  0  0  0  0  0  0  0  0  0
    2.9612   -2.5954    2.0207 C   0  0  0  0  0  0  0  0  0  0  0  0
    1.9895   -2.9007    4.3600 C   0  0  0  0  0  0  0  0  0  0  0  0
    2.7765   -3.8397    4.5340 O   0  0  0  0  0  0  0  0  0  0  0  0
    0.6930   -2.8745    5.3686 C   0  0  0  0  0  0  0  0  0  0  0  0
    0.2821   -3.9545    5.7871 O   0  0  0  0  0  0  0  0  0  0  0  0
   -0.0395   -1.5478    5.8886 C   0  0  1  0  0  0  0  0  0  0  0  0
   -1.4485   -1.7576    5.8442 O   0  0  0  0  0  0  0  0  0  0  0  0
    0.3040   -0.9796    7.3284 C   0  0  0  0  0  0  0  0  0  0  0  0
    0.2022   -1.6875    8.3063 O   0  0  0  0  0  0  0  0  0  0  0  0
    1.0015    0.5073    7.2674 C   0  0  2  0  0  0  0  0  0  0  0  0
    2.0371    0.7540    8.2225 O   0  0  0  0  0  0  0  0  0  0  0  0
    1.8058    0.0592    5.8958 C   0  0  2  0  0  0  0  0  0  0  0  0
    2.8416   -1.0932    6.5062 C   0  0  0  0  0  0  0  0  0  0  0  0
    0.4660   -0.4106    5.1262 C   0  0  2  0  0  0  0  0  0  0  0  0
   -0.6094    0.2583    4.2587 C   0  0  1  0  0  0  0  0  0  0  0  0
   -1.5328    1.1588    4.7935 O   0  0  0  0  0  0  0  0  0  0  0  0
   -0.6512    1.6736    3.7857 C   0  0  1  0  0  0  0  0  0  0  0  0
   -1.3154    1.9765    2.4497 C   0  0  0  0  0  0  0  0  0  0  0  0
    2.0256    0.8895    2.3169 S   0  0  0  0  0  0  0  0  0  0  0  0
    0.7297    0.2050    1.8768 O   0  0  0  0  0  0  0  0  0  0  0  0
   -1.0473    3.7601    5.9795 C   0  0  1  0  0  0  0  0  0  0  0  0
   -2.3563    3.2944    5.7029 O   0  0  0  0  0  0  0  0  0  0  0  0
    0.5408   -0.7923   11.4660 H   0  0  0  0  0  0  0  0  0  0  0  0
   -1.0148    0.0083   11.6356 H   0  0  0  0  0  0  0  0  0  0  0  0
    0.4916    0.9132   11.9081 H   0  0  0  0  0  0  0  0  0  0  0  0
   -1.4587    1.2626    6.4132 H   0  0  0  0  0  0  0  0  0  0  0  0
   -1.0040    3.7132    9.0907 H   0  0  0  0  0  0  0  0  0  0  0  0
    0.9668    4.9645    7.9235 H   0  0  0  0  0  0  0  0  0  0  0  0
    2.0070    3.3700    8.6638 H   0  0  0  0  0  0  0  0  0  0  0  0
    0.5247    5.6855    6.0000 H   0  0  0  0  0  0  0  0  0  0  0  0
    1.9654    5.8314    4.5347 H   0  0  0  0  0  0  0  0  0  0  0  0
   -0.4303    6.0414    4.1616 H   0  0  0  0  0  0  0  0  0  0  0  0
    0.2772    5.0251    2.9217 H   0  0  0  0  0  0  0  0  0  0  0  0
   -1.7408    4.1601    2.5952 H   0  0  0  0  0  0  0  0  0  0  0  0
    0.7285    2.1260    5.1974 H   0  0  0  0  0  0  0  0  0  0  0  0
    1.9574    3.3096    2.8483 H   0  0  0  0  0  0  0  0  0  0  0  0
    3.7838    2.1737    3.6447 H   0  0  0  0  0  0  0  0  0  0  0  0
    3.1658    3.8488    5.0691 H   0  0  0  0  0  0  0  0  0  0  0  0
    5.0026   -0.3589    5.4563 H   0  0  0  0  0  0  0  0  0  0  0  0
    4.5359    1.0406    6.4133 H   0  0  0  0  0  0  0  0  0  0  0  0
    5.1725    1.1843    4.8102 H   0  0  0  0  0  0  0  0  0  0  0  0
    4.3223   -0.1961    2.1119 H   0  0  0  0  0  0  0  0  0  0  0  0
    1.3582   -1.7179    2.7425 H   0  0  0  0  0  0  0  0  0  0  0  0
    2.3226   -3.4320    1.7334 H   0  0  0  0  0  0  0  0  0  0  0  0
    3.9444   -2.9962    2.2633 H   0  0  0  0  0  0  0  0  0  0  0  0
    3.0371   -1.9505    1.1474 H   0  0  0  0  0  0  0  0  0  0  0  0
   -1.6989   -2.0517    4.9800 H   0  0  0  0  0  0  0  0  0  0  0  0
    2.4550    1.5881    7.9805 H   0  0  0  0  0  0  0  0  0  0  0  0
    2.4960   -1.9301    7.1045 H   0  0  0  0  0  0  0  0  0  0  0  0
    3.5904   -0.7170    7.2037 H   0  0  0  0  0  0  0  0  0  0  0  0
    3.4537   -1.5975    5.7731 H   0  0  0  0  0  0  0  0  0  0  0  0
    0.7544   -0.7715    4.2323 H   0  0  0  0  0  0  0  0  0  0  0  0
   -1.0687   -0.4426    3.5602 H   0  0  0  0  0  0  0  0  0  0  0  0
   -0.6182    2.5215    1.8108 H   0  0  0  0  0  0  0  0  0  0  0  0
   -2.2274    2.5513    2.6037 H   0  0  0  0  0  0  0  0  0  0  0  0
   -1.5415    1.0400    1.9116 H   0  0  0  0  0  0  0  0  0  0  0  0
   -1.3691    4.7918    6.1396 H   0  0  0  0  0  0  0  0  0  0  0  0
   -2.2635    2.5054    5.1804 H   0  0  0  0  0  0  0  0  0  0  0  0
  1  2  1  0
  1 47  1  0
  1 48  1  0
  1 49  1  0
  2  3  1  0
  3  4  2  0
  3  5  1  0
  5 34  1  0
  5  6  1  6
  5  7  1  0
  6 50  1  0
  7 45  1  0
  7  8  1  1
  7  9  1  0
  8 51  1  0
  9 10  1  0
  9 11  1  0
  9 52  1  1
 10 53  1  0
 11 12  1  0
 11 13  1  0
 11 54  1  1
 12 55  1  0
 13 14  1  6
 13 16  1  0
 13 45  1  0
 14 15  1  0
 14 56  1  0
 14 57  1  0
 15 58  1  0
 16 41  1  0
 16 17  1  0
 16 59  1  1
 17 43  1  0
 17 18  1  0
 17 60  1  6
 18 19  1  0
 18 20  1  0
 18 61  1  6
 19 62  1  0
 20 36  1  0
 20 21  1  1
 20 22  1  0
 21 63  1  0
 21 64  1  0
 21 65  1  0
 22 23  1  6
 22 24  1  0
 43 22  1  1
 23 66  1  0
 24 25  1  0
 24 26  1  0
 24 67  1  6
 25 68  1  0
 25 69  1  0
 25 70  1  0
 26 27  2  0
 26 28  1  0
 28 29  2  0
 28 30  1  0
 30 38  1  0
 30 31  1  1
 30 32  1  0
 31 71  1  0
 32 33  2  0
 32 34  1  0
 34 35  1  1
 34 36  1  0
 35 72  1  0
 36 37  1  1
 36 38  1  0
 37 73  1  0
 37 74  1  0
 37 75  1  0
 38 39  1  0
 38 76  1  6
 39 41  1  0
 39 40  1  0
 39 77  1  6
 40 41  1  0
 41 42  1  6
 42 78  1  0
 42 79  1  0
 42 80  1  0
 43 44  2  0
 45 46  1  0
 45 81  1  1
 46 82  1  0
M  END
>  <i_m_ct_stereo_status>  (133) 
1

>  <s_m_source_file>  (133) 
/var/tmp/pbs.5075288.sched01/tmp4tfr24xl/130i3iej58d.sdf

>  <i_m_source_file_index>  (133) 
32

>  <i_lp_mmshare_version>  (133) 
48012

>  <i_f3d_flags>  (133) 
0

>  <s_epik_input>  (133) 
W0NIM11PQyg9TylbQ0BAXShbT0hdKShbQ0BAXTEyW09IXSlbQ0BdMyhbT0hdKVtDQF00KFtDSDNdKVtDQEBdNShbQ0gzXSlbQ0BAXTYoW09IXSlbQ0BASF0oW0NIM10pQyg9TylDKD1PKUMoW09IXSkoQzM9TylbQ0BIXTRbQ0BASF03W0NAXShPNykoW0NIM10pW0NAQEhdKFtDQEhdKFtTK102W08tXSlbQ0BIXTVbT0hdKVtDQEBdKFtDSDJdW09IXSkoW0NASF0yW09IXSlbQ0BIXShbT0hdKVtDQEBIXTFbT0hd

>  <s_epik_cmdline>  (133) 
J2VwaWtfcHl0aG9uJywgJy1waHQnLCAnMi4wJywgJy1waCcsICc3LjAnLCAnLXRuJywgJzgnLCAnLW1hJywgJzIwMCcsICctaW1hZScsICc8aW5maWxlLm1hZT4nLCAnLW9tYWUnLCAnPG91dGZpbGUubWFlPic=

>  <r_lp_tautomer_probability>  (133) 
1

>  <r_epik_Ionization_Penalty>  (133) 
3.89718e-05

>  <r_epik_Ionization_Penalty_Charging>  (133) 
0

>  <r_epik_Ionization_Penalty_Neutral>  (133) 
3.89718e-05

>  <r_epik_State_Penalty>  (133) 
-0

>  <r_epik_Charging_Adjusted_Penalty>  (133) 
0

>  <i_epik_Tot_Q>  (133) 
0

>  <i_epik_Tot_abs_Q>  (133) 
2

>  <s_epik_Chemistry_Notes>  (133) 
This compound has an ester and may undergo hydrolysis at high or low pH.

>  <s_lp_Force_Field>  (133) 
OPLS3e

>  <r_lp_Energy>  (133) 
365.602

>  <b_lp_Chiralities_Consistent>  (133) 
1

>  <s_lp_Variant>  (133) 
64:0-4

>  <s_i_glide_gridfile>  (133) 
pfpi4k_grid

>  <i_i_glide_lignum>  (133) 
32

>  <i_i_glide_rotatable_bonds>  (133) 
13

>  <r_i_docking_score>  (133) 
-5.74018

>  <r_i_glide_ligand_efficiency>  (133) 
-0.124786

>  <r_i_glide_ligand_efficiency_sa>  (133) 
-0.447116

>  <r_i_glide_ligand_efficiency_ln>  (133) 
-1.18878

>  <r_i_glide_gscore>  (133) 
-5.74018

>  <r_i_glide_lipo>  (133) 
-0.0175425

>  <r_i_glide_hbond>  (133) 
-0.0798136

>  <r_i_glide_metal>  (133) 
-0

>  <r_i_glide_rewards>  (133) 
-2.00259

>  <r_i_glide_evdw>  (133) 
-29.8972

>  <r_i_glide_ecoul>  (133) 
-14.4033

>  <r_i_glide_erotb>  (133) 
0.0932432

>  <r_i_glide_esite>  (133) 
-0.078124

>  <r_i_glide_emodel>  (133) 
-64.12

>  <r_i_glide_energy>  (133) 
-44.3005

>  <r_i_glide_einternal>  (133) 
29.7095

>  <r_i_glide_intrahb_reward>  (133) 
-2

>  <i_i_glide_confnum>  (133) 
1

>  <i_i_glide_posenum>  (133) 
32

>  <r_i_glide_eff_state_penalty>  (133) 
0

>  <ligand_id>  (133) 
64

>  <original_smiles>  (133) 
COC(=O)C1(O)C2(O)C(O)C(O)C(CO)(C3C4C(O)C5(C)C(O)(C(C)C(=O)C(=O)C6(O)C(=O)C1(O)C5(C)C6C1OC13C)[S+]4[O-])C2O

>  <smiles>  (133) 
[H]OC([H])([H])C12C([H])(O[H])C([H])(O[H])C(O[H])(C1([H])O[H])C(O[H])(C(=O)OC([H])([H])[H])C1(O[H])C(=O)C3(O[H])C(=O)C(=O)C([H])(C([H])([H])[H])C4(O[H])S(=O)C5([H])C([H])(O[H])C4(C([H])([H])[H])C1(C([H])([H])[H])C3([H])C1([H])OC1(C([H])([H])[H])C52[H]

$$$$
64:3:1
     RDKit          3D

 82 88  0  0  1  0  0  0  0  0999 V2000
    1.0647    2.3991   11.3150 C   0  0  0  0  0  0  0  0  0  0  0  0
    1.0866    2.3851    9.8925 O   0  0  0  0  0  0  0  0  0  0  0  0
    0.0833    1.7993    9.2164 C   0  0  0  0  0  0  0  0  0  0  0  0
   -0.9116    1.3390    9.7710 O   0  0  0  0  0  0  0  0  0  0  0  0
    0.2282    1.7997    7.6528 C   0  0  1  0  0  0  0  0  0  0  0  0
   -1.0658    1.4384    7.2179 O   0  0  0  0  0  0  0  0  0  0  0  0
    0.2892    3.3812    7.1921 C   0  0  1  0  0  0  0  0  0  0  0  0
   -0.4138    4.1948    8.1348 O   0  0  0  0  0  0  0  0  0  0  0  0
    1.6671    4.0940    7.0949 C   0  0  1  0  0  0  0  0  0  0  0  0
    2.7432    3.3054    7.5249 O   0  0  0  0  0  0  0  0  0  0  0  0
    1.7360    4.6622    5.6276 C   0  0  1  0  0  0  0  0  0  0  0  0
    2.9746    4.9741    5.0123 O   0  0  0  0  0  0  0  0  0  0  0  0
    0.6259    4.0149    4.7241 C   0  0  1  0  0  0  0  0  0  0  0  0
    0.2320    4.9935    3.5729 C   0  0  0  0  0  0  0  0  0  0  0  0
   -0.0672    6.3064    4.0002 O   0  0  0  0  0  0  0  0  0  0  0  0
    0.9042    2.5310    4.1875 C   0  0  2  0  0  0  0  0  0  0  0  0
    2.1786    2.1664    3.3316 C   0  0  1  0  0  0  0  0  0  0  0  0
    3.3117    1.7091    4.2246 C   0  0  1  0  0  0  0  0  0  0  0  0
    3.8580    2.5925    5.1569 O   0  0  0  0  0  0  0  0  0  0  0  0
    3.1745    0.2642    4.7761 C   0  0  2  0  0  0  0  0  0  0  0  0
    4.6866    0.1180    5.3228 C   0  0  0  0  0  0  0  0  0  0  0  0
    2.9983   -0.6622    3.4321 C   0  0  1  0  0  0  0  0  0  0  0  0
    4.3033   -0.9763    2.9755 O   0  0  0  0  0  0  0  0  0  0  0  0
    2.1895   -2.1190    3.2684 C   0  0  1  0  0  0  0  0  0  0  0  0
    2.6970   -2.9876    2.0957 C   0  0  0  0  0  0  0  0  0  0  0  0
    1.7453   -3.0864    4.4742 C   0  0  0  0  0  0  0  0  0  0  0  0
    2.4207   -4.0941    4.6533 O   0  0  0  0  0  0  0  0  0  0  0  0
    0.5388   -2.8446    5.5541 C   0  0  0  0  0  0  0  0  0  0  0  0
   -0.0297   -3.8590    5.9727 O   0  0  0  0  0  0  0  0  0  0  0  0
   -0.0466   -1.4497    6.0454 C   0  0  1  0  0  0  0  0  0  0  0  0
   -1.4749   -1.4642    6.0087 O   0  0  0  0  0  0  0  0  0  0  0  0
    0.4250   -0.8093    7.4024 C   0  0  0  0  0  0  0  0  0  0  0  0
    0.1726   -1.3301    8.4978 O   0  0  0  0  0  0  0  0  0  0  0  0
    1.2769    0.5347    7.2514 C   0  0  2  0  0  0  0  0  0  0  0  0
    2.3444    0.6200    8.1903 O   0  0  0  0  0  0  0  0  0  0  0  0
    1.9606   -0.0575    5.8768 C   0  0  2  0  0  0  0  0  0  0  0  0
    2.8674   -1.2975    6.5273 C   0  0  0  0  0  0  0  0  0  0  0  0
    0.5550   -0.4145    5.1767 C   0  0  2  0  0  0  0  0  0  0  0  0
   -0.4329    0.3569    4.2733 C   0  0  1  0  0  0  0  0  0  0  0  0
   -1.2541    1.3869    4.7679 O   0  0  0  0  0  0  0  0  0  0  0  0
   -0.3035    1.7475    3.7510 C   0  0  1  0  0  0  0  0  0  0  0  0
   -0.9610    2.1397    2.4375 C   0  0  0  0  0  0  0  0  0  0  0  0
    2.1978    0.5915    2.2721 S   0  0  0  0  0  0  0  0  0  0  0  0
    0.8100    0.0784    1.8766 O   0  0  0  0  0  0  0  0  0  0  0  0
   -0.4078    3.9624    5.8872 C   0  0  1  0  0  0  0  0  0  0  0  0
   -1.7570    3.6728    5.5658 O   0  0  0  0  0  0  0  0  0  0  0  0
    1.9839    2.8510   11.6884 H   0  0  0  0  0  0  0  0  0  0  0  0
    1.0005    1.3899   11.7282 H   0  0  0  0  0  0  0  0  0  0  0  0
    0.2251    2.9830   11.6975 H   0  0  0  0  0  0  0  0  0  0  0  0
   -1.1133    1.4992    6.2705 H   0  0  0  0  0  0  0  0  0  0  0  0
   -0.0399    4.0722    8.9965 H   0  0  0  0  0  0  0  0  0  0  0  0
    1.7165    4.9665    7.7592 H   0  0  0  0  0  0  0  0  0  0  0  0
    3.5379    3.8061    7.3804 H   0  0  0  0  0  0  0  0  0  0  0  0
    1.4211    5.6878    5.8302 H   0  0  0  0  0  0  0  0  0  0  0  0
    2.7923    5.5942    4.3141 H   0  0  0  0  0  0  0  0  0  0  0  0
    1.0504    5.0445    2.8599 H   0  0  0  0  0  0  0  0  0  0  0  0
   -0.6450    4.6592    3.0399 H   0  0  0  0  0  0  0  0  0  0  0  0
    0.0773    6.9159    3.2769 H   0  0  0  0  0  0  0  0  0  0  0  0
    1.1426    2.0790    5.1302 H   0  0  0  0  0  0  0  0  0  0  0  0
    2.4466    3.0158    2.6961 H   0  0  0  0  0  0  0  0  0  0  0  0
    4.1356    1.6810    3.5249 H   0  0  0  0  0  0  0  0  0  0  0  0
    3.7220    3.4932    4.8546 H   0  0  0  0  0  0  0  0  0  0  0  0
    5.0854   -0.8948    5.3890 H   0  0  0  0  0  0  0  0  0  0  0  0
    4.8200    0.5897    6.2979 H   0  0  0  0  0  0  0  0  0  0  0  0
    5.4297    0.5890    4.6805 H   0  0  0  0  0  0  0  0  0  0  0  0
    4.3630   -0.7185    2.0678 H   0  0  0  0  0  0  0  0  0  0  0  0
    1.2297   -1.8939    2.8156 H   0  0  0  0  0  0  0  0  0  0  0  0
    1.9607   -3.7570    1.8489 H   0  0  0  0  0  0  0  0  0  0  0  0
    3.6332   -3.5010    2.3255 H   0  0  0  0  0  0  0  0  0  0  0  0
    2.8319   -2.3965    1.1865 H   0  0  0  0  0  0  0  0  0  0  0  0
   -1.7446   -1.7391    5.1427 H   0  0  0  0  0  0  0  0  0  0  0  0
    2.7667    1.4710    8.0758 H   0  0  0  0  0  0  0  0  0  0  0  0
    2.4246   -2.0712    7.1611 H   0  0  0  0  0  0  0  0  0  0  0  0
    3.6630   -0.9777    7.2063 H   0  0  0  0  0  0  0  0  0  0  0  0
    3.4066   -1.9107    5.8159 H   0  0  0  0  0  0  0  0  0  0  0  0
    0.7842   -0.8454    4.2952 H   0  0  0  0  0  0  0  0  0  0  0  0
   -0.9824   -0.3012    3.6159 H   0  0  0  0  0  0  0  0  0  0  0  0
   -0.2078    2.4999    1.7397 H   0  0  0  0  0  0  0  0  0  0  0  0
   -1.7305    2.8940    2.5829 H   0  0  0  0  0  0  0  0  0  0  0  0
   -1.4416    1.2834    1.9679 H   0  0  0  0  0  0  0  0  0  0  0  0
   -0.5945    5.0154    6.1119 H   0  0  0  0  0  0  0  0  0  0  0  0
   -1.7963    2.8016    5.1846 H   0  0  0  0  0  0  0  0  0  0  0  0
  1  2  1  0
  1 47  1  0
  1 48  1  0
  1 49  1  0
  2  3  1  0
  3  4  2  0
  3  5  1  0
  5 34  1  0
  5  6  1  6
  5  7  1  0
  6 50  1  0
  7 45  1  0
  7  8  1  1
  7  9  1  0
  8 51  1  0
  9 10  1  0
  9 11  1  0
  9 52  1  1
 10 53  1  0
 11 12  1  0
 11 13  1  0
 11 54  1  1
 12 55  1  0
 13 14  1  6
 13 16  1  0
 13 45  1  0
 14 15  1  0
 14 56  1  0
 14 57  1  0
 15 58  1  0
 16 41  1  0
 16 17  1  0
 16 59  1  1
 17 43  1  0
 17 18  1  0
 17 60  1  6
 18 19  1  0
 18 20  1  0
 18 61  1  6
 19 62  1  0
 20 36  1  0
 20 21  1  1
 20 22  1  0
 21 63  1  0
 21 64  1  0
 21 65  1  0
 22 23  1  6
 22 24  1  0
 43 22  1  1
 23 66  1  0
 24 25  1  0
 24 26  1  0
 24 67  1  6
 25 68  1  0
 25 69  1  0
 25 70  1  0
 26 27  2  0
 26 28  1  0
 28 29  2  0
 28 30  1  0
 30 38  1  0
 30 31  1  1
 30 32  1  0
 31 71  1  0
 32 33  2  0
 32 34  1  0
 34 35  1  1
 34 36  1  0
 35 72  1  0
 36 37  1  1
 36 38  1  0
 37 73  1  0
 37 74  1  0
 37 75  1  0
 38 39  1  0
 38 76  1  6
 39 41  1  0
 39 40  1  0
 39 77  1  6
 40 41  1  0
 41 42  1  6
 42 78  1  0
 42 79  1  0
 42 80  1  0
 43 44  2  0
 45 46  1  0
 45 81  1  1
 46 82  1  0
M  END
>  <i_m_ct_stereo_status>  (134) 
1

>  <s_m_source_file>  (134) 
/var/tmp/pbs.5075288.sched01/tmp4tfr24xl/130i3iej58d.sdf

>  <i_m_source_file_index>  (134) 
32

>  <i_lp_mmshare_version>  (134) 
48012

>  <i_f3d_flags>  (134) 
0

>  <s_epik_input>  (134) 
W0NIM11PQyg9TylbQ0BAXShbT0hdKShbQ0BAXTEyW09IXSlbQ0BdMyhbT0hdKVtDQF00KFtDSDNdKVtDQEBdNShbQ0gzXSlbQ0BAXTYoW09IXSlbQ0BASF0oW0NIM10pQyg9TylDKD1PKUMoW09IXSkoQzM9TylbQ0BIXTRbQ0BASF03W0NAXShPNykoW0NIM10pW0NAQEhdKFtDQEhdKFtTK102W08tXSlbQ0BIXTVbT0hdKVtDQEBdKFtDSDJdW09IXSkoW0NASF0yW09IXSlbQ0BIXShbT0hdKVtDQEBIXTFbT0hd

>  <s_epik_cmdline>  (134) 
J2VwaWtfcHl0aG9uJywgJy1waHQnLCAnMi4wJywgJy1waCcsICc3LjAnLCAnLXRuJywgJzgnLCAnLW1hJywgJzIwMCcsICctaW1hZScsICc8aW5maWxlLm1hZT4nLCAnLW9tYWUnLCAnPG91dGZpbGUubWFlPic=

>  <r_lp_tautomer_probability>  (134) 
1

>  <r_epik_Ionization_Penalty>  (134) 
3.89718e-05

>  <r_epik_Ionization_Penalty_Charging>  (134) 
0

>  <r_epik_Ionization_Penalty_Neutral>  (134) 
3.89718e-05

>  <r_epik_State_Penalty>  (134) 
-0

>  <r_epik_Charging_Adjusted_Penalty>  (134) 
0

>  <i_epik_Tot_Q>  (134) 
0

>  <i_epik_Tot_abs_Q>  (134) 
2

>  <s_epik_Chemistry_Notes>  (134) 
This compound has an ester and may undergo hydrolysis at high or low pH.

>  <s_lp_Force_Field>  (134) 
OPLS3e

>  <r_lp_Energy>  (134) 
365.602

>  <b_lp_Chiralities_Consistent>  (134) 
1

>  <s_lp_Variant>  (134) 
64:0-4

>  <s_i_glide_gridfile>  (134) 
pfpi4k_grid

>  <i_i_glide_lignum>  (134) 
32

>  <i_i_glide_rotatable_bonds>  (134) 
13

>  <r_i_docking_score>  (134) 
-5.54537

>  <r_i_glide_ligand_efficiency>  (134) 
-0.120552

>  <r_i_glide_ligand_efficiency_sa>  (134) 
-0.431942

>  <r_i_glide_ligand_efficiency_ln>  (134) 
-1.14843

>  <r_i_glide_gscore>  (134) 
-5.54537

>  <r_i_glide_lipo>  (134) 
-0.0261495

>  <r_i_glide_hbond>  (134) 
-0.0775076

>  <r_i_glide_metal>  (134) 
-0

>  <r_i_glide_rewards>  (134) 
-2.00846

>  <r_i_glide_evdw>  (134) 
-25.3399

>  <r_i_glide_ecoul>  (134) 
-14.4502

>  <r_i_glide_erotb>  (134) 
0.0652702

>  <r_i_glide_esite>  (134) 
-0.0640112

>  <r_i_glide_emodel>  (134) 
-72.4579

>  <r_i_glide_energy>  (134) 
-39.79

>  <r_i_glide_einternal>  (134) 
5.1312

>  <r_i_glide_intrahb_reward>  (134) 
-2

>  <i_i_glide_confnum>  (134) 
1

>  <i_i_glide_posenum>  (134) 
5

>  <r_i_glide_eff_state_penalty>  (134) 
0

>  <ligand_id>  (134) 
64

>  <original_smiles>  (134) 
COC(=O)C1(O)C2(O)C(O)C(O)C(CO)(C3C4C(O)C5(C)C(O)(C(C)C(=O)C(=O)C6(O)C(=O)C1(O)C5(C)C6C1OC13C)[S+]4[O-])C2O

>  <smiles>  (134) 
[H]OC([H])([H])C12C([H])(O[H])C([H])(O[H])C(O[H])(C1([H])O[H])C(O[H])(C(=O)OC([H])([H])[H])C1(O[H])C(=O)C3(O[H])C(=O)C(=O)C([H])(C([H])([H])[H])C4(O[H])S(=O)C5([H])C([H])(O[H])C4(C([H])([H])[H])C1(C([H])([H])[H])C3([H])C1([H])OC1(C([H])([H])[H])C52[H]

$$$$
64:3:2
     RDKit          3D

 82 88  0  0  1  0  0  0  0  0999 V2000
    0.8950    2.5943   11.2924 C   0  0  0  0  0  0  0  0  0  0  0  0
    1.0020    2.5050    9.8782 O   0  0  0  0  0  0  0  0  0  0  0  0
    0.0596    1.8456    9.1757 C   0  0  0  0  0  0  0  0  0  0  0  0
   -0.9399    1.3422    9.6905 O   0  0  0  0  0  0  0  0  0  0  0  0
    0.3017    1.8108    7.6139 C   0  0  1  0  0  0  0  0  0  0  0  0
   -0.9597    1.4105    7.1179 O   0  0  0  0  0  0  0  0  0  0  0  0
    0.3570    3.3871    7.1043 C   0  0  1  0  0  0  0  0  0  0  0  0
   -0.4269    4.1997    7.9869 O   0  0  0  0  0  0  0  0  0  0  0  0
    1.7309    4.1181    7.0553 C   0  0  1  0  0  0  0  0  0  0  0  0
    2.7948    3.3638    7.5746 O   0  0  0  0  0  0  0  0  0  0  0  0
    1.8679    4.6397    5.5784 C   0  0  1  0  0  0  0  0  0  0  0  0
    3.1301    4.9695    5.0332 O   0  0  0  0  0  0  0  0  0  0  0  0
    0.8305    3.9275    4.6451 C   0  0  1  0  0  0  0  0  0  0  0  0
    0.4772    4.8549    3.4379 C   0  0  0  0  0  0  0  0  0  0  0  0
    0.0764    6.1573    3.8080 O   0  0  0  0  0  0  0  0  0  0  0  0
    1.1626    2.4357    4.1774 C   0  0  2  0  0  0  0  0  0  0  0  0
    2.4887    2.0672    3.4046 C   0  0  1  0  0  0  0  0  0  0  0  0
    3.5898    1.6680    4.3630 C   0  0  1  0  0  0  0  0  0  0  0  0
    4.0349    2.5968    5.3009 O   0  0  0  0  0  0  0  0  0  0  0  0
    3.4403    0.2418    4.9677 C   0  0  2  0  0  0  0  0  0  0  0  0
    4.9209    0.1489    5.6022 C   0  0  0  0  0  0  0  0  0  0  0  0
    3.3512   -0.7367    3.6474 C   0  0  1  0  0  0  0  0  0  0  0  0
    4.6885   -1.0621    3.2899 O   0  0  0  0  0  0  0  0  0  0  0  0
    2.5768   -2.2147    3.4860 C   0  0  1  0  0  0  0  0  0  0  0  0
    3.1692   -3.1098    2.3697 C   0  0  0  0  0  0  0  0  0  0  0  0
    2.0949   -3.1458    4.7003 C   0  0  0  0  0  0  0  0  0  0  0  0
    2.7865   -4.1353    4.9510 O   0  0  0  0  0  0  0  0  0  0  0  0
    0.8091   -2.9116    5.6923 C   0  0  0  0  0  0  0  0  0  0  0  0
    0.2674   -3.9221    6.1440 O   0  0  0  0  0  0  0  0  0  0  0  0
    0.1723   -1.5008    6.0901 C   0  0  1  0  0  0  0  0  0  0  0  0
   -1.2447   -1.5747    5.9289 O   0  0  0  0  0  0  0  0  0  0  0  0
    0.5301   -0.8130    7.4753 C   0  0  0  0  0  0  0  0  0  0  0  0
    0.2027   -1.2906    8.5607 O   0  0  0  0  0  0  0  0  0  0  0  0
    1.3906    0.5449    7.3114 C   0  0  2  0  0  0  0  0  0  0  0  0
    2.3819    0.6926    8.3256 O   0  0  0  0  0  0  0  0  0  0  0  0
    2.1747   -0.0808    6.0044 C   0  0  2  0  0  0  0  0  0  0  0  0
    3.0590   -1.2758    6.7507 C   0  0  0  0  0  0  0  0  0  0  0  0
    0.8118   -0.4763    5.2412 C   0  0  2  0  0  0  0  0  0  0  0  0
   -0.1376    0.2321    4.2431 C   0  0  1  0  0  0  0  0  0  0  0  0
   -1.0097    1.2454    4.6555 O   0  0  0  0  0  0  0  0  0  0  0  0
   -0.0173    1.6172    3.6995 C   0  0  1  0  0  0  0  0  0  0  0  0
   -0.5952    1.9495    2.3332 C   0  0  0  0  0  0  0  0  0  0  0  0
    2.5969    0.4627    2.3933 S   0  0  0  0  0  0  0  0  0  0  0  0
    1.2538   -0.0913    1.9182 O   0  0  0  0  0  0  0  0  0  0  0  0
   -0.2756    3.8988    5.7402 C   0  0  1  0  0  0  0  0  0  0  0  0
   -1.6032    3.5642    5.3743 O   0  0  0  0  0  0  0  0  0  0  0  0
    1.7567    3.1299   11.6960 H   0  0  0  0  0  0  0  0  0  0  0  0
    0.8741    1.6037   11.7506 H   0  0  0  0  0  0  0  0  0  0  0  0
   -0.0070    3.1300   11.5979 H   0  0  0  0  0  0  0  0  0  0  0  0
   -0.9544    1.4905    6.1690 H   0  0  0  0  0  0  0  0  0  0  0  0
   -0.0839    4.1193    8.8690 H   0  0  0  0  0  0  0  0  0  0  0  0
    1.7217    5.0058    7.6970 H   0  0  0  0  0  0  0  0  0  0  0  0
    3.5882    3.8781    7.4706 H   0  0  0  0  0  0  0  0  0  0  0  0
    1.5102    5.6630    5.7116 H   0  0  0  0  0  0  0  0  0  0  0  0
    2.9791    5.5549    4.2985 H   0  0  0  0  0  0  0  0  0  0  0  0
    1.3238    4.9243    2.7549 H   0  0  0  0  0  0  0  0  0  0  0  0
   -0.3643    4.4683    2.8844 H   0  0  0  0  0  0  0  0  0  0  0  0
    0.2106    6.7620    3.0741 H   0  0  0  0  0  0  0  0  0  0  0  0
    1.3568    2.0224    5.1477 H   0  0  0  0  0  0  0  0  0  0  0  0
    2.7758    2.8963    2.7524 H   0  0  0  0  0  0  0  0  0  0  0  0
    4.4444    1.6364    3.6914 H   0  0  0  0  0  0  0  0  0  0  0  0
    3.9078    3.4826    4.9557 H   0  0  0  0  0  0  0  0  0  0  0  0
    5.3353   -0.8528    5.7261 H   0  0  0  0  0  0  0  0  0  0  0  0
    4.9886    0.6553    6.5662 H   0  0  0  0  0  0  0  0  0  0  0  0
    5.6900    0.6120    4.9790 H   0  0  0  0  0  0  0  0  0  0  0  0
    4.7280   -1.9896    3.0911 H   0  0  0  0  0  0  0  0  0  0  0  0
    1.6380   -2.0221    2.9746 H   0  0  0  0  0  0  0  0  0  0  0  0
    2.4588   -3.8949    2.1022 H   0  0  0  0  0  0  0  0  0  0  0  0
    4.0939   -3.6051    2.6644 H   0  0  0  0  0  0  0  0  0  0  0  0
    3.3484   -2.5411    1.4570 H   0  0  0  0  0  0  0  0  0  0  0  0
   -1.5740   -0.6963    5.7653 H   0  0  0  0  0  0  0  0  0  0  0  0
    2.8259    1.5303    8.1979 H   0  0  0  0  0  0  0  0  0  0  0  0
    2.5855   -2.0300    7.3823 H   0  0  0  0  0  0  0  0  0  0  0  0
    3.8036   -0.9063    7.4586 H   0  0  0  0  0  0  0  0  0  0  0  0
    3.6544   -1.8949    6.0920 H   0  0  0  0  0  0  0  0  0  0  0  0
    1.0940   -0.9241    4.3855 H   0  0  0  0  0  0  0  0  0  0  0  0
   -0.6407   -0.4709    3.5792 H   0  0  0  0  0  0  0  0  0  0  0  0
    0.1975    2.2983    1.6781 H   0  0  0  0  0  0  0  0  0  0  0  0
   -1.3790    2.6954    2.4124 H   0  0  0  0  0  0  0  0  0  0  0  0
   -1.0386    1.0706    1.8614 H   0  0  0  0  0  0  0  0  0  0  0  0
   -0.4961    4.9568    5.9094 H   0  0  0  0  0  0  0  0  0  0  0  0
   -1.5969    2.6893    4.9922 H   0  0  0  0  0  0  0  0  0  0  0  0
  1  2  1  0
  1 47  1  0
  1 48  1  0
  1 49  1  0
  2  3  1  0
  3  4  2  0
  3  5  1  0
  5 34  1  0
  5  6  1  6
  5  7  1  0
  6 50  1  0
  7 45  1  0
  7  8  1  1
  7  9  1  0
  8 51  1  0
  9 10  1  0
  9 11  1  0
  9 52  1  1
 10 53  1  0
 11 12  1  0
 11 13  1  0
 11 54  1  1
 12 55  1  0
 13 14  1  6
 13 16  1  0
 13 45  1  0
 14 15  1  0
 14 56  1  0
 14 57  1  0
 15 58  1  0
 16 41  1  0
 16 17  1  0
 16 59  1  1
 17 43  1  0
 17 18  1  0
 17 60  1  6
 18 19  1  0
 18 20  1  0
 18 61  1  6
 19 62  1  0
 20 36  1  0
 20 21  1  1
 20 22  1  0
 21 63  1  0
 21 64  1  0
 21 65  1  0
 22 23  1  6
 22 24  1  0
 43 22  1  1
 23 66  1  0
 24 25  1  0
 24 26  1  0
 24 67  1  6
 25 68  1  0
 25 69  1  0
 25 70  1  0
 26 27  2  0
 26 28  1  0
 28 29  2  0
 28 30  1  0
 30 38  1  0
 30 31  1  6
 30 32  1  0
 31 71  1  0
 32 33  2  0
 32 34  1  0
 34 35  1  1
 34 36  1  0
 35 72  1  0
 36 37  1  1
 36 38  1  0
 37 73  1  0
 37 74  1  0
 37 75  1  0
 38 39  1  0
 38 76  1  6
 39 41  1  0
 39 40  1  0
 39 77  1  6
 40 41  1  0
 41 42  1  6
 42 78  1  0
 42 79  1  0
 42 80  1  0
 43 44  2  0
 45 46  1  0
 45 81  1  1
 46 82  1  0
M  END
>  <i_m_ct_stereo_status>  (135) 
1

>  <s_m_source_file>  (135) 
/var/tmp/pbs.5075288.sched01/tmp4tfr24xl/130i3iej58d.sdf

>  <i_m_source_file_index>  (135) 
32

>  <i_lp_mmshare_version>  (135) 
48012

>  <i_f3d_flags>  (135) 
0

>  <s_epik_input>  (135) 
W0NIM11PQyg9TylbQ0BAXShbT0hdKShbQ0BAXTEyW09IXSlbQ0BdMyhbT0hdKVtDQF00KFtDSDNdKVtDQEBdNShbQ0gzXSlbQ0BAXTYoW09IXSlbQ0BASF0oW0NIM10pQyg9TylDKD1PKUMoW09IXSkoQzM9TylbQ0BIXTRbQ0BASF03W0NAXShPNykoW0NIM10pW0NAQEhdKFtDQEhdKFtTK102W08tXSlbQ0BIXTVbT0hdKVtDQEBdKFtDSDJdW09IXSkoW0NASF0yW09IXSlbQ0BIXShbT0hdKVtDQEBIXTFbT0hd

>  <s_epik_cmdline>  (135) 
J2VwaWtfcHl0aG9uJywgJy1waHQnLCAnMi4wJywgJy1waCcsICc3LjAnLCAnLXRuJywgJzgnLCAnLW1hJywgJzIwMCcsICctaW1hZScsICc8aW5maWxlLm1hZT4nLCAnLW9tYWUnLCAnPG91dGZpbGUubWFlPic=

>  <r_lp_tautomer_probability>  (135) 
1

>  <r_epik_Ionization_Penalty>  (135) 
3.89718e-05

>  <r_epik_Ionization_Penalty_Charging>  (135) 
0

>  <r_epik_Ionization_Penalty_Neutral>  (135) 
3.89718e-05

>  <r_epik_State_Penalty>  (135) 
-0

>  <r_epik_Charging_Adjusted_Penalty>  (135) 
0

>  <i_epik_Tot_Q>  (135) 
0

>  <i_epik_Tot_abs_Q>  (135) 
2

>  <s_epik_Chemistry_Notes>  (135) 
This compound has an ester and may undergo hydrolysis at high or low pH.

>  <s_lp_Force_Field>  (135) 
OPLS3e

>  <r_lp_Energy>  (135) 
365.602

>  <b_lp_Chiralities_Consistent>  (135) 
1

>  <s_lp_Variant>  (135) 
64:0-4

>  <s_i_glide_gridfile>  (135) 
pfpi4k_grid

>  <i_i_glide_lignum>  (135) 
32

>  <i_i_glide_rotatable_bonds>  (135) 
13

>  <r_i_docking_score>  (135) 
-5.16324

>  <r_i_glide_ligand_efficiency>  (135) 
-0.112244

>  <r_i_glide_ligand_efficiency_sa>  (135) 
-0.402177

>  <r_i_glide_ligand_efficiency_ln>  (135) 
-1.06929

>  <r_i_glide_gscore>  (135) 
-5.16324

>  <r_i_glide_lipo>  (135) 
-0.0306199

>  <r_i_glide_hbond>  (135) 
-0.0705956

>  <r_i_glide_metal>  (135) 
-0

>  <r_i_glide_rewards>  (135) 
-2.00814

>  <r_i_glide_evdw>  (135) 
-26.0342

>  <r_i_glide_ecoul>  (135) 
-12.0292

>  <r_i_glide_erotb>  (135) 
0.0932432

>  <r_i_glide_esite>  (135) 
-0.0410313

>  <r_i_glide_emodel>  (135) 
-69.2707

>  <r_i_glide_energy>  (135) 
-38.0634

>  <r_i_glide_einternal>  (135) 
5.68936

>  <r_i_glide_intrahb_reward>  (135) 
-2

>  <i_i_glide_confnum>  (135) 
4

>  <i_i_glide_posenum>  (135) 
15

>  <r_i_glide_eff_state_penalty>  (135) 
0

>  <ligand_id>  (135) 
64

>  <original_smiles>  (135) 
COC(=O)C1(O)C2(O)C(O)C(O)C(CO)(C3C4C(O)C5(C)C(O)(C(C)C(=O)C(=O)C6(O)C(=O)C1(O)C5(C)C6C1OC13C)[S+]4[O-])C2O

>  <smiles>  (135) 
[H]OC([H])([H])C12C([H])(O[H])C([H])(O[H])C(O[H])(C1([H])O[H])C(O[H])(C(=O)OC([H])([H])[H])C1(O[H])C(=O)C3(O[H])C(=O)C(=O)C([H])(C([H])([H])[H])C4(O[H])S(=O)C5([H])C([H])(O[H])C4(C([H])([H])[H])C1(C([H])([H])[H])C3([H])C1([H])OC1(C([H])([H])[H])C52[H]

$$$$
64:4:0
     RDKit          3D

 82 88  0  0  1  0  0  0  0  0999 V2000
   -2.0706    4.0959    2.7951 C   0  0  0  0  0  0  0  0  0  0  0  0
   -0.9300    3.6540    3.5001 O   0  0  0  0  0  0  0  0  0  0  0  0
   -0.2451    4.4684    4.2923 C   0  0  0  0  0  0  0  0  0  0  0  0
   -0.4072    5.6872    4.3163 O   0  0  0  0  0  0  0  0  0  0  0  0
    0.7972    3.7395    5.2111 C   0  0  1  0  0  0  0  0  0  0  0  0
    1.6653    4.8068    5.6057 O   0  0  0  0  0  0  0  0  0  0  0  0
    0.0298    3.3995    6.6631 C   0  0  1  0  0  0  0  0  0  0  0  0
    0.0436    4.6321    7.4014 O   0  0  0  0  0  0  0  0  0  0  0  0
   -1.5105    3.0442    6.8696 C   0  0  1  0  0  0  0  0  0  0  0  0
   -2.4870    3.3285    5.8790 O   0  0  0  0  0  0  0  0  0  0  0  0
   -1.6500    1.6255    7.5110 C   0  0  1  0  0  0  0  0  0  0  0  0
   -2.5657    0.7845    6.8644 O   0  0  0  0  0  0  0  0  0  0  0  0
   -0.2397    1.0179    7.8111 C   0  0  1  0  0  0  0  0  0  0  0  0
   -0.2945    0.6186    9.3374 C   0  0  0  0  0  0  0  0  0  0  0  0
    0.9498    0.3271    9.9296 O   0  0  0  0  0  0  0  0  0  0  0  0
    0.1011   -0.3536    6.9632 C   0  0  1  0  0  0  0  0  0  0  0  0
   -0.4427   -0.7733    5.5105 C   0  0  1  0  0  0  0  0  0  0  0  0
   -0.4489    0.1766    4.3525 C   0  0  1  0  0  0  0  0  0  0  0  0
   -1.0417    1.3649    4.6587 O   0  0  0  0  0  0  0  0  0  0  0  0
    0.8131    0.2578    3.4572 C   0  0  2  0  0  0  0  0  0  0  0  0
    0.1925    0.7012    2.0638 C   0  0  0  0  0  0  0  0  0  0  0  0
    1.4726   -1.2346    3.4049 C   0  0  1  0  0  0  0  0  0  0  0  0
    1.3702   -1.6938    2.0684 O   0  0  0  0  0  0  0  0  0  0  0  0
    3.0066   -1.6916    3.7760 C   0  0  1  0  0  0  0  0  0  0  0  0
    3.3295   -3.1002    3.2015 C   0  0  0  0  0  0  0  0  0  0  0  0
    4.3394   -0.8089    3.6387 C   0  0  0  0  0  0  0  0  0  0  0  0
    5.1065   -1.0893    2.7136 O   0  0  0  0  0  0  0  0  0  0  0  0
    4.8126    0.4622    4.5362 C   0  0  0  0  0  0  0  0  0  0  0  0
    6.0278    0.6406    4.6110 O   0  0  0  0  0  0  0  0  0  0  0  0
    3.8751    1.4159    5.3894 C   0  0  1  0  0  0  0  0  0  0  0  0
    4.4647    1.6173    6.6637 O   0  0  0  0  0  0  0  0  0  0  0  0
    3.4242    2.8145    4.8783 C   0  0  0  0  0  0  0  0  0  0  0  0
    4.1657    3.7895    4.9506 O   0  0  0  0  0  0  0  0  0  0  0  0
    1.9295    2.8703    4.3056 C   0  0  2  0  0  0  0  0  0  0  0  0
    2.0843    3.7357    3.1595 O   0  0  0  0  0  0  0  0  0  0  0  0
    1.9173    1.2687    3.9327 C   0  0  2  0  0  0  0  0  0  0  0  0
    2.7657    1.3163    2.5480 C   0  0  0  0  0  0  0  0  0  0  0  0
    2.5289    0.8227    5.3797 C   0  0  1  0  0  0  0  0  0  0  0  0
    2.5558   -0.4408    6.2834 C   0  0  1  0  0  0  0  0  0  0  0  0
    2.4814   -0.0452    7.6449 O   0  0  0  0  0  0  0  0  0  0  0  0
    1.4679   -0.9275    7.2127 C   0  0  1  0  0  0  0  0  0  0  0  0
    1.5053   -2.2306    8.0152 C   0  0  0  0  0  0  0  0  0  0  0  0
    0.3370   -2.1905    4.5667 S   0  0  0  0  0  0  0  0  0  0  0  0
    1.1327   -3.1547    5.4497 O   0  0  0  0  0  0  0  0  0  0  0  0
    0.5971    2.3887    7.7081 C   0  0  1  0  0  0  0  0  0  0  0  0
    1.9832    2.5523    7.9744 O   0  0  0  0  0  0  0  0  0  0  0  0
   -2.5377    3.2378    2.3106 H   0  0  0  0  0  0  0  0  0  0  0  0
   -1.8074    4.8388    2.0486 H   0  0  0  0  0  0  0  0  0  0  0  0
   -2.8126    4.5283    3.4635 H   0  0  0  0  0  0  0  0  0  0  0  0
    2.0612    5.1461    4.8130 H   0  0  0  0  0  0  0  0  0  0  0  0
    0.9573    4.8840    7.4558 H   0  0  0  0  0  0  0  0  0  0  0  0
   -1.9035    3.6897    7.6628 H   0  0  0  0  0  0  0  0  0  0  0  0
   -2.2490    2.8467    5.0986 H   0  0  0  0  0  0  0  0  0  0  0  0
   -2.1673    1.8121    8.4483 H   0  0  0  0  0  0  0  0  0  0  0  0
   -2.3814    0.8841    5.9312 H   0  0  0  0  0  0  0  0  0  0  0  0
   -0.7230    1.4046    9.9602 H   0  0  0  0  0  0  0  0  0  0  0  0
   -0.9496   -0.2339    9.4914 H   0  0  0  0  0  0  0  0  0  0  0  0
    0.8308    0.1845   10.8574 H   0  0  0  0  0  0  0  0  0  0  0  0
   -0.5284   -1.0441    7.5179 H   0  0  0  0  0  0  0  0  0  0  0  0
   -1.4760   -1.0920    5.6532 H   0  0  0  0  0  0  0  0  0  0  0  0
   -1.2271   -0.2597    3.7290 H   0  0  0  0  0  0  0  0  0  0  0  0
   -0.9798    1.9118    3.8873 H   0  0  0  0  0  0  0  0  0  0  0  0
    0.8237    0.5679    1.1881 H   0  0  0  0  0  0  0  0  0  0  0  0
   -0.0926    1.7484    2.0607 H   0  0  0  0  0  0  0  0  0  0  0  0
   -0.6975    0.1482    1.7876 H   0  0  0  0  0  0  0  0  0  0  0  0
    1.3169   -0.9717    1.4525 H   0  0  0  0  0  0  0  0  0  0  0  0
    2.9833   -2.0615    4.7773 H   0  0  0  0  0  0  0  0  0  0  0  0
    4.1917   -3.5369    3.7092 H   0  0  0  0  0  0  0  0  0  0  0  0
    3.5477   -3.0837    2.1318 H   0  0  0  0  0  0  0  0  0  0  0  0
    2.5015   -3.7932    3.3575 H   0  0  0  0  0  0  0  0  0  0  0  0
    5.2885    2.0641    6.5258 H   0  0  0  0  0  0  0  0  0  0  0  0
    1.3045    3.7436    2.6123 H   0  0  0  0  0  0  0  0  0  0  0  0
    3.7620    1.7344    2.6137 H   0  0  0  0  0  0  0  0  0  0  0  0
    2.3176    1.9363    1.7675 H   0  0  0  0  0  0  0  0  0  0  0  0
    2.8737    0.3813    2.0007 H   0  0  0  0  0  0  0  0  0  0  0  0
    1.8385    1.3626    5.9841 H   0  0  0  0  0  0  0  0  0  0  0  0
    3.4764   -1.0178    6.2483 H   0  0  0  0  0  0  0  0  0  0  0  0
    0.6913   -2.9047    7.7500 H   0  0  0  0  0  0  0  0  0  0  0  0
    1.4162   -2.0307    9.0783 H   0  0  0  0  0  0  0  0  0  0  0  0
    2.4481   -2.7494    7.8496 H   0  0  0  0  0  0  0  0  0  0  0  0
    0.2886    2.8288    8.6578 H   0  0  0  0  0  0  0  0  0  0  0  0
    2.5009    2.0309    7.3735 H   0  0  0  0  0  0  0  0  0  0  0  0
  1  2  1  0
  1 47  1  0
  1 48  1  0
  1 49  1  0
  2  3  1  0
  3  4  2  0
  3  5  1  0
  5 34  1  0
  5  6  1  1
  5  7  1  0
  6 50  1  0
  7 45  1  0
  7  8  1  1
  7  9  1  0
  8 51  1  0
  9 10  1  0
  9 11  1  0
  9 52  1  1
 10 53  1  0
 11 12  1  0
 11 13  1  0
 11 54  1  1
 12 55  1  0
 13 14  1  1
 13 16  1  0
 13 45  1  0
 14 15  1  0
 14 56  1  0
 14 57  1  0
 15 58  1  0
 16 41  1  0
 16 17  1  0
 16 59  1  1
 17 43  1  0
 17 18  1  0
 17 60  1  1
 18 19  1  0
 18 20  1  0
 18 61  1  6
 19 62  1  0
 20 36  1  0
 20 21  1  6
 20 22  1  0
 21 63  1  0
 21 64  1  0
 21 65  1  0
 22 23  1  6
 22 24  1  0
 43 22  1  6
 23 66  1  0
 24 25  1  0
 24 26  1  0
 24 67  1  1
 25 68  1  0
 25 69  1  0
 25 70  1  0
 26 27  2  0
 26 28  1  0
 28 29  2  0
 28 30  1  0
 30 38  1  0
 30 31  1  1
 30 32  1  0
 31 71  1  0
 32 33  2  0
 32 34  1  0
 34 35  1  6
 34 36  1  0
 35 72  1  0
 36 37  1  6
 36 38  1  0
 37 73  1  0
 37 74  1  0
 37 75  1  0
 38 39  1  0
 38 76  1  1
 39 41  1  0
 39 40  1  0
 39 77  1  1
 40 41  1  0
 41 42  1  1
 42 78  1  0
 42 79  1  0
 42 80  1  0
 43 44  2  0
 45 46  1  0
 45 81  1  1
 46 82  1  0
M  END
>  <i_m_ct_stereo_status>  (136) 
1

>  <s_m_source_file>  (136) 
/var/tmp/pbs.5075288.sched01/tmp4tfr24xl/130i3iej58d.sdf

>  <i_m_source_file_index>  (136) 
33

>  <i_lp_mmshare_version>  (136) 
48012

>  <i_f3d_flags>  (136) 
0

>  <s_epik_input>  (136) 
W0NIM11PQyg9TylbQ0BAXShbT0hdKShbQ0BAXTEyW09IXSlbQ0BdMyhbT0hdKVtDQF00KFtDSDNdKVtDQEBdNShbQ0gzXSlbQ0BAXTYoW09IXSlbQ0BASF0oW0NIM10pQyg9TylDKD1PKUMoW09IXSkoQzM9TylbQ0BIXTRbQ0BASF03W0NAXShPNykoW0NIM10pW0NAQEhdKFtDQEhdKFtTK102W08tXSlbQ0BIXTVbT0hdKVtDQEBdKFtDSDJdW09IXSkoW0NASF0yW09IXSlbQ0BIXShbT0hdKVtDQEBIXTFbT0hd

>  <s_epik_cmdline>  (136) 
J2VwaWtfcHl0aG9uJywgJy1waHQnLCAnMi4wJywgJy1waCcsICc3LjAnLCAnLXRuJywgJzgnLCAnLW1hJywgJzIwMCcsICctaW1hZScsICc8aW5maWxlLm1hZT4nLCAnLW9tYWUnLCAnPG91dGZpbGUubWFlPic=

>  <r_lp_tautomer_probability>  (136) 
1

>  <r_epik_Ionization_Penalty>  (136) 
3.89718e-05

>  <r_epik_Ionization_Penalty_Charging>  (136) 
0

>  <r_epik_Ionization_Penalty_Neutral>  (136) 
3.89718e-05

>  <r_epik_State_Penalty>  (136) 
-0

>  <r_epik_Charging_Adjusted_Penalty>  (136) 
0

>  <i_epik_Tot_Q>  (136) 
0

>  <i_epik_Tot_abs_Q>  (136) 
2

>  <s_epik_Chemistry_Notes>  (136) 
This compound has an ester and may undergo hydrolysis at high or low pH.

>  <s_lp_Force_Field>  (136) 
OPLS3e

>  <r_lp_Energy>  (136) 
350.319

>  <b_lp_Chiralities_Consistent>  (136) 
1

>  <s_lp_Variant>  (136) 
64:0-5

>  <s_i_glide_gridfile>  (136) 
pfpi4k_grid

>  <i_i_glide_lignum>  (136) 
33

>  <i_i_glide_rotatable_bonds>  (136) 
13

>  <r_i_docking_score>  (136) 
-4.03989

>  <r_i_glide_ligand_efficiency>  (136) 
-0.0878236

>  <r_i_glide_ligand_efficiency_sa>  (136) 
-0.314676

>  <r_i_glide_ligand_efficiency_ln>  (136) 
-0.836651

>  <r_i_glide_gscore>  (136) 
-4.03989

>  <r_i_glide_lipo>  (136) 
-0.0357425

>  <r_i_glide_hbond>  (136) 
-0.0644989

>  <r_i_glide_metal>  (136) 
-0

>  <r_i_glide_rewards>  (136) 
-1.19075

>  <r_i_glide_evdw>  (136) 
-24.2877

>  <r_i_glide_ecoul>  (136) 
-10.3782

>  <r_i_glide_erotb>  (136) 
0.0932432

>  <r_i_glide_esite>  (136) 
-0.0710222

>  <r_i_glide_emodel>  (136) 
-53.2407

>  <r_i_glide_energy>  (136) 
-34.6659

>  <r_i_glide_einternal>  (136) 
5.23297

>  <r_i_glide_intrahb_reward>  (136) 
-1

>  <i_i_glide_confnum>  (136) 
3

>  <i_i_glide_posenum>  (136) 
3

>  <r_i_glide_eff_state_penalty>  (136) 
0

>  <ligand_id>  (136) 
64

>  <original_smiles>  (136) 
COC(=O)C1(O)C2(O)C(O)C(O)C(CO)(C3C4C(O)C5(C)C(O)(C(C)C(=O)C(=O)C6(O)C(=O)C1(O)C5(C)C6C1OC13C)[S+]4[O-])C2O

>  <smiles>  (136) 
[H]OC([H])([H])C12C([H])(O[H])C([H])(O[H])C(O[H])(C1([H])O[H])C(O[H])(C(=O)OC([H])([H])[H])C1(O[H])C(=O)C3(O[H])C(=O)C(=O)C([H])(C([H])([H])[H])C4(O[H])S(=O)C5([H])C([H])(O[H])C4(C([H])([H])[H])C1(C([H])([H])[H])C3([H])C1([H])OC1(C([H])([H])[H])C52[H]

$$$$
64:4:1
     RDKit          3D

 82 88  0  0  1  0  0  0  0  0999 V2000
   -3.2489    2.8761    2.3588 C   0  0  0  0  0  0  0  0  0  0  0  0
   -2.0272    2.5131    3.0020 O   0  0  0  0  0  0  0  0  0  0  0  0
   -1.8047    2.8697    4.2939 C   0  0  0  0  0  0  0  0  0  0  0  0
   -2.6096    3.4974    4.9758 O   0  0  0  0  0  0  0  0  0  0  0  0
   -0.4617    2.3701    4.9158 C   0  0  1  0  0  0  0  0  0  0  0  0
   -0.2950    1.0857    4.3249 O   0  0  0  0  0  0  0  0  0  0  0  0
    0.7511    3.2504    4.1573 C   0  0  1  0  0  0  0  0  0  0  0  0
    0.9513    2.6128    2.8809 O   0  0  0  0  0  0  0  0  0  0  0  0
    0.6412    4.7607    3.6554 C   0  0  1  0  0  0  0  0  0  0  0  0
   -0.6079    5.3469    3.3319 O   0  0  0  0  0  0  0  0  0  0  0  0
    1.6648    5.6878    4.3919 C   0  0  1  0  0  0  0  0  0  0  0  0
    1.1719    6.9308    4.8602 O   0  0  0  0  0  0  0  0  0  0  0  0
    2.5224    4.8293    5.3784 C   0  0  1  0  0  0  0  0  0  0  0  0
    4.0154    5.1631    5.0050 C   0  0  0  0  0  0  0  0  0  0  0  0
    4.9996    4.3518    5.6128 O   0  0  0  0  0  0  0  0  0  0  0  0
    2.3478    5.2452    6.9602 C   0  0  1  0  0  0  0  0  0  0  0  0
    1.0455    5.8732    7.6507 C   0  0  1  0  0  0  0  0  0  0  0  0
   -0.3327    5.3108    7.4340 C   0  0  1  0  0  0  0  0  0  0  0  0
   -0.6308    5.0766    6.1305 O   0  0  0  0  0  0  0  0  0  0  0  0
   -0.8274    4.1903    8.3689 C   0  0  2  0  0  0  0  0  0  0  0  0
   -2.3971    4.4485    8.3510 C   0  0  0  0  0  0  0  0  0  0  0  0
   -0.1834    4.4598    9.8453 C   0  0  1  0  0  0  0  0  0  0  0  0
   -1.2696    4.7944   10.7096 O   0  0  0  0  0  0  0  0  0  0  0  0
    0.7129    3.4114   10.7497 C   0  0  1  0  0  0  0  0  0  0  0  0
    0.7743    3.8753   12.2307 C   0  0  0  0  0  0  0  0  0  0  0  0
    0.6430    1.8044   10.7528 C   0  0  0  0  0  0  0  0  0  0  0  0
    0.1267    1.2841   11.7447 O   0  0  0  0  0  0  0  0  0  0  0  0
    1.0918    0.7364    9.6002 C   0  0  0  0  0  0  0  0  0  0  0  0
    1.2695   -0.4307    9.9657 O   0  0  0  0  0  0  0  0  0  0  0  0
    1.3088    1.0553    8.0630 C   0  0  1  0  0  0  0  0  0  0  0  0
    2.5478    0.5070    7.6304 O   0  0  0  0  0  0  0  0  0  0  0  0
    0.2185    0.6460    7.0311 C   0  0  0  0  0  0  0  0  0  0  0  0
    0.0376   -0.5285    6.6973 O   0  0  0  0  0  0  0  0  0  0  0  0
   -0.6844    1.8618    6.5246 C   0  0  2  0  0  0  0  0  0  0  0  0
   -1.9941    1.2573    6.4533 O   0  0  0  0  0  0  0  0  0  0  0  0
   -0.4681    2.7249    7.9164 C   0  0  2  0  0  0  0  0  0  0  0  0
   -1.5176    1.9398    8.8887 C   0  0  0  0  0  0  0  0  0  0  0  0
    1.1474    2.5095    7.9010 C   0  0  1  0  0  0  0  0  0  0  0  0
    2.4151    3.1956    8.4808 C   0  0  1  0  0  0  0  0  0  0  0  0
    3.4920    3.1133    7.5510 O   0  0  0  0  0  0  0  0  0  0  0  0
    3.1304    4.4145    7.9384 C   0  0  1  0  0  0  0  0  0  0  0  0
    4.3241    5.1029    8.6149 C   0  0  0  0  0  0  0  0  0  0  0  0
    0.9226    5.9542    9.5244 S   0  0  0  0  0  0  0  0  0  0  0  0
    2.2555    5.8001   10.2548 O   0  0  0  0  0  0  0  0  0  0  0  0
    2.1811    3.3801    4.7552 C   0  0  1  0  0  0  0  0  0  0  0  0
    2.6910    2.1457    5.2179 O   0  0  0  0  0  0  0  0  0  0  0  0
   -3.3470    2.3851    1.3853 H   0  0  0  0  0  0  0  0  0  0  0  0
   -3.2932    3.9550    2.2034 H   0  0  0  0  0  0  0  0  0  0  0  0
   -4.1217    2.5664    2.9374 H   0  0  0  0  0  0  0  0  0  0  0  0
   -0.1742    1.2578    3.3977 H   0  0  0  0  0  0  0  0  0  0  0  0
    0.5972    3.1723    2.1805 H   0  0  0  0  0  0  0  0  0  0  0  0
    1.0734    4.8054    2.6518 H   0  0  0  0  0  0  0  0  0  0  0  0
   -0.6694    5.3198    2.3808 H   0  0  0  0  0  0  0  0  0  0  0  0
    2.3252    6.0441    3.5949 H   0  0  0  0  0  0  0  0  0  0  0  0
    0.9084    7.4385    4.1013 H   0  0  0  0  0  0  0  0  0  0  0  0
    4.2014    5.0629    3.9363 H   0  0  0  0  0  0  0  0  0  0  0  0
    4.2339    6.2075    5.2317 H   0  0  0  0  0  0  0  0  0  0  0  0
    4.8286    4.2870    6.5442 H   0  0  0  0  0  0  0  0  0  0  0  0
    2.9288    6.1683    6.9492 H   0  0  0  0  0  0  0  0  0  0  0  0
    1.0185    6.9167    7.3313 H   0  0  0  0  0  0  0  0  0  0  0  0
   -0.9331    6.1913    7.6470 H   0  0  0  0  0  0  0  0  0  0  0  0
   -0.0693    4.3862    5.8267 H   0  0  0  0  0  0  0  0  0  0  0  0
   -2.9705    3.9641    9.1415 H   0  0  0  0  0  0  0  0  0  0  0  0
   -2.8394    4.1343    7.4100 H   0  0  0  0  0  0  0  0  0  0  0  0
   -2.6561    5.4991    8.4982 H   0  0  0  0  0  0  0  0  0  0  0  0
   -1.4003    4.0964   11.3416 H   0  0  0  0  0  0  0  0  0  0  0  0
    1.7358    3.6662   10.5865 H   0  0  0  0  0  0  0  0  0  0  0  0
    1.6080    3.3927   12.7431 H   0  0  0  0  0  0  0  0  0  0  0  0
   -0.1309    3.6448   12.7957 H   0  0  0  0  0  0  0  0  0  0  0  0
    0.9551    4.9483   12.3109 H   0  0  0  0  0  0  0  0  0  0  0  0
    2.7350    0.8241    6.7531 H   0  0  0  0  0  0  0  0  0  0  0  0
   -2.6075    1.9060    6.1265 H   0  0  0  0  0  0  0  0  0  0  0  0
   -1.3854    0.8629    9.0012 H   0  0  0  0  0  0  0  0  0  0  0  0
   -2.5584    1.9935    8.5588 H   0  0  0  0  0  0  0  0  0  0  0  0
   -1.6348    2.3461    9.8928 H   0  0  0  0  0  0  0  0  0  0  0  0
    1.3136    2.8220    6.9009 H   0  0  0  0  0  0  0  0  0  0  0  0
    2.8106    2.7241    9.3745 H   0  0  0  0  0  0  0  0  0  0  0  0
    4.1113    6.1435    8.8608 H   0  0  0  0  0  0  0  0  0  0  0  0
    5.1951    5.1057    7.9723 H   0  0  0  0  0  0  0  0  0  0  0  0
    4.5919    4.5728    9.5296 H   0  0  0  0  0  0  0  0  0  0  0  0
    2.8025    3.4136    3.8608 H   0  0  0  0  0  0  0  0  0  0  0  0
    2.7154    1.5555    4.4715 H   0  0  0  0  0  0  0  0  0  0  0  0
  1  2  1  0
  1 47  1  0
  1 48  1  0
  1 49  1  0
  2  3  1  0
  3  4  2  0
  3  5  1  0
  5 34  1  0
  5  6  1  6
  5  7  1  0
  6 50  1  0
  7 45  1  0
  7  8  1  6
  7  9  1  0
  8 51  1  0
  9 10  1  0
  9 11  1  0
  9 52  1  6
 10 53  1  0
 11 12  1  0
 11 13  1  0
 11 54  1  6
 12 55  1  0
 13 14  1  6
 13 16  1  0
 13 45  1  0
 14 15  1  0
 14 56  1  0
 14 57  1  0
 15 58  1  0
 16 41  1  0
 16 17  1  0
 16 59  1  6
 17 43  1  0
 17 18  1  0
 17 60  1  6
 18 19  1  0
 18 20  1  0
 18 61  1  1
 19 62  1  0
 20 36  1  0
 20 21  1  1
 20 22  1  0
 21 63  1  0
 21 64  1  0
 21 65  1  0
 22 23  1  1
 22 24  1  0
 43 22  1  1
 23 66  1  0
 24 25  1  0
 24 26  1  0
 24 67  1  6
 25 68  1  0
 25 69  1  0
 25 70  1  0
 26 27  2  0
 26 28  1  0
 28 29  2  0
 28 30  1  0
 30 38  1  0
 30 31  1  6
 30 32  1  0
 31 71  1  0
 32 33  2  0
 32 34  1  0
 34 35  1  6
 34 36  1  0
 35 72  1  0
 36 37  1  1
 36 38  1  0
 37 73  1  0
 37 74  1  0
 37 75  1  0
 38 39  1  0
 38 76  1  6
 39 41  1  0
 39 40  1  0
 39 77  1  1
 40 41  1  0
 41 42  1  1
 42 78  1  0
 42 79  1  0
 42 80  1  0
 43 44  2  0
 45 46  1  0
 45 81  1  6
 46 82  1  0
M  END
>  <i_m_ct_stereo_status>  (137) 
1

>  <s_m_source_file>  (137) 
/var/tmp/pbs.5075288.sched01/tmp4tfr24xl/130i3iej58d.sdf

>  <i_m_source_file_index>  (137) 
33

>  <i_lp_mmshare_version>  (137) 
48012

>  <i_f3d_flags>  (137) 
0

>  <s_epik_input>  (137) 
W0NIM11PQyg9TylbQ0BAXShbT0hdKShbQ0BAXTEyW09IXSlbQ0BdMyhbT0hdKVtDQF00KFtDSDNdKVtDQEBdNShbQ0gzXSlbQ0BAXTYoW09IXSlbQ0BASF0oW0NIM10pQyg9TylDKD1PKUMoW09IXSkoQzM9TylbQ0BIXTRbQ0BASF03W0NAXShPNykoW0NIM10pW0NAQEhdKFtDQEhdKFtTK102W08tXSlbQ0BIXTVbT0hdKVtDQEBdKFtDSDJdW09IXSkoW0NASF0yW09IXSlbQ0BIXShbT0hdKVtDQEBIXTFbT0hd

>  <s_epik_cmdline>  (137) 
J2VwaWtfcHl0aG9uJywgJy1waHQnLCAnMi4wJywgJy1waCcsICc3LjAnLCAnLXRuJywgJzgnLCAnLW1hJywgJzIwMCcsICctaW1hZScsICc8aW5maWxlLm1hZT4nLCAnLW9tYWUnLCAnPG91dGZpbGUubWFlPic=

>  <r_lp_tautomer_probability>  (137) 
1

>  <r_epik_Ionization_Penalty>  (137) 
3.89718e-05

>  <r_epik_Ionization_Penalty_Charging>  (137) 
0

>  <r_epik_Ionization_Penalty_Neutral>  (137) 
3.89718e-05

>  <r_epik_State_Penalty>  (137) 
-0

>  <r_epik_Charging_Adjusted_Penalty>  (137) 
0

>  <i_epik_Tot_Q>  (137) 
0

>  <i_epik_Tot_abs_Q>  (137) 
2

>  <s_epik_Chemistry_Notes>  (137) 
This compound has an ester and may undergo hydrolysis at high or low pH.

>  <s_lp_Force_Field>  (137) 
OPLS3e

>  <r_lp_Energy>  (137) 
350.319

>  <b_lp_Chiralities_Consistent>  (137) 
1

>  <s_lp_Variant>  (137) 
64:0-5

>  <s_i_glide_gridfile>  (137) 
pfpi4k_grid

>  <i_i_glide_lignum>  (137) 
33

>  <i_i_glide_rotatable_bonds>  (137) 
13

>  <r_i_docking_score>  (137) 
-3.87503

>  <r_i_glide_ligand_efficiency>  (137) 
-0.0842397

>  <r_i_glide_ligand_efficiency_sa>  (137) 
-0.301835

>  <r_i_glide_ligand_efficiency_ln>  (137) 
-0.802509

>  <r_i_glide_gscore>  (137) 
-3.87503

>  <r_i_glide_lipo>  (137) 
-0.051787

>  <r_i_glide_hbond>  (137) 
0

>  <r_i_glide_metal>  (137) 
-0

>  <r_i_glide_rewards>  (137) 
-0.5

>  <r_i_glide_evdw>  (137) 
-25.3233

>  <r_i_glide_ecoul>  (137) 
-13.9389

>  <r_i_glide_erotb>  (137) 
0.0932432

>  <r_i_glide_esite>  (137) 
-0.0594826

>  <r_i_glide_emodel>  (137) 
-51.892

>  <r_i_glide_energy>  (137) 
-39.2622

>  <r_i_glide_einternal>  (137) 
7.27591

>  <r_i_glide_intrahb_reward>  (137) 
-0.5

>  <i_i_glide_confnum>  (137) 
3

>  <i_i_glide_posenum>  (137) 
20

>  <r_i_glide_eff_state_penalty>  (137) 
0

>  <ligand_id>  (137) 
64

>  <original_smiles>  (137) 
COC(=O)C1(O)C2(O)C(O)C(O)C(CO)(C3C4C(O)C5(C)C(O)(C(C)C(=O)C(=O)C6(O)C(=O)C1(O)C5(C)C6C1OC13C)[S+]4[O-])C2O

>  <smiles>  (137) 
[H]OC([H])([H])C12C([H])(O[H])C([H])(O[H])C(O[H])(C1([H])O[H])C(O[H])(C(=O)OC([H])([H])[H])C1(O[H])C(=O)C3(O[H])C(=O)C(=O)C([H])(C([H])([H])[H])C4(O[H])S(=O)C5([H])C([H])(O[H])C4(C([H])([H])[H])C1(C([H])([H])[H])C3([H])C1([H])OC1(C([H])([H])[H])C52[H]

$$$$
64:4:2
     RDKit          3D

 82 88  0  0  1  0  0  0  0  0999 V2000
   -3.0239    3.0268    3.3242 C   0  0  0  0  0  0  0  0  0  0  0  0
   -1.8026    2.7227    3.9534 O   0  0  0  0  0  0  0  0  0  0  0  0
   -0.7469    2.3356    3.2643 C   0  0  0  0  0  0  0  0  0  0  0  0
   -0.8471    1.9176    2.0932 O   0  0  0  0  0  0  0  0  0  0  0  0
    0.6036    2.3431    4.0410 C   0  0  1  0  0  0  0  0  0  0  0  0
    1.4153    1.4866    3.2422 O   0  0  0  0  0  0  0  0  0  0  0  0
    1.3501    3.8435    3.8187 C   0  0  1  0  0  0  0  0  0  0  0  0
    1.9792    3.7799    2.5242 O   0  0  0  0  0  0  0  0  0  0  0  0
    0.6325    5.2565    3.6433 C   0  0  1  0  0  0  0  0  0  0  0  0
   -0.7247    5.3198    3.2768 O   0  0  0  0  0  0  0  0  0  0  0  0
    1.0522    6.2590    4.7722 C   0  0  1  0  0  0  0  0  0  0  0  0
   -0.0000    6.9760    5.3995 O   0  0  0  0  0  0  0  0  0  0  0  0
    2.1007    5.5728    5.7148 C   0  0  1  0  0  0  0  0  0  0  0  0
    3.3095    6.5873    5.7634 C   0  0  0  0  0  0  0  0  0  0  0  0
    4.5158    6.0736    6.2819 O   0  0  0  0  0  0  0  0  0  0  0  0
    1.5797    5.3907    7.2710 C   0  0  1  0  0  0  0  0  0  0  0  0
    0.0809    5.1952    7.7948 C   0  0  1  0  0  0  0  0  0  0  0  0
   -0.8595    4.2046    7.1696 C   0  0  1  0  0  0  0  0  0  0  0  0
   -0.9257    4.3056    5.8103 O   0  0  0  0  0  0  0  0  0  0  0  0
   -0.8699    2.7437    7.6728 C   0  0  2  0  0  0  0  0  0  0  0  0
   -2.3661    2.3253    7.3408 C   0  0  0  0  0  0  0  0  0  0  0  0
   -0.5778    2.8046    9.2721 C   0  0  1  0  0  0  0  0  0  0  0  0
   -1.7763    2.3576    9.9012 O   0  0  0  0  0  0  0  0  0  0  0  0
    0.5973    2.0037   10.0932 C   0  0  1  0  0  0  0  0  0  0  0  0
    0.2774    1.9827   11.6156 C   0  0  0  0  0  0  0  0  0  0  0  0
    1.2675    0.5844    9.7273 C   0  0  0  0  0  0  0  0  0  0  0  0
    0.9046   -0.3789   10.4053 O   0  0  0  0  0  0  0  0  0  0  0  0
    2.2812    0.2007    8.5046 C   0  0  0  0  0  0  0  0  0  0  0  0
    2.9442   -0.8249    8.6508 O   0  0  0  0  0  0  0  0  0  0  0  0
    2.4836    1.0209    7.1610 C   0  0  1  0  0  0  0  0  0  0  0  0
    3.8739    1.1927    6.9126 O   0  0  0  0  0  0  0  0  0  0  0  0
    1.8170    0.5485    5.8386 C   0  0  0  0  0  0  0  0  0  0  0  0
    2.2801   -0.3762    5.1673 O   0  0  0  0  0  0  0  0  0  0  0  0
    0.5022    1.3522    5.4185 C   0  0  2  0  0  0  0  0  0  0  0  0
   -0.3701    0.3118    4.9322 O   0  0  0  0  0  0  0  0  0  0  0  0
    0.1653    1.7760    6.9768 C   0  0  2  0  0  0  0  0  0  0  0  0
   -0.4932    0.3718    7.4910 C   0  0  0  0  0  0  0  0  0  0  0  0
    1.6895    2.2543    7.2921 C   0  0  1  0  0  0  0  0  0  0  0  0
    2.4340    3.2070    8.2743 C   0  0  1  0  0  0  0  0  0  0  0  0
    3.5113    3.8502    7.6057 O   0  0  0  0  0  0  0  0  0  0  0  0
    2.5564    4.7023    8.1846 C   0  0  1  0  0  0  0  0  0  0  0  0
    3.2229    5.5966    9.2353 C   0  0  0  0  0  0  0  0  0  0  0  0
   -0.2570    4.6475    9.5547 S   0  0  0  0  0  0  0  0  0  0  0  0
    0.9174    4.8331   10.5042 O   0  0  0  0  0  0  0  0  0  0  0  0
    2.5093    4.3617    4.7237 C   0  0  1  0  0  0  0  0  0  0  0  0
    3.4556    3.3417    4.9813 O   0  0  0  0  0  0  0  0  0  0  0  0
   -3.6536    3.4804    4.0646 H   0  0  0  0  0  0  0  0  0  0  0  0
   -3.5644    2.1612    2.9794 H   0  0  0  0  0  0  0  0  0  0  0  0
   -2.9284    3.7003    2.4696 H   0  0  0  0  0  0  0  0  0  0  0  0
    2.2948    1.4550    3.5839 H   0  0  0  0  0  0  0  0  0  0  0  0
    1.2952    3.8400    1.8525 H   0  0  0  0  0  0  0  0  0  0  0  0
    1.0515    5.7579    2.7559 H   0  0  0  0  0  0  0  0  0  0  0  0
   -0.7298    5.0407    2.3624 H   0  0  0  0  0  0  0  0  0  0  0  0
    1.5371    7.0757    4.2219 H   0  0  0  0  0  0  0  0  0  0  0  0
    0.3857    7.7124    5.8524 H   0  0  0  0  0  0  0  0  0  0  0  0
    3.5842    6.9499    4.7731 H   0  0  0  0  0  0  0  0  0  0  0  0
    3.0268    7.4770    6.3241 H   0  0  0  0  0  0  0  0  0  0  0  0
    4.3312    5.5997    7.0852 H   0  0  0  0  0  0  0  0  0  0  0  0
    1.6791    6.4284    7.5931 H   0  0  0  0  0  0  0  0  0  0  0  0
   -0.3952    6.1682    7.7062 H   0  0  0  0  0  0  0  0  0  0  0  0
   -1.8089    4.6317    7.4556 H   0  0  0  0  0  0  0  0  0  0  0  0
   -0.1149    3.9552    5.4872 H   0  0  0  0  0  0  0  0  0  0  0  0
   -2.7252    1.4338    7.8461 H   0  0  0  0  0  0  0  0  0  0  0  0
   -2.5111    2.1539    6.2783 H   0  0  0  0  0  0  0  0  0  0  0  0
   -3.0985    3.0680    7.6473 H   0  0  0  0  0  0  0  0  0  0  0  0
   -1.6078    2.1834   10.8206 H   0  0  0  0  0  0  0  0  0  0  0  0
    1.4035    2.6920   10.2252 H   0  0  0  0  0  0  0  0  0  0  0  0
    1.1830    1.7611   12.1841 H   0  0  0  0  0  0  0  0  0  0  0  0
   -0.4749    1.2404   11.8980 H   0  0  0  0  0  0  0  0  0  0  0  0
   -0.0627    2.9583   11.9691 H   0  0  0  0  0  0  0  0  0  0  0  0
    3.9851    1.8002    6.1852 H   0  0  0  0  0  0  0  0  0  0  0  0
   -1.1412    0.7029    4.5429 H   0  0  0  0  0  0  0  0  0  0  0  0
    0.1006   -0.5443    7.3909 H   0  0  0  0  0  0  0  0  0  0  0  0
   -1.3970    0.0946    6.9485 H   0  0  0  0  0  0  0  0  0  0  0  0
   -0.8926    0.3785    8.5073 H   0  0  0  0  0  0  0  0  0  0  0  0
    1.7878    2.8888    6.4476 H   0  0  0  0  0  0  0  0  0  0  0  0
    2.9068    2.6926    9.1087 H   0  0  0  0  0  0  0  0  0  0  0  0
    2.5321    6.3275    9.6501 H   0  0  0  0  0  0  0  0  0  0  0  0
    4.0495    6.1476    8.8005 H   0  0  0  0  0  0  0  0  0  0  0  0
    3.6137    4.9827   10.0479 H   0  0  0  0  0  0  0  0  0  0  0  0
    3.1477    4.9220    4.0361 H   0  0  0  0  0  0  0  0  0  0  0  0
    3.8305    3.0885    4.1423 H   0  0  0  0  0  0  0  0  0  0  0  0
  1  2  1  0
  1 47  1  0
  1 48  1  0
  1 49  1  0
  2  3  1  0
  3  4  2  0
  3  5  1  0
  5 34  1  0
  5  6  1  6
  5  7  1  0
  6 50  1  0
  7 45  1  0
  7  8  1  6
  7  9  1  0
  8 51  1  0
  9 10  1  0
  9 11  1  0
  9 52  1  6
 10 53  1  0
 11 12  1  0
 11 13  1  0
 11 54  1  6
 12 55  1  0
 13 14  1  1
 13 16  1  0
 13 45  1  0
 14 15  1  0
 14 56  1  0
 14 57  1  0
 15 58  1  0
 16 41  1  0
 16 17  1  0
 16 59  1  1
 17 43  1  0
 17 18  1  0
 17 60  1  1
 18 19  1  0
 18 20  1  0
 18 61  1  1
 19 62  1  0
 20 36  1  0
 20 21  1  1
 20 22  1  0
 21 63  1  0
 21 64  1  0
 21 65  1  0
 22 23  1  1
 22 24  1  0
 43 22  1  6
 23 66  1  0
 24 25  1  0
 24 26  1  0
 24 67  1  1
 25 68  1  0
 25 69  1  0
 25 70  1  0
 26 27  2  0
 26 28  1  0
 28 29  2  0
 28 30  1  0
 30 38  1  0
 30 31  1  6
 30 32  1  0
 31 71  1  0
 32 33  2  0
 32 34  1  0
 34 35  1  6
 34 36  1  0
 35 72  1  0
 36 37  1  1
 36 38  1  0
 37 73  1  0
 37 74  1  0
 37 75  1  0
 38 39  1  0
 38 76  1  6
 39 41  1  0
 39 40  1  0
 39 77  1  1
 40 41  1  0
 41 42  1  1
 42 78  1  0
 42 79  1  0
 42 80  1  0
 43 44  2  0
 45 46  1  0
 45 81  1  6
 46 82  1  0
M  END
>  <i_m_ct_stereo_status>  (138) 
1

>  <s_m_source_file>  (138) 
/var/tmp/pbs.5075288.sched01/tmp4tfr24xl/130i3iej58d.sdf

>  <i_m_source_file_index>  (138) 
33

>  <i_lp_mmshare_version>  (138) 
48012

>  <i_f3d_flags>  (138) 
0

>  <s_epik_input>  (138) 
W0NIM11PQyg9TylbQ0BAXShbT0hdKShbQ0BAXTEyW09IXSlbQ0BdMyhbT0hdKVtDQF00KFtDSDNdKVtDQEBdNShbQ0gzXSlbQ0BAXTYoW09IXSlbQ0BASF0oW0NIM10pQyg9TylDKD1PKUMoW09IXSkoQzM9TylbQ0BIXTRbQ0BASF03W0NAXShPNykoW0NIM10pW0NAQEhdKFtDQEhdKFtTK102W08tXSlbQ0BIXTVbT0hdKVtDQEBdKFtDSDJdW09IXSkoW0NASF0yW09IXSlbQ0BIXShbT0hdKVtDQEBIXTFbT0hd

>  <s_epik_cmdline>  (138) 
J2VwaWtfcHl0aG9uJywgJy1waHQnLCAnMi4wJywgJy1waCcsICc3LjAnLCAnLXRuJywgJzgnLCAnLW1hJywgJzIwMCcsICctaW1hZScsICc8aW5maWxlLm1hZT4nLCAnLW9tYWUnLCAnPG91dGZpbGUubWFlPic=

>  <r_lp_tautomer_probability>  (138) 
1

>  <r_epik_Ionization_Penalty>  (138) 
3.89718e-05

>  <r_epik_Ionization_Penalty_Charging>  (138) 
0

>  <r_epik_Ionization_Penalty_Neutral>  (138) 
3.89718e-05

>  <r_epik_State_Penalty>  (138) 
-0

>  <r_epik_Charging_Adjusted_Penalty>  (138) 
0

>  <i_epik_Tot_Q>  (138) 
0

>  <i_epik_Tot_abs_Q>  (138) 
2

>  <s_epik_Chemistry_Notes>  (138) 
This compound has an ester and may undergo hydrolysis at high or low pH.

>  <s_lp_Force_Field>  (138) 
OPLS3e

>  <r_lp_Energy>  (138) 
350.319

>  <b_lp_Chiralities_Consistent>  (138) 
1

>  <s_lp_Variant>  (138) 
64:0-5

>  <s_i_glide_gridfile>  (138) 
pfpi4k_grid

>  <i_i_glide_lignum>  (138) 
33

>  <i_i_glide_rotatable_bonds>  (138) 
13

>  <r_i_docking_score>  (138) 
-3.52147

>  <r_i_glide_ligand_efficiency>  (138) 
-0.0765538

>  <r_i_glide_ligand_efficiency_sa>  (138) 
-0.274296

>  <r_i_glide_ligand_efficiency_ln>  (138) 
-0.729289

>  <r_i_glide_gscore>  (138) 
-3.52147

>  <r_i_glide_lipo>  (138) 
-0.027892

>  <r_i_glide_hbond>  (138) 
0

>  <r_i_glide_metal>  (138) 
-0

>  <r_i_glide_rewards>  (138) 
-0.5

>  <r_i_glide_evdw>  (138) 
-23.0898

>  <r_i_glide_ecoul>  (138) 
-12.5023

>  <r_i_glide_erotb>  (138) 
0.0932432

>  <r_i_glide_esite>  (138) 
-0.056993

>  <r_i_glide_emodel>  (138) 
-48.2277

>  <r_i_glide_energy>  (138) 
-35.5921

>  <r_i_glide_einternal>  (138) 
3.13618

>  <r_i_glide_intrahb_reward>  (138) 
-0.5

>  <i_i_glide_confnum>  (138) 
3

>  <i_i_glide_posenum>  (138) 
10

>  <r_i_glide_eff_state_penalty>  (138) 
0

>  <ligand_id>  (138) 
64

>  <original_smiles>  (138) 
COC(=O)C1(O)C2(O)C(O)C(O)C(CO)(C3C4C(O)C5(C)C(O)(C(C)C(=O)C(=O)C6(O)C(=O)C1(O)C5(C)C6C1OC13C)[S+]4[O-])C2O

>  <smiles>  (138) 
[H]OC([H])([H])C12C([H])(O[H])C([H])(O[H])C(O[H])(C1([H])O[H])C(O[H])(C(=O)OC([H])([H])[H])C1(O[H])C(=O)C3(O[H])C(=O)C(=O)C([H])(C([H])([H])[H])C4(O[H])S(=O)C5([H])C([H])(O[H])C4(C([H])([H])[H])C1(C([H])([H])[H])C3([H])C1([H])OC1(C([H])([H])[H])C52[H]

$$$$
64:5:0
     RDKit          3D

 82 88  0  0  1  0  0  0  0  0999 V2000
    2.7713   -0.4980   11.5961 C   0  0  0  0  0  0  0  0  0  0  0  0
    2.5224   -0.3828   10.2023 O   0  0  0  0  0  0  0  0  0  0  0  0
    3.2755    0.4611    9.4795 C   0  0  0  0  0  0  0  0  0  0  0  0
    4.1952    1.1265    9.9698 O   0  0  0  0  0  0  0  0  0  0  0  0
    2.9033    0.5359    7.9423 C   0  0  1  0  0  0  0  0  0  0  0  0
    4.0519    1.1802    7.4018 O   0  0  0  0  0  0  0  0  0  0  0  0
    3.1539   -0.9649    7.2903 C   0  0  1  0  0  0  0  0  0  0  0  0
    4.2905   -1.5068    7.9591 O   0  0  0  0  0  0  0  0  0  0  0  0
    2.1228   -2.1112    7.4464 C   0  0  1  0  0  0  0  0  0  0  0  0
    1.0481   -1.7790    8.2688 O   0  0  0  0  0  0  0  0  0  0  0  0
    1.7761   -2.5844    5.9902 C   0  0  1  0  0  0  0  0  0  0  0  0
    0.5102   -3.1441    5.7613 O   0  0  0  0  0  0  0  0  0  0  0  0
    2.3535   -1.5925    4.9158 C   0  0  1  0  0  0  0  0  0  0  0  0
    2.7553   -2.4164    3.6641 C   0  0  0  0  0  0  0  0  0  0  0  0
    1.6151   -2.8624    2.9686 O   0  0  0  0  0  0  0  0  0  0  0  0
    1.5187   -0.2924    4.5398 C   0  0  2  0  0  0  0  0  0  0  0  0
   -0.0131   -0.3689    4.2577 C   0  0  1  0  0  0  0  0  0  0  0  0
   -0.7719   -0.0460    5.5195 C   0  0  1  0  0  0  0  0  0  0  0  0
   -0.7170   -0.9117    6.5978 O   0  0  0  0  0  0  0  0  0  0  0  0
   -0.7999    1.4429    5.9399 C   0  0  2  0  0  0  0  0  0  0  0  0
   -2.0645    1.3444    6.9199 C   0  0  0  0  0  0  0  0  0  0  0  0
   -1.1908    2.2536    4.5921 C   0  0  1  0  0  0  0  0  0  0  0  0
   -2.5682    2.5771    4.6628 O   0  0  0  0  0  0  0  0  0  0  0  0
   -0.5315    3.6453    4.0723 C   0  0  1  0  0  0  0  0  0  0  0  0
   -1.4424    4.4080    3.0752 C   0  0  0  0  0  0  0  0  0  0  0  0
    0.1297    4.7010    5.0251 C   0  0  0  0  0  0  0  0  0  0  0  0
   -0.5423    5.6281    5.4827 O   0  0  0  0  0  0  0  0  0  0  0  0
    1.6851    4.6530    5.3818 C   0  0  0  0  0  0  0  0  0  0  0  0
    2.3658    5.3914    4.6564 O   0  0  0  0  0  0  0  0  0  0  0  0
    2.5014    3.7692    6.4785 C   0  0  2  0  0  0  0  0  0  0  0  0
    2.5456    5.0599    7.0864 O   0  0  0  0  0  0  0  0  0  0  0  0
    2.1784    3.0115    7.8983 C   0  0  0  0  0  0  0  0  0  0  0  0
    2.4631    3.4756    9.0219 O   0  0  0  0  0  0  0  0  0  0  0  0
    1.5361    1.5602    7.8325 C   0  0  2  0  0  0  0  0  0  0  0  0
    0.6632    1.2231    8.8915 O   0  0  0  0  0  0  0  0  0  0  0  0
    0.5174    2.0977    6.6611 C   0  0  2  0  0  0  0  0  0  0  0  0
   -0.3710    3.2527    7.4475 C   0  0  0  0  0  0  0  0  0  0  0  0
    1.7117    2.6333    5.7295 C   0  0  0  0  0  0  0  0  0  0  0  0
    2.1201    2.1830    4.2448 C   0  0  1  0  0  0  0  0  0  0  0  0
    3.3403    1.4435    4.2003 O   0  0  0  0  0  0  0  0  0  0  0  0
    2.2039    0.7760    3.7056 C   0  0  1  0  0  0  0  0  0  0  0  0
    2.3856    0.4481    2.2203 C   0  0  0  0  0  0  0  0  0  0  0  0
   -0.8655    0.9840    3.2484 S   0  0  0  0  0  0  0  0  0  0  0  0
    0.0030    1.6342    2.1759 O   0  0  0  0  0  0  0  0  0  0  0  0
    3.5879   -1.2160    5.7855 C   0  0  1  0  0  0  0  0  0  0  0  0
    4.6159   -0.4471    5.2068 O   0  0  0  0  0  0  0  0  0  0  0  0
    2.0791   -1.2219   12.0281 H   0  0  0  0  0  0  0  0  0  0  0  0
    2.6139    0.4612   12.0973 H   0  0  0  0  0  0  0  0  0  0  0  0
    3.7924   -0.8339   11.8040 H   0  0  0  0  0  0  0  0  0  0  0  0
    4.0194    1.1418    6.4472 H   0  0  0  0  0  0  0  0  0  0  0  0
    4.5128   -2.3403    7.5453 H   0  0  0  0  0  0  0  0  0  0  0  0
    2.5664   -2.9817    7.9487 H   0  0  0  0  0  0  0  0  0  0  0  0
    1.4121   -1.6395    9.1386 H   0  0  0  0  0  0  0  0  0  0  0  0
    2.3871   -3.4877    5.9024 H   0  0  0  0  0  0  0  0  0  0  0  0
    0.5755   -3.6336    4.9473 H   0  0  0  0  0  0  0  0  0  0  0  0
    3.4383   -1.8804    3.0129 H   0  0  0  0  0  0  0  0  0  0  0  0
    3.3179   -3.3050    3.9552 H   0  0  0  0  0  0  0  0  0  0  0  0
    1.2515   -2.1348    2.4684 H   0  0  0  0  0  0  0  0  0  0  0  0
    1.5258    0.1361    5.5222 H   0  0  0  0  0  0  0  0  0  0  0  0
   -0.2812   -1.3397    3.8407 H   0  0  0  0  0  0  0  0  0  0  0  0
   -1.7693   -0.2987    5.1721 H   0  0  0  0  0  0  0  0  0  0  0  0
    0.1596   -0.9585    6.9897 H   0  0  0  0  0  0  0  0  0  0  0  0
   -2.6372    2.2567    7.1032 H   0  0  0  0  0  0  0  0  0  0  0  0
   -1.7662    0.9737    7.8973 H   0  0  0  0  0  0  0  0  0  0  0  0
   -2.8476    0.6823    6.5497 H   0  0  0  0  0  0  0  0  0  0  0  0
   -2.9831    2.1505    3.9306 H   0  0  0  0  0  0  0  0  0  0  0  0
    0.2664    3.3783    3.4058 H   0  0  0  0  0  0  0  0  0  0  0  0
   -0.8847    5.2167    2.5948 H   0  0  0  0  0  0  0  0  0  0  0  0
   -2.3181    4.8705    3.5383 H   0  0  0  0  0  0  0  0  0  0  0  0
   -1.7745    3.7366    2.2812 H   0  0  0  0  0  0  0  0  0  0  0  0
    2.7767    5.6967    6.4081 H   0  0  0  0  0  0  0  0  0  0  0  0
    1.1466    1.3138    9.6993 H   0  0  0  0  0  0  0  0  0  0  0  0
    0.0989    4.1946    7.7295 H   0  0  0  0  0  0  0  0  0  0  0  0
   -0.8180    2.9190    8.3880 H   0  0  0  0  0  0  0  0  0  0  0  0
   -1.2048    3.6322    6.8679 H   0  0  0  0  0  0  0  0  0  0  0  0
    2.4418    1.8975    5.9337 H   0  0  0  0  0  0  0  0  0  0  0  0
    2.1625    2.9729    3.4971 H   0  0  0  0  0  0  0  0  0  0  0  0
    1.5983   -0.2021    1.8625 H   0  0  0  0  0  0  0  0  0  0  0  0
    3.3493   -0.0008    2.0306 H   0  0  0  0  0  0  0  0  0  0  0  0
    2.3412    1.3658    1.6316 H   0  0  0  0  0  0  0  0  0  0  0  0
    4.1275   -2.1689    5.8166 H   0  0  0  0  0  0  0  0  0  0  0  0
    4.2213    0.3113    4.7535 H   0  0  0  0  0  0  0  0  0  0  0  0
  1  2  1  0
  1 47  1  0
  1 48  1  0
  1 49  1  0
  2  3  1  0
  3  4  2  0
  3  5  1  0
  5 34  1  0
  5  6  1  6
  5  7  1  0
  6 50  1  0
  7 45  1  0
  7  8  1  1
  7  9  1  0
  8 51  1  0
  9 10  1  0
  9 11  1  0
  9 52  1  1
 10 53  1  0
 11 12  1  0
 11 13  1  0
 11 54  1  6
 12 55  1  0
 13 14  1  6
 13 16  1  0
 13 45  1  0
 14 15  1  0
 14 56  1  0
 14 57  1  0
 15 58  1  0
 16 41  1  0
 16 17  1  0
 16 59  1  1
 17 43  1  0
 17 18  1  0
 17 60  1  6
 18 19  1  0
 18 20  1  0
 18 61  1  6
 19 62  1  0
 20 36  1  0
 20 21  1  1
 20 22  1  0
 21 63  1  0
 21 64  1  0
 21 65  1  0
 22 23  1  1
 22 24  1  0
 43 22  1  1
 23 66  1  0
 24 25  1  0
 24 26  1  0
 24 67  1  6
 25 68  1  0
 25 69  1  0
 25 70  1  0
 26 27  2  0
 26 28  1  0
 28 29  2  0
 28 30  1  0
 30 38  1  0
 30 31  1  1
 30 32  1  0
 31 71  1  0
 32 33  2  0
 32 34  1  0
 34 35  1  1
 34 36  1  0
 35 72  1  0
 36 37  1  1
 36 38  1  0
 37 73  1  0
 37 74  1  0
 37 75  1  0
 38 39  1  0
 38 76  1  0
 39 41  1  0
 39 40  1  0
 39 77  1  6
 40 41  1  0
 41 42  1  6
 42 78  1  0
 42 79  1  0
 42 80  1  0
 43 44  2  0
 45 46  1  0
 45 81  1  1
 46 82  1  0
M  END
>  <i_m_ct_stereo_status>  (139) 
1

>  <s_m_source_file>  (139) 
/var/tmp/pbs.5075288.sched01/tmp4tfr24xl/130i3iej58d.sdf

>  <i_m_source_file_index>  (139) 
34

>  <i_lp_mmshare_version>  (139) 
48012

>  <i_f3d_flags>  (139) 
0

>  <s_epik_input>  (139) 
W0NIM11PQyg9TylbQ0BAXShbT0hdKShbQ0BAXTEyW09IXSlbQ0BdMyhbT0hdKVtDQF00KFtDSDNdKVtDQEBdNShbQ0gzXSlbQ0BAXTYoW09IXSlbQ0BASF0oW0NIM10pQyg9TylDKD1PKUMoW09IXSkoQzM9TylbQ0BIXTRbQ0BASF03W0NAXShPNykoW0NIM10pW0NAQEhdKFtDQEhdKFtTK102W08tXSlbQ0BIXTVbT0hdKVtDQEBdKFtDSDJdW09IXSkoW0NASF0yW09IXSlbQ0BIXShbT0hdKVtDQEBIXTFbT0hd

>  <s_epik_cmdline>  (139) 
J2VwaWtfcHl0aG9uJywgJy1waHQnLCAnMi4wJywgJy1waCcsICc3LjAnLCAnLXRuJywgJzgnLCAnLW1hJywgJzIwMCcsICctaW1hZScsICc8aW5maWxlLm1hZT4nLCAnLW9tYWUnLCAnPG91dGZpbGUubWFlPic=

>  <r_lp_tautomer_probability>  (139) 
1

>  <r_epik_Ionization_Penalty>  (139) 
3.89718e-05

>  <r_epik_Ionization_Penalty_Charging>  (139) 
0

>  <r_epik_Ionization_Penalty_Neutral>  (139) 
3.89718e-05

>  <r_epik_State_Penalty>  (139) 
-0

>  <r_epik_Charging_Adjusted_Penalty>  (139) 
0

>  <i_epik_Tot_Q>  (139) 
0

>  <i_epik_Tot_abs_Q>  (139) 
2

>  <s_epik_Chemistry_Notes>  (139) 
This compound has an ester and may undergo hydrolysis at high or low pH.

>  <s_lp_Force_Field>  (139) 
OPLS3e

>  <r_lp_Energy>  (139) 
463.595

>  <b_lp_Chiralities_Consistent>  (139) 
1

>  <s_lp_Variant>  (139) 
64:0-6

>  <s_i_glide_gridfile>  (139) 
pfpi4k_grid

>  <i_i_glide_lignum>  (139) 
34

>  <i_i_glide_rotatable_bonds>  (139) 
13

>  <r_i_docking_score>  (139) 
-4.79731

>  <r_i_glide_ligand_efficiency>  (139) 
-0.104289

>  <r_i_glide_ligand_efficiency_sa>  (139) 
-0.373674

>  <r_i_glide_ligand_efficiency_ln>  (139) 
-0.993511

>  <r_i_glide_gscore>  (139) 
-4.79731

>  <r_i_glide_lipo>  (139) 
-6.51536e-05

>  <r_i_glide_hbond>  (139) 
0

>  <r_i_glide_metal>  (139) 
-0

>  <r_i_glide_rewards>  (139) 
-2.5

>  <r_i_glide_evdw>  (139) 
-23.4641

>  <r_i_glide_ecoul>  (139) 
-7.678

>  <r_i_glide_erotb>  (139) 
0.0932432

>  <r_i_glide_esite>  (139) 
-0.0655796

>  <r_i_glide_emodel>  (139) 
-62.5169

>  <r_i_glide_energy>  (139) 
-31.1421

>  <r_i_glide_einternal>  (139) 
3.18627

>  <r_i_glide_intrahb_reward>  (139) 
-2.5

>  <i_i_glide_confnum>  (139) 
1

>  <i_i_glide_posenum>  (139) 
8

>  <r_i_glide_eff_state_penalty>  (139) 
0

>  <ligand_id>  (139) 
64

>  <original_smiles>  (139) 
COC(=O)C1(O)C2(O)C(O)C(O)C(CO)(C3C4C(O)C5(C)C(O)(C(C)C(=O)C(=O)C6(O)C(=O)C1(O)C5(C)C6C1OC13C)[S+]4[O-])C2O

>  <smiles>  (139) 
[H]OC([H])([H])C12C([H])(O[H])C([H])(O[H])C(O[H])(C1([H])O[H])C(O[H])(C(=O)OC([H])([H])[H])C1(O[H])C(=O)C3(O[H])C(=O)C(=O)C([H])(C([H])([H])[H])C4(O[H])S(=O)C5([H])C([H])(O[H])C4(C([H])([H])[H])C1(C([H])([H])[H])C3([H])C1([H])OC1(C([H])([H])[H])C52[H]

$$$$
64:5:1
     RDKit          3D

 82 88  0  0  1  0  0  0  0  0999 V2000
    4.3063    1.4143   11.3344 C   0  0  0  0  0  0  0  0  0  0  0  0
    3.9680    1.3602    9.9615 O   0  0  0  0  0  0  0  0  0  0  0  0
    3.1311    0.4118    9.4817 C   0  0  0  0  0  0  0  0  0  0  0  0
    2.6052   -0.4660   10.1759 O   0  0  0  0  0  0  0  0  0  0  0  0
    2.8349    0.5398    7.9370 C   0  0  1  0  0  0  0  0  0  0  0  0
    4.0024    1.1843    7.4333 O   0  0  0  0  0  0  0  0  0  0  0  0
    3.0900   -0.9548    7.2662 C   0  0  1  0  0  0  0  0  0  0  0  0
    4.2309   -1.5042    7.9237 O   0  0  0  0  0  0  0  0  0  0  0  0
    2.0380   -2.0827    7.4026 C   0  0  1  0  0  0  0  0  0  0  0  0
    0.9672   -1.7265    8.2214 O   0  0  0  0  0  0  0  0  0  0  0  0
    1.7115   -2.5400    5.9363 C   0  0  1  0  0  0  0  0  0  0  0  0
    0.4506   -3.0973    5.6696 O   0  0  0  0  0  0  0  0  0  0  0  0
    2.3176   -1.5447    4.8811 C   0  0  1  0  0  0  0  0  0  0  0  0
    2.7374   -2.3618    3.6302 C   0  0  0  0  0  0  0  0  0  0  0  0
    1.6047   -2.8193    2.9282 O   0  0  0  0  0  0  0  0  0  0  0  0
    1.5030   -0.2345    4.5057 C   0  0  2  0  0  0  0  0  0  0  0  0
   -0.0263   -0.2975    4.1886 C   0  0  1  0  0  0  0  0  0  0  0  0
   -0.8173    0.0068    5.4375 C   0  0  1  0  0  0  0  0  0  0  0  0
   -0.8044   -0.8906    6.4906 O   0  0  0  0  0  0  0  0  0  0  0  0
   -0.8324    1.4870    5.8890 C   0  0  2  0  0  0  0  0  0  0  0  0
   -2.1129    1.3816    6.8510 C   0  0  0  0  0  0  0  0  0  0  0  0
   -1.1968    2.3251    4.5458 C   0  0  1  0  0  0  0  0  0  0  0  0
   -2.5804    2.6491    4.5933 O   0  0  0  0  0  0  0  0  0  0  0  0
   -0.5203    3.7207    4.0550 C   0  0  1  0  0  0  0  0  0  0  0  0
   -1.4040    4.4940    3.0457 C   0  0  0  0  0  0  0  0  0  0  0  0
    0.1308    4.7575    5.0356 C   0  0  0  0  0  0  0  0  0  0  0  0
   -0.5394    5.6835    5.4946 O   0  0  0  0  0  0  0  0  0  0  0  0
    1.6795    4.6937    5.4173 C   0  0  0  0  0  0  0  0  0  0  0  0
    2.3801    5.4408    4.7136 O   0  0  0  0  0  0  0  0  0  0  0  0
    2.4709    3.7967    6.5159 C   0  0  2  0  0  0  0  0  0  0  0  0
    2.5077    5.0797    7.1433 O   0  0  0  0  0  0  0  0  0  0  0  0
    2.1130    3.0227    7.9232 C   0  0  0  0  0  0  0  0  0  0  0  0
    2.3178    3.5018    9.0572 O   0  0  0  0  0  0  0  0  0  0  0  0
    1.4714    1.5700    7.8219 C   0  0  2  0  0  0  0  0  0  0  0  0
    0.5896    1.2154    8.8708 O   0  0  0  0  0  0  0  0  0  0  0  0
    0.4750    2.1272    6.6416 C   0  0  2  0  0  0  0  0  0  0  0  0
   -0.4239    3.2718    7.4281 C   0  0  0  0  0  0  0  0  0  0  0  0
    1.6901    2.6684    5.7436 C   0  0  0  0  0  0  0  0  0  0  0  0
    2.1278    2.2429    4.2628 C   0  0  1  0  0  0  0  0  0  0  0  0
    3.3418    1.4923    4.2300 O   0  0  0  0  0  0  0  0  0  0  0  0
    2.2127    0.8345    3.7027 C   0  0  1  0  0  0  0  0  0  0  0  0
    2.4238    0.5330    2.2147 C   0  0  0  0  0  0  0  0  0  0  0  0
   -0.8498    1.0776    3.1879 S   0  0  0  0  0  0  0  0  0  0  0  0
    0.0526    1.7382    2.1416 O   0  0  0  0  0  0  0  0  0  0  0  0
    3.5406   -1.1949    5.7684 C   0  0  1  0  0  0  0  0  0  0  0  0
    4.5920   -0.4369    5.2232 O   0  0  0  0  0  0  0  0  0  0  0  0
    4.9254    2.2962   11.5267 H   0  0  0  0  0  0  0  0  0  0  0  0
    4.8777    0.5311   11.6301 H   0  0  0  0  0  0  0  0  0  0  0  0
    3.4123    1.4945   11.9572 H   0  0  0  0  0  0  0  0  0  0  0  0
    3.9741    1.2213    6.4796 H   0  0  0  0  0  0  0  0  0  0  0  0
    4.4291   -2.3472    7.5175 H   0  0  0  0  0  0  0  0  0  0  0  0
    2.4603   -2.9588    7.9048 H   0  0  0  0  0  0  0  0  0  0  0  0
    1.3312   -1.6358    9.1023 H   0  0  0  0  0  0  0  0  0  0  0  0
    2.3149   -3.4496    5.8457 H   0  0  0  0  0  0  0  0  0  0  0  0
    0.5260   -3.5480    4.8319 H   0  0  0  0  0  0  0  0  0  0  0  0
    3.4179   -1.8170    2.9811 H   0  0  0  0  0  0  0  0  0  0  0  0
    3.3126   -3.2445    3.9220 H   0  0  0  0  0  0  0  0  0  0  0  0
    1.2473   -2.0989    2.4160 H   0  0  0  0  0  0  0  0  0  0  0  0
    1.4871    0.1759    5.4961 H   0  0  0  0  0  0  0  0  0  0  0  0
   -0.2896   -1.2604    3.7498 H   0  0  0  0  0  0  0  0  0  0  0  0
   -1.8134   -0.2216    5.0591 H   0  0  0  0  0  0  0  0  0  0  0  0
    0.0571   -0.9379    6.9140 H   0  0  0  0  0  0  0  0  0  0  0  0
   -2.6897    2.2950    7.0307 H   0  0  0  0  0  0  0  0  0  0  0  0
   -1.8367    0.9848    7.8227 H   0  0  0  0  0  0  0  0  0  0  0  0
   -2.8999    0.7179    6.4796 H   0  0  0  0  0  0  0  0  0  0  0  0
   -2.9914    2.2167    3.8566 H   0  0  0  0  0  0  0  0  0  0  0  0
    0.2891    3.4594    3.4031 H   0  0  0  0  0  0  0  0  0  0  0  0
   -0.8306    5.3062    2.5852 H   0  0  0  0  0  0  0  0  0  0  0  0
   -2.2935    4.9158    3.4985 H   0  0  0  0  0  0  0  0  0  0  0  0
   -1.7478    3.8421    2.2434 H   0  0  0  0  0  0  0  0  0  0  0  0
    2.7524    5.7230    6.4717 H   0  0  0  0  0  0  0  0  0  0  0  0
    1.0562    1.3011    9.6914 H   0  0  0  0  0  0  0  0  0  0  0  0
    0.0370    4.2110    7.7311 H   0  0  0  0  0  0  0  0  0  0  0  0
   -0.8820    2.9219    8.3554 H   0  0  0  0  0  0  0  0  0  0  0  0
   -1.2419    3.6653    6.8400 H   0  0  0  0  0  0  0  0  0  0  0  0
    2.4155    1.9288    5.9537 H   0  0  0  0  0  0  0  0  0  0  0  0
    2.1853    3.0351    3.5248 H   0  0  0  0  0  0  0  0  0  0  0  0
    1.6408   -0.1117    1.8334 H   0  0  0  0  0  0  0  0  0  0  0  0
    3.3910    0.0881    2.0361 H   0  0  0  0  0  0  0  0  0  0  0  0
    2.3905    1.4622    1.6426 H   0  0  0  0  0  0  0  0  0  0  0  0
    4.0673   -2.1556    5.7975 H   0  0  0  0  0  0  0  0  0  0  0  0
    4.2257    0.3569    4.8130 H   0  0  0  0  0  0  0  0  0  0  0  0
  1  2  1  0
  1 47  1  0
  1 48  1  0
  1 49  1  0
  2  3  1  0
  3  4  2  0
  3  5  1  0
  5 34  1  0
  5  6  1  6
  5  7  1  0
  6 50  1  0
  7 45  1  0
  7  8  1  1
  7  9  1  0
  8 51  1  0
  9 10  1  0
  9 11  1  0
  9 52  1  1
 10 53  1  0
 11 12  1  0
 11 13  1  0
 11 54  1  6
 12 55  1  0
 13 14  1  6
 13 16  1  0
 13 45  1  0
 14 15  1  0
 14 56  1  0
 14 57  1  0
 15 58  1  0
 16 41  1  0
 16 17  1  0
 16 59  1  1
 17 43  1  0
 17 18  1  0
 17 60  1  6
 18 19  1  0
 18 20  1  0
 18 61  1  6
 19 62  1  0
 20 36  1  0
 20 21  1  1
 20 22  1  0
 21 63  1  0
 21 64  1  0
 21 65  1  0
 22 23  1  1
 22 24  1  0
 43 22  1  1
 23 66  1  0
 24 25  1  0
 24 26  1  0
 24 67  1  6
 25 68  1  0
 25 69  1  0
 25 70  1  0
 26 27  2  0
 26 28  1  0
 28 29  2  0
 28 30  1  0
 30 38  1  0
 30 31  1  1
 30 32  1  0
 31 71  1  0
 32 33  2  0
 32 34  1  0
 34 35  1  1
 34 36  1  0
 35 72  1  0
 36 37  1  1
 36 38  1  0
 37 73  1  0
 37 74  1  0
 37 75  1  0
 38 39  1  0
 38 76  1  0
 39 41  1  0
 39 40  1  0
 39 77  1  6
 40 41  1  0
 41 42  1  6
 42 78  1  0
 42 79  1  0
 42 80  1  0
 43 44  2  0
 45 46  1  0
 45 81  1  1
 46 82  1  0
M  END
>  <i_m_ct_stereo_status>  (140) 
1

>  <s_m_source_file>  (140) 
/var/tmp/pbs.5075288.sched01/tmp4tfr24xl/130i3iej58d.sdf

>  <i_m_source_file_index>  (140) 
34

>  <i_lp_mmshare_version>  (140) 
48012

>  <i_f3d_flags>  (140) 
0

>  <s_epik_input>  (140) 
W0NIM11PQyg9TylbQ0BAXShbT0hdKShbQ0BAXTEyW09IXSlbQ0BdMyhbT0hdKVtDQF00KFtDSDNdKVtDQEBdNShbQ0gzXSlbQ0BAXTYoW09IXSlbQ0BASF0oW0NIM10pQyg9TylDKD1PKUMoW09IXSkoQzM9TylbQ0BIXTRbQ0BASF03W0NAXShPNykoW0NIM10pW0NAQEhdKFtDQEhdKFtTK102W08tXSlbQ0BIXTVbT0hdKVtDQEBdKFtDSDJdW09IXSkoW0NASF0yW09IXSlbQ0BIXShbT0hdKVtDQEBIXTFbT0hd

>  <s_epik_cmdline>  (140) 
J2VwaWtfcHl0aG9uJywgJy1waHQnLCAnMi4wJywgJy1waCcsICc3LjAnLCAnLXRuJywgJzgnLCAnLW1hJywgJzIwMCcsICctaW1hZScsICc8aW5maWxlLm1hZT4nLCAnLW9tYWUnLCAnPG91dGZpbGUubWFlPic=

>  <r_lp_tautomer_probability>  (140) 
1

>  <r_epik_Ionization_Penalty>  (140) 
3.89718e-05

>  <r_epik_Ionization_Penalty_Charging>  (140) 
0

>  <r_epik_Ionization_Penalty_Neutral>  (140) 
3.89718e-05

>  <r_epik_State_Penalty>  (140) 
-0

>  <r_epik_Charging_Adjusted_Penalty>  (140) 
0

>  <i_epik_Tot_Q>  (140) 
0

>  <i_epik_Tot_abs_Q>  (140) 
2

>  <s_epik_Chemistry_Notes>  (140) 
This compound has an ester and may undergo hydrolysis at high or low pH.

>  <s_lp_Force_Field>  (140) 
OPLS3e

>  <r_lp_Energy>  (140) 
463.595

>  <b_lp_Chiralities_Consistent>  (140) 
1

>  <s_lp_Variant>  (140) 
64:0-6

>  <s_i_glide_gridfile>  (140) 
pfpi4k_grid

>  <i_i_glide_lignum>  (140) 
34

>  <i_i_glide_rotatable_bonds>  (140) 
13

>  <r_i_docking_score>  (140) 
-4.77525

>  <r_i_glide_ligand_efficiency>  (140) 
-0.10381

>  <r_i_glide_ligand_efficiency_sa>  (140) 
-0.371955

>  <r_i_glide_ligand_efficiency_ln>  (140) 
-0.988942

>  <r_i_glide_gscore>  (140) 
-4.77525

>  <r_i_glide_lipo>  (140) 
-7.03102e-06

>  <r_i_glide_hbond>  (140) 
0

>  <r_i_glide_metal>  (140) 
-0

>  <r_i_glide_rewards>  (140) 
-2.5

>  <r_i_glide_evdw>  (140) 
-24.2849

>  <r_i_glide_ecoul>  (140) 
-7.24045

>  <r_i_glide_erotb>  (140) 
0.0932432

>  <r_i_glide_esite>  (140) 
-0.0681731

>  <r_i_glide_emodel>  (140) 
-61.8723

>  <r_i_glide_energy>  (140) 
-31.5253

>  <r_i_glide_einternal>  (140) 
4.97414

>  <r_i_glide_intrahb_reward>  (140) 
-2.5

>  <i_i_glide_confnum>  (140) 
2

>  <i_i_glide_posenum>  (140) 
12

>  <r_i_glide_eff_state_penalty>  (140) 
0

>  <ligand_id>  (140) 
64

>  <original_smiles>  (140) 
COC(=O)C1(O)C2(O)C(O)C(O)C(CO)(C3C4C(O)C5(C)C(O)(C(C)C(=O)C(=O)C6(O)C(=O)C1(O)C5(C)C6C1OC13C)[S+]4[O-])C2O

>  <smiles>  (140) 
[H]OC([H])([H])C12C([H])(O[H])C([H])(O[H])C(O[H])(C1([H])O[H])C(O[H])(C(=O)OC([H])([H])[H])C1(O[H])C(=O)C3(O[H])C(=O)C(=O)C([H])(C([H])([H])[H])C4(O[H])S(=O)C5([H])C([H])(O[H])C4(C([H])([H])[H])C1(C([H])([H])[H])C3([H])C1([H])OC1(C([H])([H])[H])C52[H]

$$$$
64:5:2
     RDKit          3D

 82 88  0  0  1  0  0  0  0  0999 V2000
    7.1784    3.1408    7.7577 C   0  0  0  0  0  0  0  0  0  0  0  0
    6.1179    2.7138    6.9150 O   0  0  0  0  0  0  0  0  0  0  0  0
    5.5456    1.4981    7.0824 C   0  0  0  0  0  0  0  0  0  0  0  0
    5.9014    0.6909    7.9443 O   0  0  0  0  0  0  0  0  0  0  0  0
    4.3698    1.1628    6.0614 C   0  0  1  0  0  0  0  0  0  0  0  0
    4.6214    1.9768    4.9091 O   0  0  0  0  0  0  0  0  0  0  0  0
    4.7160   -0.2962    5.3709 C   0  0  1  0  0  0  0  0  0  0  0  0
    6.1326   -0.2707    5.1900 O   0  0  0  0  0  0  0  0  0  0  0  0
    4.4428   -1.6347    6.1133 C   0  0  1  0  0  0  0  0  0  0  0  0
    4.0334   -1.4275    7.4442 O   0  0  0  0  0  0  0  0  0  0  0  0
    3.5211   -2.4684    5.1552 C   0  0  1  0  0  0  0  0  0  0  0  0
    2.6462   -3.4420    5.6950 O   0  0  0  0  0  0  0  0  0  0  0  0
    3.0267   -1.5964    3.9397 C   0  0  1  0  0  0  0  0  0  0  0  0
    2.9235   -2.5090    2.6852 C   0  0  0  0  0  0  0  0  0  0  0  0
    1.8242   -3.3934    2.8057 O   0  0  0  0  0  0  0  0  0  0  0  0
    1.7576   -0.6597    4.1402 C   0  0  2  0  0  0  0  0  0  0  0  0
    0.4549   -1.2142    4.8269 C   0  0  1  0  0  0  0  0  0  0  0  0
    0.4569   -0.9072    6.2999 C   0  0  1  0  0  0  0  0  0  0  0  0
    1.4545   -1.4656    7.0886 O   0  0  0  0  0  0  0  0  0  0  0  0
    0.1867    0.5847    6.6626 C   0  0  2  0  0  0  0  0  0  0  0  0
   -0.1606    0.3275    8.2154 C   0  0  0  0  0  0  0  0  0  0  0  0
   -1.1464    0.9817    5.8080 C   0  0  1  0  0  0  0  0  0  0  0  0
   -2.2457    0.9219    6.7115 O   0  0  0  0  0  0  0  0  0  0  0  0
   -1.4072    2.3719    4.9915 C   0  0  1  0  0  0  0  0  0  0  0  0
   -2.8613    2.6661    4.5569 C   0  0  0  0  0  0  0  0  0  0  0  0
   -0.7456    3.7433    5.4009 C   0  0  0  0  0  0  0  0  0  0  0  0
   -1.2953    4.4936    6.2085 O   0  0  0  0  0  0  0  0  0  0  0  0
    0.6313    4.1959    4.7464 C   0  0  0  0  0  0  0  0  0  0  0  0
    0.4683    4.9104    3.7376 O   0  0  0  0  0  0  0  0  0  0  0  0
    2.1655    3.8058    5.1369 C   0  0  2  0  0  0  0  0  0  0  0  0
    2.0937    5.1537    5.6041 O   0  0  0  0  0  0  0  0  0  0  0  0
    2.9690    3.2983    6.4804 C   0  0  0  0  0  0  0  0  0  0  0  0
    3.6158    4.0464    7.2497 O   0  0  0  0  0  0  0  0  0  0  0  0
    2.9372    1.7394    6.7933 C   0  0  2  0  0  0  0  0  0  0  0  0
    3.0406    1.4175    8.1741 O   0  0  0  0  0  0  0  0  0  0  0  0
    1.3392    1.7202    6.4617 C   0  0  2  0  0  0  0  0  0  0  0  0
    0.7123    2.7188    7.6243 C   0  0  0  0  0  0  0  0  0  0  0  0
    1.5420    2.3626    4.9803 C   0  0  0  0  0  0  0  0  0  0  0  0
    1.1875    1.7878    3.5389 C   0  0  1  0  0  0  0  0  0  0  0  0
    2.3417    1.4190    2.7551 O   0  0  0  0  0  0  0  0  0  0  0  0
    1.4393    0.3533    3.0403 C   0  0  1  0  0  0  0  0  0  0  0  0
    0.8757   -0.1811    1.7557 C   0  0  0  0  0  0  0  0  0  0  0  0
   -1.2028   -0.3742    4.5123 S   0  0  0  0  0  0  0  0  0  0  0  0
   -1.3455    0.3142    3.1519 O   0  0  0  0  0  0  0  0  0  0  0  0
    4.3134   -0.7338    3.9006 C   0  0  1  0  0  0  0  0  0  0  0  0
    4.5228    0.1432    2.8232 O   0  0  0  0  0  0  0  0  0  0  0  0
    7.4561    4.1723    7.5292 H   0  0  0  0  0  0  0  0  0  0  0  0
    8.0673    2.5211    7.6242 H   0  0  0  0  0  0  0  0  0  0  0  0
    6.8865    3.1066    8.8089 H   0  0  0  0  0  0  0  0  0  0  0  0
    4.0526    1.7208    4.2185 H   0  0  0  0  0  0  0  0  0  0  0  0
    6.3941   -1.0705    4.7726 H   0  0  0  0  0  0  0  0  0  0  0  0
    5.3645   -2.2250    6.2314 H   0  0  0  0  0  0  0  0  0  0  0  0
    4.7657   -1.0472    7.9056 H   0  0  0  0  0  0  0  0  0  0  0  0
    4.2426   -3.1654    4.7130 H   0  0  0  0  0  0  0  0  0  0  0  0
    2.4187   -4.0389    5.0026 H   0  0  0  0  0  0  0  0  0  0  0  0
    2.8529   -1.9370    1.7656 H   0  0  0  0  0  0  0  0  0  0  0  0
    3.8142   -3.1170    2.5584 H   0  0  0  0  0  0  0  0  0  0  0  0
    1.0315   -2.8923    2.7168 H   0  0  0  0  0  0  0  0  0  0  0  0
    2.1622   -0.0753    4.9283 H   0  0  0  0  0  0  0  0  0  0  0  0
    0.3285   -2.2781    4.6188 H   0  0  0  0  0  0  0  0  0  0  0  0
   -0.3893   -1.5070    6.6118 H   0  0  0  0  0  0  0  0  0  0  0  0
    2.3038   -1.0899    6.8821 H   0  0  0  0  0  0  0  0  0  0  0  0
   -0.8103    1.0511    8.7072 H   0  0  0  0  0  0  0  0  0  0  0  0
    0.7421    0.2397    8.8211 H   0  0  0  0  0  0  0  0  0  0  0  0
   -0.6782   -0.6041    8.3799 H   0  0  0  0  0  0  0  0  0  0  0  0
   -2.6935    1.7533    6.6906 H   0  0  0  0  0  0  0  0  0  0  0  0
   -1.0358    2.2287    3.9996 H   0  0  0  0  0  0  0  0  0  0  0  0
   -2.9035    3.5700    3.9346 H   0  0  0  0  0  0  0  0  0  0  0  0
   -3.4989    2.8573    5.4028 H   0  0  0  0  0  0  0  0  0  0  0  0
   -3.3202    1.8254    4.0443 H   0  0  0  0  0  0  0  0  0  0  0  0
    1.7432    5.6907    4.9066 H   0  0  0  0  0  0  0  0  0  0  0  0
    3.8882    1.7037    8.4737 H   0  0  0  0  0  0  0  0  0  0  0  0
    0.8905    3.7898    7.5706 H   0  0  0  0  0  0  0  0  0  0  0  0
    1.0274    2.4723    8.6407 H   0  0  0  0  0  0  0  0  0  0  0  0
   -0.3757    2.7217    7.6778 H   0  0  0  0  0  0  0  0  0  0  0  0
    2.4360    1.9036    4.7099 H   0  0  0  0  0  0  0  0  0  0  0  0
    0.5225    2.3715    2.9081 H   0  0  0  0  0  0  0  0  0  0  0  0
    0.3098   -1.0955    1.9252 H   0  0  0  0  0  0  0  0  0  0  0  0
    1.6757   -0.3651    1.0436 H   0  0  0  0  0  0  0  0  0  0  0  0
    0.1929    0.5377    1.2961 H   0  0  0  0  0  0  0  0  0  0  0  0
    5.0643   -1.4724    3.5987 H   0  0  0  0  0  0  0  0  0  0  0  0
    3.8156    0.7874    2.7841 H   0  0  0  0  0  0  0  0  0  0  0  0
  1  2  1  0
  1 47  1  0
  1 48  1  0
  1 49  1  0
  2  3  1  0
  3  4  2  0
  3  5  1  0
  5 34  1  0
  5  6  1  6
  5  7  1  0
  6 50  1  0
  7 45  1  0
  7  8  1  6
  7  9  1  0
  8 51  1  0
  9 10  1  0
  9 11  1  0
  9 52  1  1
 10 53  1  0
 11 12  1  0
 11 13  1  0
 11 54  1  6
 12 55  1  0
 13 14  1  6
 13 16  1  0
 13 45  1  0
 14 15  1  0
 14 56  1  0
 14 57  1  0
 15 58  1  0
 16 41  1  0
 16 17  1  0
 16 59  1  1
 17 43  1  0
 17 18  1  0
 17 60  1  1
 18 19  1  0
 18 20  1  0
 18 61  1  1
 19 62  1  0
 20 36  1  0
 20 21  1  1
 20 22  1  0
 21 63  1  0
 21 64  1  0
 21 65  1  0
 22 23  1  1
 22 24  1  0
 43 22  1  1
 23 66  1  0
 24 25  1  0
 24 26  1  0
 24 67  1  6
 25 68  1  0
 25 69  1  0
 25 70  1  0
 26 27  2  0
 26 28  1  0
 28 29  2  0
 28 30  1  0
 30 38  1  0
 30 31  1  1
 30 32  1  0
 31 71  1  0
 32 33  2  0
 32 34  1  0
 34 35  1  1
 34 36  1  0
 35 72  1  0
 36 37  1  1
 36 38  1  0
 37 73  1  0
 37 74  1  0
 37 75  1  0
 38 39  1  0
 38 76  1  0
 39 41  1  0
 39 40  1  0
 39 77  1  6
 40 41  1  0
 41 42  1  6
 42 78  1  0
 42 79  1  0
 42 80  1  0
 43 44  2  0
 45 46  1  0
 45 81  1  6
 46 82  1  0
M  END
>  <i_m_ct_stereo_status>  (141) 
1

>  <s_m_source_file>  (141) 
/var/tmp/pbs.5075288.sched01/tmp4tfr24xl/130i3iej58d.sdf

>  <i_m_source_file_index>  (141) 
34

>  <i_lp_mmshare_version>  (141) 
48012

>  <i_f3d_flags>  (141) 
0

>  <s_epik_input>  (141) 
W0NIM11PQyg9TylbQ0BAXShbT0hdKShbQ0BAXTEyW09IXSlbQ0BdMyhbT0hdKVtDQF00KFtDSDNdKVtDQEBdNShbQ0gzXSlbQ0BAXTYoW09IXSlbQ0BASF0oW0NIM10pQyg9TylDKD1PKUMoW09IXSkoQzM9TylbQ0BIXTRbQ0BASF03W0NAXShPNykoW0NIM10pW0NAQEhdKFtDQEhdKFtTK102W08tXSlbQ0BIXTVbT0hdKVtDQEBdKFtDSDJdW09IXSkoW0NASF0yW09IXSlbQ0BIXShbT0hdKVtDQEBIXTFbT0hd

>  <s_epik_cmdline>  (141) 
J2VwaWtfcHl0aG9uJywgJy1waHQnLCAnMi4wJywgJy1waCcsICc3LjAnLCAnLXRuJywgJzgnLCAnLW1hJywgJzIwMCcsICctaW1hZScsICc8aW5maWxlLm1hZT4nLCAnLW9tYWUnLCAnPG91dGZpbGUubWFlPic=

>  <r_lp_tautomer_probability>  (141) 
1

>  <r_epik_Ionization_Penalty>  (141) 
3.89718e-05

>  <r_epik_Ionization_Penalty_Charging>  (141) 
0

>  <r_epik_Ionization_Penalty_Neutral>  (141) 
3.89718e-05

>  <r_epik_State_Penalty>  (141) 
-0

>  <r_epik_Charging_Adjusted_Penalty>  (141) 
0

>  <i_epik_Tot_Q>  (141) 
0

>  <i_epik_Tot_abs_Q>  (141) 
2

>  <s_epik_Chemistry_Notes>  (141) 
This compound has an ester and may undergo hydrolysis at high or low pH.

>  <s_lp_Force_Field>  (141) 
OPLS3e

>  <r_lp_Energy>  (141) 
463.595

>  <b_lp_Chiralities_Consistent>  (141) 
1

>  <s_lp_Variant>  (141) 
64:0-6

>  <s_i_glide_gridfile>  (141) 
pfpi4k_grid

>  <i_i_glide_lignum>  (141) 
34

>  <i_i_glide_rotatable_bonds>  (141) 
13

>  <r_i_docking_score>  (141) 
-4.29423

>  <r_i_glide_ligand_efficiency>  (141) 
-0.0933529

>  <r_i_glide_ligand_efficiency_sa>  (141) 
-0.334488

>  <r_i_glide_ligand_efficiency_ln>  (141) 
-0.889325

>  <r_i_glide_gscore>  (141) 
-4.29423

>  <r_i_glide_lipo>  (141) 
-0.0548892

>  <r_i_glide_hbond>  (141) 
-0.16

>  <r_i_glide_metal>  (141) 
-0

>  <r_i_glide_rewards>  (141) 
-2.51192

>  <r_i_glide_evdw>  (141) 
-13.9614

>  <r_i_glide_ecoul>  (141) 
-5.92066

>  <r_i_glide_erotb>  (141) 
0.0932432

>  <r_i_glide_esite>  (141) 
-0.0744982

>  <r_i_glide_emodel>  (141) 
-49.7891

>  <r_i_glide_energy>  (141) 
-19.8821

>  <r_i_glide_einternal>  (141) 
4.17678

>  <r_i_glide_intrahb_reward>  (141) 
-2.5

>  <i_i_glide_confnum>  (141) 
2

>  <i_i_glide_posenum>  (141) 
25

>  <r_i_glide_eff_state_penalty>  (141) 
0

>  <ligand_id>  (141) 
64

>  <original_smiles>  (141) 
COC(=O)C1(O)C2(O)C(O)C(O)C(CO)(C3C4C(O)C5(C)C(O)(C(C)C(=O)C(=O)C6(O)C(=O)C1(O)C5(C)C6C1OC13C)[S+]4[O-])C2O

>  <smiles>  (141) 
[H]OC([H])([H])C12C([H])(O[H])C([H])(O[H])C(O[H])(C1([H])O[H])C(O[H])(C(=O)OC([H])([H])[H])C1(O[H])C(=O)C3(O[H])C(=O)C(=O)C([H])(C([H])([H])[H])C4(O[H])S(=O)C5([H])C([H])(O[H])C4(C([H])([H])[H])C1(C([H])([H])[H])C3([H])C1([H])OC1(C([H])([H])[H])C52[H]

$$$$
64:6:0
     RDKit          3D

 82 88  0  0  1  0  0  0  0  0999 V2000
    4.2590   -3.2910    5.0649 C   0  0  0  0  0  0  0  0  0  0  0  0
    3.6653   -2.0111    5.1807 O   0  0  0  0  0  0  0  0  0  0  0  0
    4.0906   -1.1885    6.1463 C   0  0  0  0  0  0  0  0  0  0  0  0
    4.9783   -1.4928    6.9533 O   0  0  0  0  0  0  0  0  0  0  0  0
    3.3798    0.2189    6.1820 C   0  0  1  0  0  0  0  0  0  0  0  0
    4.3091    0.9781    6.9637 O   0  0  0  0  0  0  0  0  0  0  0  0
    3.5996    0.9740    4.7402 C   0  0  1  0  0  0  0  0  0  0  0  0
    4.8988    0.5825    4.2769 O   0  0  0  0  0  0  0  0  0  0  0  0
    2.7041    0.6471    3.5207 C   0  0  1  0  0  0  0  0  0  0  0  0
    1.7254   -0.2832    3.8779 O   0  0  0  0  0  0  0  0  0  0  0  0
    2.2254    2.0428    2.9374 C   0  0  1  0  0  0  0  0  0  0  0  0
    1.0596    2.0989    2.1368 O   0  0  0  0  0  0  0  0  0  0  0  0
    2.4220    3.2003    3.9768 C   0  0  1  0  0  0  0  0  0  0  0  0
    2.7277    4.5255    3.1968 C   0  0  0  0  0  0  0  0  0  0  0  0
    1.5504    5.2467    2.8888 O   0  0  0  0  0  0  0  0  0  0  0  0
    1.3661    3.4075    5.1232 C   0  0  2  0  0  0  0  0  0  0  0  0
   -0.1633    3.4157    4.8424 C   0  0  1  0  0  0  0  0  0  0  0  0
   -0.7302    2.0269    4.9454 C   0  0  1  0  0  0  0  0  0  0  0  0
   -0.5296    1.1119    3.9068 O   0  0  0  0  0  0  0  0  0  0  0  0
   -0.7494    1.4457    6.4053 C   0  0  2  0  0  0  0  0  0  0  0  0
   -1.7445    0.2460    6.0551 C   0  0  0  0  0  0  0  0  0  0  0  0
   -1.5013    2.5984    7.2939 C   0  0  1  0  0  0  0  0  0  0  0  0
   -2.8675    2.2246    7.4161 O   0  0  0  0  0  0  0  0  0  0  0  0
   -1.1318    3.1410    8.7988 C   0  0  1  0  0  0  0  0  0  0  0  0
   -2.2739    4.0203    9.3882 C   0  0  0  0  0  0  0  0  0  0  0  0
   -0.5630    2.2696    9.9918 C   0  0  0  0  0  0  0  0  0  0  0  0
   -1.3847    1.7671   10.7490 O   0  0  0  0  0  0  0  0  0  0  0  0
    0.9768    1.8692   10.2593 C   0  0  0  0  0  0  0  0  0  0  0  0
    1.3335    1.7663   11.4305 O   0  0  0  0  0  0  0  0  0  0  0  0
    2.0505    1.6375    9.1344 C   0  0  1  0  0  0  0  0  0  0  0  0
    3.2901    2.2382    9.4991 O   0  0  0  0  0  0  0  0  0  0  0  0
    2.3270    0.1749    8.5779 C   0  0  0  0  0  0  0  0  0  0  0  0
    2.7575   -0.7564    9.2628 O   0  0  0  0  0  0  0  0  0  0  0  0
    1.9179    0.0266    7.0307 C   0  0  2  0  0  0  0  0  0  0  0  0
    1.4195   -1.2587    6.6814 O   0  0  0  0  0  0  0  0  0  0  0  0
    0.5915    0.9931    7.2476 C   0  0  2  0  0  0  0  0  0  0  0  0
   -0.2967    0.0094    8.2345 C   0  0  0  0  0  0  0  0  0  0  0  0
    1.4872    2.1810    7.8802 C   0  0  1  0  0  0  0  0  0  0  0  0
    1.5684    3.7199    7.6380 C   0  0  1  0  0  0  0  0  0  0  0  0
    2.8320    4.0996    7.1236 O   0  0  0  0  0  0  0  0  0  0  0  0
    1.7355    4.3516    6.2697 C   0  0  1  0  0  0  0  0  0  0  0  0
    1.6322    5.8495    5.9803 C   0  0  0  0  0  0  0  0  0  0  0  0
   -1.3133    4.0775    6.1704 S   0  0  0  0  0  0  0  0  0  0  0  0
   -0.7873    5.2821    6.9824 O   0  0  0  0  0  0  0  0  0  0  0  0
    3.6850    2.5494    4.6103 C   0  0  1  0  0  0  0  0  0  0  0  0
    4.5096    3.2816    5.4931 O   0  0  0  0  0  0  0  0  0  0  0  0
    3.7747   -3.8355    4.2566 H   0  0  0  0  0  0  0  0  0  0  0  0
    4.1368   -3.8684    5.9854 H   0  0  0  0  0  0  0  0  0  0  0  0
    5.3265   -3.2238    4.8362 H   0  0  0  0  0  0  0  0  0  0  0  0
    4.0459    1.8923    6.9878 H   0  0  0  0  0  0  0  0  0  0  0  0
    5.1092    1.0910    3.5013 H   0  0  0  0  0  0  0  0  0  0  0  0
    3.2691    0.1370    2.7300 H   0  0  0  0  0  0  0  0  0  0  0  0
    1.1942   -0.4387    3.1017 H   0  0  0  0  0  0  0  0  0  0  0  0
    2.9849    2.2216    2.1705 H   0  0  0  0  0  0  0  0  0  0  0  0
    1.0393    2.9185    1.6390 H   0  0  0  0  0  0  0  0  0  0  0  0
    3.3579    5.1779    3.7988 H   0  0  0  0  0  0  0  0  0  0  0  0
    3.3102    4.3649    2.2848 H   0  0  0  0  0  0  0  0  0  0  0  0
    1.0682    4.8642    2.1362 H   0  0  0  0  0  0  0  0  0  0  0  0
    1.4834    2.4137    5.4959 H   0  0  0  0  0  0  0  0  0  0  0  0
   -0.3910    3.8994    3.8919 H   0  0  0  0  0  0  0  0  0  0  0  0
   -1.7611    2.2428    4.6738 H   0  0  0  0  0  0  0  0  0  0  0  0
   -0.2465    1.5886    3.1241 H   0  0  0  0  0  0  0  0  0  0  0  0
   -2.3780   -0.0610    6.8674 H   0  0  0  0  0  0  0  0  0  0  0  0
   -1.2135   -0.6210    5.6605 H   0  0  0  0  0  0  0  0  0  0  0  0
   -2.5117    0.4820    5.3169 H   0  0  0  0  0  0  0  0  0  0  0  0
   -3.2011    2.6131    8.2153 H   0  0  0  0  0  0  0  0  0  0  0  0
   -0.4267    3.9276    8.7014 H   0  0  0  0  0  0  0  0  0  0  0  0
   -1.8907    4.6164   10.2163 H   0  0  0  0  0  0  0  0  0  0  0  0
   -3.1199    3.4546    9.7839 H   0  0  0  0  0  0  0  0  0  0  0  0
   -2.6573    4.7411    8.6659 H   0  0  0  0  0  0  0  0  0  0  0  0
    3.1218    3.1206    9.8162 H   0  0  0  0  0  0  0  0  0  0  0  0
    1.3096   -1.2766    5.7310 H   0  0  0  0  0  0  0  0  0  0  0  0
    0.0738   -0.3425    9.1963 H   0  0  0  0  0  0  0  0  0  0  0  0
   -0.5643   -0.9473    7.7910 H   0  0  0  0  0  0  0  0  0  0  0  0
   -1.2459    0.4338    8.5228 H   0  0  0  0  0  0  0  0  0  0  0  0
    2.3533    2.1229    7.2702 H   0  0  0  0  0  0  0  0  0  0  0  0
    1.3984    4.3439    8.5041 H   0  0  0  0  0  0  0  0  0  0  0  0
    0.8445    6.0624    5.2616 H   0  0  0  0  0  0  0  0  0  0  0  0
    2.5684    6.2439    5.5994 H   0  0  0  0  0  0  0  0  0  0  0  0
    1.3874    6.3899    6.8930 H   0  0  0  0  0  0  0  0  0  0  0  0
    4.2920    2.6759    3.7373 H   0  0  0  0  0  0  0  0  0  0  0  0
    3.9831    3.6003    6.2322 H   0  0  0  0  0  0  0  0  0  0  0  0
  1  2  1  0
  1 47  1  0
  1 48  1  0
  1 49  1  0
  2  3  1  0
  3  4  2  0
  3  5  1  0
  5 34  1  0
  5  6  1  1
  5  7  1  0
  6 50  1  0
  7 45  1  0
  7  8  1  6
  7  9  1  0
  8 51  1  0
  9 10  1  0
  9 11  1  0
  9 52  1  6
 10 53  1  0
 11 12  1  0
 11 13  1  0
 11 54  1  6
 12 55  1  0
 13 14  1  6
 13 16  1  0
 13 45  1  0
 14 15  1  0
 14 56  1  0
 14 57  1  0
 15 58  1  0
 16 41  1  0
 16 17  1  0
 16 59  1  1
 17 43  1  0
 17 18  1  0
 17 60  1  6
 18 19  1  0
 18 20  1  0
 18 61  1  6
 19 62  1  0
 20 36  1  0
 20 21  1  6
 20 22  1  0
 21 63  1  0
 21 64  1  0
 21 65  1  0
 22 23  1  1
 22 24  1  0
 43 22  1  1
 23 66  1  0
 24 25  1  0
 24 26  1  0
 24 67  1  6
 25 68  1  0
 25 69  1  0
 25 70  1  0
 26 27  2  0
 26 28  1  0
 28 29  2  0
 28 30  1  0
 30 38  1  0
 30 31  1  1
 30 32  1  0
 31 71  1  0
 32 33  2  0
 32 34  1  0
 34 35  1  1
 34 36  1  0
 35 72  1  0
 36 37  1  1
 36 38  1  0
 37 73  1  0
 37 74  1  0
 37 75  1  0
 38 39  1  0
 38 76  1  6
 39 41  1  0
 39 40  1  0
 39 77  1  1
 40 41  1  0
 41 42  1  1
 42 78  1  0
 42 79  1  0
 42 80  1  0
 43 44  2  0
 45 46  1  0
 45 81  1  6
 46 82  1  0
M  END
>  <i_m_ct_stereo_status>  (142) 
1

>  <s_m_source_file>  (142) 
/var/tmp/pbs.5075288.sched01/tmp4tfr24xl/130i3iej58d.sdf

>  <i_m_source_file_index>  (142) 
35

>  <i_lp_mmshare_version>  (142) 
48012

>  <i_f3d_flags>  (142) 
0

>  <s_epik_input>  (142) 
W0NIM11PQyg9TylbQ0BAXShbT0hdKShbQ0BAXTEyW09IXSlbQ0BdMyhbT0hdKVtDQF00KFtDSDNdKVtDQEBdNShbQ0gzXSlbQ0BAXTYoW09IXSlbQ0BASF0oW0NIM10pQyg9TylDKD1PKUMoW09IXSkoQzM9TylbQ0BIXTRbQ0BASF03W0NAXShPNykoW0NIM10pW0NAQEhdKFtDQEhdKFtTK102W08tXSlbQ0BIXTVbT0hdKVtDQEBdKFtDSDJdW09IXSkoW0NASF0yW09IXSlbQ0BIXShbT0hdKVtDQEBIXTFbT0hd

>  <s_epik_cmdline>  (142) 
J2VwaWtfcHl0aG9uJywgJy1waHQnLCAnMi4wJywgJy1waCcsICc3LjAnLCAnLXRuJywgJzgnLCAnLW1hJywgJzIwMCcsICctaW1hZScsICc8aW5maWxlLm1hZT4nLCAnLW9tYWUnLCAnPG91dGZpbGUubWFlPic=

>  <r_lp_tautomer_probability>  (142) 
1

>  <r_epik_Ionization_Penalty>  (142) 
3.89718e-05

>  <r_epik_Ionization_Penalty_Charging>  (142) 
0

>  <r_epik_Ionization_Penalty_Neutral>  (142) 
3.89718e-05

>  <r_epik_State_Penalty>  (142) 
-0

>  <r_epik_Charging_Adjusted_Penalty>  (142) 
0

>  <i_epik_Tot_Q>  (142) 
0

>  <i_epik_Tot_abs_Q>  (142) 
2

>  <s_epik_Chemistry_Notes>  (142) 
This compound has an ester and may undergo hydrolysis at high or low pH.

>  <s_lp_Force_Field>  (142) 
OPLS3e

>  <r_lp_Energy>  (142) 
361.72

>  <b_lp_Chiralities_Consistent>  (142) 
1

>  <s_lp_Variant>  (142) 
64:0-7

>  <s_i_glide_gridfile>  (142) 
pfpi4k_grid

>  <i_i_glide_lignum>  (142) 
35

>  <i_i_glide_rotatable_bonds>  (142) 
13

>  <r_i_docking_score>  (142) 
-3.59757

>  <r_i_glide_ligand_efficiency>  (142) 
-0.078208

>  <r_i_glide_ligand_efficiency_sa>  (142) 
-0.280223

>  <r_i_glide_ligand_efficiency_ln>  (142) 
-0.745047

>  <r_i_glide_gscore>  (142) 
-3.59757

>  <r_i_glide_lipo>  (142) 
-0.0196553

>  <r_i_glide_hbond>  (142) 
0

>  <r_i_glide_metal>  (142) 
-0

>  <r_i_glide_rewards>  (142) 
-1.5

>  <r_i_glide_evdw>  (142) 
-18.2164

>  <r_i_glide_ecoul>  (142) 
-8.16315

>  <r_i_glide_erotb>  (142) 
0.0932432

>  <r_i_glide_esite>  (142) 
-0.0358621

>  <r_i_glide_emodel>  (142) 
-48.6032

>  <r_i_glide_energy>  (142) 
-26.3795

>  <r_i_glide_einternal>  (142) 
2.57011

>  <r_i_glide_intrahb_reward>  (142) 
-1.5

>  <i_i_glide_confnum>  (142) 
1

>  <i_i_glide_posenum>  (142) 
35

>  <r_i_glide_eff_state_penalty>  (142) 
0

>  <ligand_id>  (142) 
64

>  <original_smiles>  (142) 
COC(=O)C1(O)C2(O)C(O)C(O)C(CO)(C3C4C(O)C5(C)C(O)(C(C)C(=O)C(=O)C6(O)C(=O)C1(O)C5(C)C6C1OC13C)[S+]4[O-])C2O

>  <smiles>  (142) 
[H]OC([H])([H])C12C([H])(O[H])C([H])(O[H])C(O[H])(C1([H])O[H])C(O[H])(C(=O)OC([H])([H])[H])C1(O[H])C(=O)C3(O[H])C(=O)C(=O)C([H])(C([H])([H])[H])C4(O[H])S(=O)C5([H])C([H])(O[H])C4(C([H])([H])[H])C1(C([H])([H])[H])C3([H])C1([H])OC1(C([H])([H])[H])C52[H]

$$$$
64:6:1
     RDKit          3D

 82 88  0  0  1  0  0  0  0  0999 V2000
    5.5028    0.1696   10.6714 C   0  0  0  0  0  0  0  0  0  0  0  0
    4.3705    0.7036   10.0072 O   0  0  0  0  0  0  0  0  0  0  0  0
    3.3358   -0.0985    9.7159 C   0  0  0  0  0  0  0  0  0  0  0  0
    3.3001   -1.2966   10.0174 O   0  0  0  0  0  0  0  0  0  0  0  0
    2.1348    0.6076    8.9614 C   0  0  1  0  0  0  0  0  0  0  0  0
    1.0701   -0.3131    9.2004 O   0  0  0  0  0  0  0  0  0  0  0  0
    1.5632    1.8425    9.8957 C   0  0  1  0  0  0  0  0  0  0  0  0
    1.6825    1.3979   11.2537 O   0  0  0  0  0  0  0  0  0  0  0  0
    2.2826    3.2144    9.8604 C   0  0  1  0  0  0  0  0  0  0  0  0
    3.3879    3.2284    8.9913 O   0  0  0  0  0  0  0  0  0  0  0  0
    1.1286    4.2703    9.6399 C   0  0  1  0  0  0  0  0  0  0  0  0
    1.4362    5.5878    9.2372 O   0  0  0  0  0  0  0  0  0  0  0  0
   -0.2054    3.6118    9.1204 C   0  0  1  0  0  0  0  0  0  0  0  0
   -1.4020    4.4894    9.6191 C   0  0  0  0  0  0  0  0  0  0  0  0
   -2.6105    3.8079    9.9079 O   0  0  0  0  0  0  0  0  0  0  0  0
   -0.3212    3.2778    7.5635 C   0  0  2  0  0  0  0  0  0  0  0  0
    0.0707    4.3091    6.4397 C   0  0  1  0  0  0  0  0  0  0  0  0
    1.5229    4.1737    6.0438 C   0  0  1  0  0  0  0  0  0  0  0  0
    2.4780    4.5779    6.9664 O   0  0  0  0  0  0  0  0  0  0  0  0
    1.8796    2.8609    5.2612 C   0  0  2  0  0  0  0  0  0  0  0  0
    3.3321    3.3564    4.7661 C   0  0  0  0  0  0  0  0  0  0  0  0
    0.7988    2.8377    4.0309 C   0  0  1  0  0  0  0  0  0  0  0  0
    1.4561    3.3562    2.8795 O   0  0  0  0  0  0  0  0  0  0  0  0
   -0.0139    1.5322    3.4472 C   0  0  1  0  0  0  0  0  0  0  0  0
   -0.7037    1.8398    2.0948 C   0  0  0  0  0  0  0  0  0  0  0  0
    0.5465    0.0505    3.3434 C   0  0  0  0  0  0  0  0  0  0  0  0
    1.0825   -0.2956    2.2893 O   0  0  0  0  0  0  0  0  0  0  0  0
    0.5254   -1.0673    4.5036 C   0  0  0  0  0  0  0  0  0  0  0  0
    0.3708   -2.2381    4.1546 O   0  0  0  0  0  0  0  0  0  0  0  0
    0.6609   -0.7723    6.0421 C   0  0  1  0  0  0  0  0  0  0  0  0
   -0.2269   -1.6344    6.7376 O   0  0  0  0  0  0  0  0  0  0  0  0
    2.0813   -0.8280    6.7567 C   0  0  0  0  0  0  0  0  0  0  0  0
    2.7668   -1.8468    6.8369 O   0  0  0  0  0  0  0  0  0  0  0  0
    2.5316    0.6274    7.2978 C   0  0  2  0  0  0  0  0  0  0  0  0
    3.9377    0.8419    7.2305 O   0  0  0  0  0  0  0  0  0  0  0  0
    1.8890    1.3632    5.9578 C   0  0  2  0  0  0  0  0  0  0  0  0
    2.9179    0.7645    4.7943 C   0  0  0  0  0  0  0  0  0  0  0  0
    0.4358    0.6777    6.2377 C   0  0  1  0  0  0  0  0  0  0  0  0
   -1.0276    1.2087    6.2485 C   0  0  1  0  0  0  0  0  0  0  0  0
   -1.6494    1.0553    7.5255 O   0  0  0  0  0  0  0  0  0  0  0  0
   -1.4907    2.3941    7.0940 C   0  0  1  0  0  0  0  0  0  0  0  0
   -2.8572    3.0588    6.9495 C   0  0  0  0  0  0  0  0  0  0  0  0
   -0.5156    4.0364    4.6601 S   0  0  0  0  0  0  0  0  0  0  0  0
   -1.9239    3.4684    4.4732 O   0  0  0  0  0  0  0  0  0  0  0  0
    0.0401    2.3207    9.9636 C   0  0  1  0  0  0  0  0  0  0  0  0
   -0.9820    1.3496   10.0226 O   0  0  0  0  0  0  0  0  0  0  0  0
    6.2489    0.9545   10.7949 H   0  0  0  0  0  0  0  0  0  0  0  0
    5.9576   -0.6393   10.0948 H   0  0  0  0  0  0  0  0  0  0  0  0
    5.2474   -0.2122   11.6629 H   0  0  0  0  0  0  0  0  0  0  0  0
    0.9143   -0.3083   10.1368 H   0  0  0  0  0  0  0  0  0  0  0  0
    1.3200    2.0592   11.8276 H   0  0  0  0  0  0  0  0  0  0  0  0
    2.7620    3.4336   10.8186 H   0  0  0  0  0  0  0  0  0  0  0  0
    3.0688    3.1408    8.0982 H   0  0  0  0  0  0  0  0  0  0  0  0
    0.9120    4.5171   10.6773 H   0  0  0  0  0  0  0  0  0  0  0  0
    2.1464    5.9028    9.7797 H   0  0  0  0  0  0  0  0  0  0  0  0
   -1.1553    5.0337   10.5301 H   0  0  0  0  0  0  0  0  0  0  0  0
   -1.6035    5.2507    8.8692 H   0  0  0  0  0  0  0  0  0  0  0  0
   -2.4716    3.2249   10.6457 H   0  0  0  0  0  0  0  0  0  0  0  0
    0.5580    2.6727    7.5573 H   0  0  0  0  0  0  0  0  0  0  0  0
   -0.1955    5.3222    6.7425 H   0  0  0  0  0  0  0  0  0  0  0  0
    1.6246    5.0047    5.3447 H   0  0  0  0  0  0  0  0  0  0  0  0
    3.2934    4.7304    6.5080 H   0  0  0  0  0  0  0  0  0  0  0  0
    3.7160    2.9162    3.8460 H   0  0  0  0  0  0  0  0  0  0  0  0
    4.0909    3.1998    5.5315 H   0  0  0  0  0  0  0  0  0  0  0  0
    3.3782    4.4139    4.5023 H   0  0  0  0  0  0  0  0  0  0  0  0
    0.8197    3.6576    2.2340 H   0  0  0  0  0  0  0  0  0  0  0  0
   -0.9159    1.4356    4.0003 H   0  0  0  0  0  0  0  0  0  0  0  0
   -1.4877    1.1117    1.8809 H   0  0  0  0  0  0  0  0  0  0  0  0
   -0.0137    1.8271    1.2497 H   0  0  0  0  0  0  0  0  0  0  0  0
   -1.1950    2.8117    2.1065 H   0  0  0  0  0  0  0  0  0  0  0  0
    0.1205   -2.5129    6.6401 H   0  0  0  0  0  0  0  0  0  0  0  0
    4.2215    0.6514    6.3466 H   0  0  0  0  0  0  0  0  0  0  0  0
    3.0144   -0.3036    4.6066 H   0  0  0  0  0  0  0  0  0  0  0  0
    3.9681    1.0247    4.9280 H   0  0  0  0  0  0  0  0  0  0  0  0
    2.7263    1.1319    3.7914 H   0  0  0  0  0  0  0  0  0  0  0  0
    0.3622    0.7013    7.3001 H   0  0  0  0  0  0  0  0  0  0  0  0
   -1.7009    0.7364    5.5410 H   0  0  0  0  0  0  0  0  0  0  0  0
   -2.7583    4.1220    6.7511 H   0  0  0  0  0  0  0  0  0  0  0  0
   -3.4701    2.9075    7.8347 H   0  0  0  0  0  0  0  0  0  0  0  0
   -3.3994    2.5986    6.1214 H   0  0  0  0  0  0  0  0  0  0  0  0
   -0.1136    2.7060   10.9788 H   0  0  0  0  0  0  0  0  0  0  0  0
   -1.2940    1.2885   10.9171 H   0  0  0  0  0  0  0  0  0  0  0  0
  1  2  1  0
  1 47  1  0
  1 48  1  0
  1 49  1  0
  2  3  1  0
  3  4  2  0
  3  5  1  0
  5 34  1  0
  5  6  1  6
  5  7  1  0
  6 50  1  0
  7 45  1  0
  7  8  1  1
  7  9  1  0
  8 51  1  0
  9 10  1  0
  9 11  1  0
  9 52  1  1
 10 53  1  0
 11 12  1  0
 11 13  1  0
 11 54  1  1
 12 55  1  0
 13 14  1  1
 13 16  1  0
 13 45  1  0
 14 15  1  0
 14 56  1  0
 14 57  1  0
 15 58  1  0
 16 41  1  0
 16 17  1  0
 16 59  1  1
 17 43  1  0
 17 18  1  0
 17 60  1  1
 18 19  1  0
 18 20  1  0
 18 61  1  6
 19 62  1  0
 20 36  1  0
 20 21  1  6
 20 22  1  0
 21 63  1  0
 21 64  1  0
 21 65  1  0
 22 23  1  6
 22 24  1  0
 43 22  1  1
 23 66  1  0
 24 25  1  0
 24 26  1  0
 24 67  1  1
 25 68  1  0
 25 69  1  0
 25 70  1  0
 26 27  2  0
 26 28  1  0
 28 29  2  0
 28 30  1  0
 30 38  1  0
 30 31  1  1
 30 32  1  0
 31 71  1  0
 32 33  2  0
 32 34  1  0
 34 35  1  1
 34 36  1  0
 35 72  1  0
 36 37  1  6
 36 38  1  0
 37 73  1  0
 37 74  1  0
 37 75  1  0
 38 39  1  0
 38 76  1  1
 39 41  1  0
 39 40  1  0
 39 77  1  6
 40 41  1  0
 41 42  1  6
 42 78  1  0
 42 79  1  0
 42 80  1  0
 43 44  2  0
 45 46  1  0
 45 81  1  1
 46 82  1  0
M  END
>  <i_m_ct_stereo_status>  (143) 
1

>  <s_m_source_file>  (143) 
/var/tmp/pbs.5075288.sched01/tmp4tfr24xl/130i3iej58d.sdf

>  <i_m_source_file_index>  (143) 
35

>  <i_lp_mmshare_version>  (143) 
48012

>  <i_f3d_flags>  (143) 
0

>  <s_epik_input>  (143) 
W0NIM11PQyg9TylbQ0BAXShbT0hdKShbQ0BAXTEyW09IXSlbQ0BdMyhbT0hdKVtDQF00KFtDSDNdKVtDQEBdNShbQ0gzXSlbQ0BAXTYoW09IXSlbQ0BASF0oW0NIM10pQyg9TylDKD1PKUMoW09IXSkoQzM9TylbQ0BIXTRbQ0BASF03W0NAXShPNykoW0NIM10pW0NAQEhdKFtDQEhdKFtTK102W08tXSlbQ0BIXTVbT0hdKVtDQEBdKFtDSDJdW09IXSkoW0NASF0yW09IXSlbQ0BIXShbT0hdKVtDQEBIXTFbT0hd

>  <s_epik_cmdline>  (143) 
J2VwaWtfcHl0aG9uJywgJy1waHQnLCAnMi4wJywgJy1waCcsICc3LjAnLCAnLXRuJywgJzgnLCAnLW1hJywgJzIwMCcsICctaW1hZScsICc8aW5maWxlLm1hZT4nLCAnLW9tYWUnLCAnPG91dGZpbGUubWFlPic=

>  <r_lp_tautomer_probability>  (143) 
1

>  <r_epik_Ionization_Penalty>  (143) 
3.89718e-05

>  <r_epik_Ionization_Penalty_Charging>  (143) 
0

>  <r_epik_Ionization_Penalty_Neutral>  (143) 
3.89718e-05

>  <r_epik_State_Penalty>  (143) 
-0

>  <r_epik_Charging_Adjusted_Penalty>  (143) 
0

>  <i_epik_Tot_Q>  (143) 
0

>  <i_epik_Tot_abs_Q>  (143) 
2

>  <s_epik_Chemistry_Notes>  (143) 
This compound has an ester and may undergo hydrolysis at high or low pH.

>  <s_lp_Force_Field>  (143) 
OPLS3e

>  <r_lp_Energy>  (143) 
361.72

>  <b_lp_Chiralities_Consistent>  (143) 
1

>  <s_lp_Variant>  (143) 
64:0-7

>  <s_i_glide_gridfile>  (143) 
pfpi4k_grid

>  <i_i_glide_lignum>  (143) 
35

>  <i_i_glide_rotatable_bonds>  (143) 
13

>  <r_i_docking_score>  (143) 
-3.57518

>  <r_i_glide_ligand_efficiency>  (143) 
-0.0777212

>  <r_i_glide_ligand_efficiency_sa>  (143) 
-0.278479

>  <r_i_glide_ligand_efficiency_ln>  (143) 
-0.74041

>  <r_i_glide_gscore>  (143) 
-3.57518

>  <r_i_glide_lipo>  (143) 
-0.17198

>  <r_i_glide_hbond>  (143) 
-0.30701

>  <r_i_glide_metal>  (143) 
-0

>  <r_i_glide_rewards>  (143) 
-0.5

>  <r_i_glide_evdw>  (143) 
-24.7741

>  <r_i_glide_ecoul>  (143) 
-9.22854

>  <r_i_glide_erotb>  (143) 
0.0932432

>  <r_i_glide_esite>  (143) 
-0.0664412

>  <r_i_glide_emodel>  (143) 
-43.1173

>  <r_i_glide_energy>  (143) 
-34.0027

>  <r_i_glide_einternal>  (143) 
9.88168

>  <r_i_glide_intrahb_reward>  (143) 
-0.5

>  <i_i_glide_confnum>  (143) 
2

>  <i_i_glide_posenum>  (143) 
27

>  <r_i_glide_eff_state_penalty>  (143) 
0

>  <ligand_id>  (143) 
64

>  <original_smiles>  (143) 
COC(=O)C1(O)C2(O)C(O)C(O)C(CO)(C3C4C(O)C5(C)C(O)(C(C)C(=O)C(=O)C6(O)C(=O)C1(O)C5(C)C6C1OC13C)[S+]4[O-])C2O

>  <smiles>  (143) 
[H]OC([H])([H])C12C([H])(O[H])C([H])(O[H])C(O[H])(C1([H])O[H])C(O[H])(C(=O)OC([H])([H])[H])C1(O[H])C(=O)C3(O[H])C(=O)C(=O)C([H])(C([H])([H])[H])C4(O[H])S(=O)C5([H])C([H])(O[H])C4(C([H])([H])[H])C1(C([H])([H])[H])C3([H])C1([H])OC1(C([H])([H])[H])C52[H]

$$$$
64:6:2
     RDKit          3D

 82 88  0  0  1  0  0  0  0  0999 V2000
    7.5657    1.5268    8.2267 C   0  0  0  0  0  0  0  0  0  0  0  0
    6.1598    1.7333    8.1594 O   0  0  0  0  0  0  0  0  0  0  0  0
    5.3464    0.6958    7.8999 C   0  0  0  0  0  0  0  0  0  0  0  0
    5.7504   -0.4601    7.7211 O   0  0  0  0  0  0  0  0  0  0  0  0
    3.8047    1.0427    7.8214 C   0  0  1  0  0  0  0  0  0  0  0  0
    3.2027   -0.2428    7.9928 O   0  0  0  0  0  0  0  0  0  0  0  0
    3.3324    1.7144    9.2569 C   0  0  1  0  0  0  0  0  0  0  0  0
    4.1005    1.0771   10.2837 O   0  0  0  0  0  0  0  0  0  0  0  0
    3.5741    3.2267    9.5062 C   0  0  1  0  0  0  0  0  0  0  0  0
    4.2050    3.8772    8.4327 O   0  0  0  0  0  0  0  0  0  0  0  0
    2.1885    3.7831   10.0151 C   0  0  1  0  0  0  0  0  0  0  0  0
    1.9359    5.1647    9.9909 O   0  0  0  0  0  0  0  0  0  0  0  0
    0.9963    2.8076    9.6873 C   0  0  1  0  0  0  0  0  0  0  0  0
   -0.0865    3.0190   10.7980 C   0  0  0  0  0  0  0  0  0  0  0  0
   -0.8283    1.8660   11.1206 O   0  0  0  0  0  0  0  0  0  0  0  0
    0.3856    2.8519    8.2180 C   0  0  2  0  0  0  0  0  0  0  0  0
    0.0208    4.1849    7.4845 C   0  0  1  0  0  0  0  0  0  0  0  0
    1.1987    4.7154    6.6909 C   0  0  1  0  0  0  0  0  0  0  0  0
    2.2413    5.2798    7.4130 O   0  0  0  0  0  0  0  0  0  0  0  0
    1.5791    3.8711    5.4222 C   0  0  2  0  0  0  0  0  0  0  0  0
    2.5279    4.9833    4.7547 C   0  0  0  0  0  0  0  0  0  0  0  0
    0.1720    3.7290    4.5997 C   0  0  1  0  0  0  0  0  0  0  0  0
    0.1544    4.7476    3.6075 O   0  0  0  0  0  0  0  0  0  0  0  0
   -0.4331    2.4023    3.8481 C   0  0  1  0  0  0  0  0  0  0  0  0
   -1.6650    2.7580    2.9863 C   0  0  0  0  0  0  0  0  0  0  0  0
    0.4038    1.3123    3.0522 C   0  0  0  0  0  0  0  0  0  0  0  0
    0.5537    1.4662    1.8428 O   0  0  0  0  0  0  0  0  0  0  0  0
    1.1346    0.0265    3.6869 C   0  0  0  0  0  0  0  0  0  0  0  0
    1.1553   -1.0000    3.0054 O   0  0  0  0  0  0  0  0  0  0  0  0
    1.7715   -0.0308    5.1296 C   0  0  1  0  0  0  0  0  0  0  0  0
    1.4915   -1.2836    5.7277 O   0  0  0  0  0  0  0  0  0  0  0  0
    3.3155    0.3038    5.3519 C   0  0  0  0  0  0  0  0  0  0  0  0
    4.2347   -0.3730    4.8864 O   0  0  0  0  0  0  0  0  0  0  0  0
    3.5277    1.6278    6.2357 C   0  0  2  0  0  0  0  0  0  0  0  0
    4.6621    2.3845    5.8612 O   0  0  0  0  0  0  0  0  0  0  0  0
    2.2460    2.3717    5.4830 C   0  0  2  0  0  0  0  0  0  0  0  0
    2.8601    2.5126    3.9439 C   0  0  0  0  0  0  0  0  0  0  0  0
    1.2497    1.1402    5.8838 C   0  0  1  0  0  0  0  0  0  0  0  0
   -0.1794    1.0676    6.4855 C   0  0  1  0  0  0  0  0  0  0  0  0
   -0.2196    0.3759    7.7450 O   0  0  0  0  0  0  0  0  0  0  0  0
   -0.5932    1.7460    7.7890 C   0  0  1  0  0  0  0  0  0  0  0  0
   -2.0387    1.8802    8.2648 C   0  0  0  0  0  0  0  0  0  0  0  0
   -1.0682    4.1415    5.9443 S   0  0  0  0  0  0  0  0  0  0  0  0
   -2.2469    3.1587    5.9302 O   0  0  0  0  0  0  0  0  0  0  0  0
    1.8878    1.5449    9.9085 C   0  0  1  0  0  0  0  0  0  0  0  0
    1.2795    0.2680    9.8610 O   0  0  0  0  0  0  0  0  0  0  0  0
    8.0608    2.4820    8.4072 H   0  0  0  0  0  0  0  0  0  0  0  0
    7.9529    1.1206    7.2915 H   0  0  0  0  0  0  0  0  0  0  0  0
    7.8350    0.8505    9.0395 H   0  0  0  0  0  0  0  0  0  0  0  0
    3.5206   -0.8311    7.3242 H   0  0  0  0  0  0  0  0  0  0  0  0
    3.8364    1.4239   11.1203 H   0  0  0  0  0  0  0  0  0  0  0  0
    4.3038    3.3755   10.3092 H   0  0  0  0  0  0  0  0  0  0  0  0
    3.6326    3.8500    7.6817 H   0  0  0  0  0  0  0  0  0  0  0  0
    2.3266    3.6809   11.0884 H   0  0  0  0  0  0  0  0  0  0  0  0
    1.9564    5.4308    9.0775 H   0  0  0  0  0  0  0  0  0  0  0  0
    0.3503    3.3395   11.7464 H   0  0  0  0  0  0  0  0  0  0  0  0
   -0.7571    3.8383   10.5092 H   0  0  0  0  0  0  0  0  0  0  0  0
   -1.5507    2.0715   11.7024 H   0  0  0  0  0  0  0  0  0  0  0  0
    1.3263    2.6397    7.7533 H   0  0  0  0  0  0  0  0  0  0  0  0
   -0.3824    4.9147    8.1876 H   0  0  0  0  0  0  0  0  0  0  0  0
    0.7817    5.6583    6.3222 H   0  0  0  0  0  0  0  0  0  0  0  0
    2.8049    5.7400    6.8124 H   0  0  0  0  0  0  0  0  0  0  0  0
    2.6289    4.9592    3.6678 H   0  0  0  0  0  0  0  0  0  0  0  0
    3.5359    4.9498    5.1670 H   0  0  0  0  0  0  0  0  0  0  0  0
    2.1715    6.0078    4.8827 H   0  0  0  0  0  0  0  0  0  0  0  0
    0.1987    4.3811    2.7245 H   0  0  0  0  0  0  0  0  0  0  0  0
   -1.0007    1.8408    4.5484 H   0  0  0  0  0  0  0  0  0  0  0  0
   -2.2189    1.8613    2.7011 H   0  0  0  0  0  0  0  0  0  0  0  0
   -1.3612    3.2606    2.0841 H   0  0  0  0  0  0  0  0  0  0  0  0
   -2.3648    3.4273    3.4776 H   0  0  0  0  0  0  0  0  0  0  0  0
    0.5712   -1.4638    5.6606 H   0  0  0  0  0  0  0  0  0  0  0  0
    4.6245    2.5127    4.9260 H   0  0  0  0  0  0  0  0  0  0  0  0
    3.1658    1.6412    3.3577 H   0  0  0  0  0  0  0  0  0  0  0  0
    3.7700    3.1101    3.8638 H   0  0  0  0  0  0  0  0  0  0  0  0
    2.2055    3.0069    3.2342 H   0  0  0  0  0  0  0  0  0  0  0  0
    1.5826    0.8803    6.8612 H   0  0  0  0  0  0  0  0  0  0  0  0
   -0.9183    0.5520    5.8725 H   0  0  0  0  0  0  0  0  0  0  0  0
   -2.3110    2.9264    8.4051 H   0  0  0  0  0  0  0  0  0  0  0  0
   -2.1756    1.3497    9.1781 H   0  0  0  0  0  0  0  0  0  0  0  0
   -2.7109    1.4496    7.5178 H   0  0  0  0  0  0  0  0  0  0  0  0
    2.0328    1.5738   10.9923 H   0  0  0  0  0  0  0  0  0  0  0  0
    1.8657   -0.3371   10.2915 H   0  0  0  0  0  0  0  0  0  0  0  0
  1  2  1  0
  1 47  1  0
  1 48  1  0
  1 49  1  0
  2  3  1  0
  3  4  2  0
  3  5  1  0
  5 34  1  0
  5  6  1  6
  5  7  1  0
  6 50  1  0
  7 45  1  0
  7  8  1  1
  7  9  1  0
  8 51  1  0
  9 10  1  0
  9 11  1  0
  9 52  1  1
 10 53  1  0
 11 12  1  0
 11 13  1  0
 11 54  1  1
 12 55  1  0
 13 14  1  1
 13 16  1  0
 13 45  1  0
 14 15  1  0
 14 56  1  0
 14 57  1  0
 15 58  1  0
 16 41  1  0
 16 17  1  0
 16 59  1  6
 17 43  1  0
 17 18  1  0
 17 60  1  1
 18 19  1  0
 18 20  1  0
 18 61  1  6
 19 62  1  0
 20 36  1  0
 20 21  1  6
 20 22  1  0
 21 63  1  0
 21 64  1  0
 21 65  1  0
 22 23  1  6
 22 24  1  0
 43 22  1  6
 23 66  1  0
 24 25  1  0
 24 26  1  0
 24 67  1  1
 25 68  1  0
 25 69  1  0
 25 70  1  0
 26 27  2  0
 26 28  1  0
 28 29  2  0
 28 30  1  0
 30 38  1  0
 30 31  1  1
 30 32  1  0
 31 71  1  0
 32 33  2  0
 32 34  1  0
 34 35  1  6
 34 36  1  0
 35 72  1  0
 36 37  1  6
 36 38  1  0
 37 73  1  0
 37 74  1  0
 37 75  1  0
 38 39  1  0
 38 76  1  1
 39 41  1  0
 39 40  1  0
 39 77  1  6
 40 41  1  0
 41 42  1  6
 42 78  1  0
 42 79  1  0
 42 80  1  0
 43 44  2  0
 45 46  1  0
 45 81  1  1
 46 82  1  0
M  END
>  <i_m_ct_stereo_status>  (144) 
1

>  <s_m_source_file>  (144) 
/var/tmp/pbs.5075288.sched01/tmp4tfr24xl/130i3iej58d.sdf

>  <i_m_source_file_index>  (144) 
35

>  <i_lp_mmshare_version>  (144) 
48012

>  <i_f3d_flags>  (144) 
0

>  <s_epik_input>  (144) 
W0NIM11PQyg9TylbQ0BAXShbT0hdKShbQ0BAXTEyW09IXSlbQ0BdMyhbT0hdKVtDQF00KFtDSDNdKVtDQEBdNShbQ0gzXSlbQ0BAXTYoW09IXSlbQ0BASF0oW0NIM10pQyg9TylDKD1PKUMoW09IXSkoQzM9TylbQ0BIXTRbQ0BASF03W0NAXShPNykoW0NIM10pW0NAQEhdKFtDQEhdKFtTK102W08tXSlbQ0BIXTVbT0hdKVtDQEBdKFtDSDJdW09IXSkoW0NASF0yW09IXSlbQ0BIXShbT0hdKVtDQEBIXTFbT0hd

>  <s_epik_cmdline>  (144) 
J2VwaWtfcHl0aG9uJywgJy1waHQnLCAnMi4wJywgJy1waCcsICc3LjAnLCAnLXRuJywgJzgnLCAnLW1hJywgJzIwMCcsICctaW1hZScsICc8aW5maWxlLm1hZT4nLCAnLW9tYWUnLCAnPG91dGZpbGUubWFlPic=

>  <r_lp_tautomer_probability>  (144) 
1

>  <r_epik_Ionization_Penalty>  (144) 
3.89718e-05

>  <r_epik_Ionization_Penalty_Charging>  (144) 
0

>  <r_epik_Ionization_Penalty_Neutral>  (144) 
3.89718e-05

>  <r_epik_State_Penalty>  (144) 
-0

>  <r_epik_Charging_Adjusted_Penalty>  (144) 
0

>  <i_epik_Tot_Q>  (144) 
0

>  <i_epik_Tot_abs_Q>  (144) 
2

>  <s_epik_Chemistry_Notes>  (144) 
This compound has an ester and may undergo hydrolysis at high or low pH.

>  <s_lp_Force_Field>  (144) 
OPLS3e

>  <r_lp_Energy>  (144) 
361.72

>  <b_lp_Chiralities_Consistent>  (144) 
1

>  <s_lp_Variant>  (144) 
64:0-7

>  <s_i_glide_gridfile>  (144) 
pfpi4k_grid

>  <i_i_glide_lignum>  (144) 
35

>  <i_i_glide_rotatable_bonds>  (144) 
13

>  <r_i_docking_score>  (144) 
-3.26162

>  <r_i_glide_ligand_efficiency>  (144) 
-0.0709049

>  <r_i_glide_ligand_efficiency_sa>  (144) 
-0.254056

>  <r_i_glide_ligand_efficiency_ln>  (144) 
-0.675475

>  <r_i_glide_gscore>  (144) 
-3.26162

>  <r_i_glide_lipo>  (144) 
-0.0090439

>  <r_i_glide_hbond>  (144) 
-0.152718

>  <r_i_glide_metal>  (144) 
-0

>  <r_i_glide_rewards>  (144) 
-1.00005

>  <r_i_glide_evdw>  (144) 
-23.3066

>  <r_i_glide_ecoul>  (144) 
-6.45582

>  <r_i_glide_erotb>  (144) 
0.0932432

>  <r_i_glide_esite>  (144) 
-0.05936

>  <r_i_glide_emodel>  (144) 
-44.4673

>  <r_i_glide_energy>  (144) 
-29.7624

>  <r_i_glide_einternal>  (144) 
6.61568

>  <r_i_glide_intrahb_reward>  (144) 
-1

>  <i_i_glide_confnum>  (144) 
2

>  <i_i_glide_posenum>  (144) 
1

>  <r_i_glide_eff_state_penalty>  (144) 
0

>  <ligand_id>  (144) 
64

>  <original_smiles>  (144) 
COC(=O)C1(O)C2(O)C(O)C(O)C(CO)(C3C4C(O)C5(C)C(O)(C(C)C(=O)C(=O)C6(O)C(=O)C1(O)C5(C)C6C1OC13C)[S+]4[O-])C2O

>  <smiles>  (144) 
[H]OC([H])([H])C12C([H])(O[H])C([H])(O[H])C(O[H])(C1([H])O[H])C(O[H])(C(=O)OC([H])([H])[H])C1(O[H])C(=O)C3(O[H])C(=O)C(=O)C([H])(C([H])([H])[H])C4(O[H])S(=O)C5([H])C([H])(O[H])C4(C([H])([H])[H])C1(C([H])([H])[H])C3([H])C1([H])OC1(C([H])([H])[H])C52[H]

$$$$
68:0:0
     RDKit          3D

136145  0  0  1  0  0  0  0  0999 V2000
    4.0303    0.4373    7.8524 C   0  0  0  0  0  0  0  0  0  0  0  0
    3.0593    0.0242    7.0169 C   0  0  0  0  0  0  0  0  0  0  0  0
    2.5125    0.9829    5.9077 C   0  0  2  0  0  0  0  0  0  0  0  0
    0.9851    0.9668    5.7813 C   0  0  0  0  0  0  0  0  0  0  0  0
    0.2338    1.7189    6.3894 O   0  0  0  0  0  0  0  0  0  0  0  0
    0.5214   -0.1302    4.8032 C   0  0  1  0  0  0  0  0  0  0  0  0
   -0.6864   -1.0031    5.1964 C   0  0  0  0  0  0  0  0  0  0  0  0
   -0.0488    0.5555    3.6896 O   0  0  0  0  0  0  0  0  0  0  0  0
    1.8747   -0.8559    4.4652 C   0  0  1  0  0  0  0  0  0  0  0  0
    1.7455   -1.5173    3.0568 C   0  0  0  0  0  0  0  0  0  0  0  0
    2.8491    0.4131    4.5316 C   0  0  1  0  0  0  0  0  0  0  0  0
    2.6526    1.3364    3.4747 O   0  0  0  0  0  0  0  0  0  0  0  0
    2.5335   -1.9024    5.5270 C   0  0  2  0  0  0  0  0  0  0  0  0
    3.9998   -2.0459    4.9620 C   0  0  0  0  0  0  0  0  0  0  0  0
    2.1231   -3.3971    5.7699 C   0  0  0  0  0  0  0  0  0  0  0  0
    2.8338   -4.0508    7.0785 C   0  0  1  0  0  0  0  0  0  0  0  0
    4.2877   -4.6849    6.5662 C   0  0  1  0  0  0  0  0  0  0  0  0
    5.3524   -3.7161    6.6126 O   0  0  0  0  0  0  0  0  0  0  0  0
    6.3254   -3.7951    7.5222 C   0  0  0  0  0  0  0  0  0  0  0  0
    7.1070   -2.8645    7.7105 O   0  0  0  0  0  0  0  0  0  0  0  0
    6.3148   -5.1817    8.0785 C   0  0  1  0  0  0  0  0  0  0  0  0
    7.7230   -5.8090    8.1184 C   0  0  0  0  0  0  0  0  0  0  0  0
    7.7796   -5.6090    9.6267 C   0  0  1  0  0  0  0  0  0  0  0  0
    8.6015   -4.5379   10.0697 O   0  0  0  0  0  0  0  0  0  0  0  0
    6.2431   -5.4046    9.6358 C   0  0  2  0  0  0  0  0  0  0  0  0
    5.6362   -6.6237    9.9695 O   0  0  0  0  0  0  0  0  0  0  0  0
    5.6705   -4.4376   10.7286 C   0  0  1  0  0  0  0  0  0  0  0  0
    6.0457   -3.1076   10.5042 O   0  0  0  0  0  0  0  0  0  0  0  0
    4.1664   -4.5070   11.1943 C   0  0  0  0  0  0  0  0  0  0  0  0
    3.0094   -4.6991   10.1403 C   0  0  2  0  0  0  0  0  0  0  0  0
    2.8367   -2.8763    9.6085 S   0  0  0  0  0  0  0  0  0  0  0  0
    3.6644   -1.8723   10.3918 O   0  0  0  0  0  0  0  0  0  0  0  0
    3.1580   -2.6640    7.7967 C   0  0  2  0  0  0  0  0  0  0  0  0
    2.4787   -1.4128    7.0319 C   0  0  1  0  0  0  0  0  0  0  0  0
    1.1487   -1.2545    7.8044 C   0  0  0  0  0  0  0  0  0  0  0  0
    1.5965   -5.5030   10.6331 C   0  0  2  0  0  0  0  0  0  0  0  0
    0.1622   -6.0587    9.9820 C   0  0  0  0  0  0  0  0  0  0  0  0
   -0.1897   -5.7460    8.7115 O   0  0  0  0  0  0  0  0  0  0  0  0
    0.2783   -4.4853    8.4807 C   0  0  1  0  0  0  0  0  0  0  0  0
   -0.8761   -4.1040    7.4987 C   0  0  0  0  0  0  0  0  0  0  0  0
    0.0797   -3.6366    9.9435 C   0  0  1  0  0  0  0  0  0  0  0  0
   -1.2998   -3.3947   10.1626 O   0  0  0  0  0  0  0  0  0  0  0  0
    0.7936   -4.3148   11.2465 C   0  0  1  0  0  0  0  0  0  0  0  0
   -0.0447   -4.5983   12.3680 O   0  0  0  0  0  0  0  0  0  0  0  0
    1.6692   -5.0961    7.7532 C   0  0  2  0  0  0  0  0  0  0  0  0
    2.0924   -6.7504    7.9892 C   0  0  2  0  0  0  0  0  0  0  0  0
    1.9354   -7.6113    6.6470 C   0  0  1  0  0  0  0  0  0  0  0  0
    0.4653   -7.7425    6.1652 C   0  0  0  0  0  0  0  0  0  0  0  0
    2.5654   -6.8527    5.6449 O   0  0  0  0  0  0  0  0  0  0  0  0
    2.6039   -9.0542    6.6005 C   0  0  1  0  0  0  0  0  0  0  0  0
    3.3292   -9.4962    5.2595 C   0  0  2  0  0  0  0  0  0  0  0  0
    2.4777   -9.3138    4.1273 O   0  0  0  0  0  0  0  0  0  0  0  0
    2.9299   -8.9045    2.9270 C   0  0  0  0  0  0  0  0  0  0  0  0
    1.8097   -8.7952    1.9143 C   0  0  0  0  0  0  0  0  0  0  0  0
    4.0895   -8.6305    2.6208 O   0  0  0  0  0  0  0  0  0  0  0  0
    3.8035  -10.9910    5.2507 C   0  0  2  0  0  0  0  0  0  0  0  0
    4.7005  -11.4298    4.0747 C   0  0  0  0  0  0  0  0  0  0  0  0
    2.6883  -11.8614    5.2728 O   0  0  0  0  0  0  0  0  0  0  0  0
    3.4735   -9.4421    7.8276 C   0  0  0  0  0  0  0  0  0  0  0  0
    3.2373   -8.7485    9.1778 C   0  0  0  0  0  0  0  0  0  0  0  0
    3.9384   -9.1405   10.0989 O   0  0  0  0  0  0  0  0  0  0  0  0
    2.0421   -7.7523    9.3617 C   0  0  2  0  0  0  0  0  0  0  0  0
    0.8843   -8.8460    9.2426 C   0  0  0  0  0  0  0  0  0  0  0  0
    1.9708   -7.0225   10.8957 C   0  0  1  0  0  0  0  0  0  0  0  0
    3.0742   -7.3368   11.9516 C   0  0  0  0  0  0  0  0  0  0  0  0
    1.0353   -7.6295   11.8085 O   0  0  0  0  0  0  0  0  0  0  0  0
    5.3089   -5.7406    7.0746 C   0  0  1  0  0  0  0  0  0  0  0  0
    5.1028   -7.1185    7.0678 O   0  0  0  0  0  0  0  0  0  0  0  0
    4.4493   -0.2161    8.6044 H   0  0  0  0  0  0  0  0  0  0  0  0
    4.4264    1.4383    7.7783 H   0  0  0  0  0  0  0  0  0  0  0  0
    2.8806    2.0013    6.0422 H   0  0  0  0  0  0  0  0  0  0  0  0
   -0.4062   -1.8343    5.8146 H   0  0  0  0  0  0  0  0  0  0  0  0
   -1.1616   -1.4493    4.3231 H   0  0  0  0  0  0  0  0  0  0  0  0
   -1.4487   -0.4305    5.7137 H   0  0  0  0  0  0  0  0  0  0  0  0
   -0.1524   -0.0450    2.9619 H   0  0  0  0  0  0  0  0  0  0  0  0
    2.6267   -2.0631    2.7256 H   0  0  0  0  0  0  0  0  0  0  0  0
    1.5424   -0.7880    2.2684 H   0  0  0  0  0  0  0  0  0  0  0  0
    0.9268   -2.2388    3.0481 H   0  0  0  0  0  0  0  0  0  0  0  0
    3.9323    0.2967    4.5076 H   0  0  0  0  0  0  0  0  0  0  0  0
    3.3205    2.0109    3.5055 H   0  0  0  0  0  0  0  0  0  0  0  0
    4.7646   -1.6298    5.6235 H   0  0  0  0  0  0  0  0  0  0  0  0
    4.1954   -1.6020    3.9941 H   0  0  0  0  0  0  0  0  0  0  0  0
    4.2519   -3.0550    4.6628 H   0  0  0  0  0  0  0  0  0  0  0  0
    1.0486   -3.3944    5.8899 H   0  0  0  0  0  0  0  0  0  0  0  0
    2.2931   -4.0095    4.8858 H   0  0  0  0  0  0  0  0  0  0  0  0
    4.1439   -4.9491    5.5169 H   0  0  0  0  0  0  0  0  0  0  0  0
    7.7575   -6.8717    7.8656 H   0  0  0  0  0  0  0  0  0  0  0  0
    8.4999   -5.2594    7.5926 H   0  0  0  0  0  0  0  0  0  0  0  0
    8.0893   -6.5236   10.1388 H   0  0  0  0  0  0  0  0  0  0  0  0
    9.4878   -4.8632   10.1090 H   0  0  0  0  0  0  0  0  0  0  0  0
    5.9607   -7.2739    9.3715 H   0  0  0  0  0  0  0  0  0  0  0  0
    6.2231   -4.6606   11.6443 H   0  0  0  0  0  0  0  0  0  0  0  0
    5.5711   -2.7853    9.7475 H   0  0  0  0  0  0  0  0  0  0  0  0
    4.1498   -5.2271   11.9830 H   0  0  0  0  0  0  0  0  0  0  0  0
    3.9607   -3.6363   11.8191 H   0  0  0  0  0  0  0  0  0  0  0  0
    3.5473   -5.2324    9.3824 H   0  0  0  0  0  0  0  0  0  0  0  0
    4.1856   -2.3417    7.8522 H   0  0  0  0  0  0  0  0  0  0  0  0
    0.7054   -2.2095    7.8774 H   0  0  0  0  0  0  0  0  0  0  0  0
    0.3549   -0.6169    7.4687 H   0  0  0  0  0  0  0  0  0  0  0  0
    1.3359   -0.8610    8.8034 H   0  0  0  0  0  0  0  0  0  0  0  0
   -0.2130   -7.0359   10.1039 H   0  0  0  0  0  0  0  0  0  0  0  0
   -0.7213   -5.8078   10.5491 H   0  0  0  0  0  0  0  0  0  0  0  0
   -1.0792   -3.0423    7.4566 H   0  0  0  0  0  0  0  0  0  0  0  0
   -1.8342   -4.5245    7.8207 H   0  0  0  0  0  0  0  0  0  0  0  0
   -0.7406   -4.4610    6.4721 H   0  0  0  0  0  0  0  0  0  0  0  0
    0.3640   -2.6088    9.8925 H   0  0  0  0  0  0  0  0  0  0  0  0
   -1.6762   -4.1232   10.6425 H   0  0  0  0  0  0  0  0  0  0  0  0
    1.4744   -3.6073   11.7147 H   0  0  0  0  0  0  0  0  0  0  0  0
   -0.6780   -5.2770   12.1589 H   0  0  0  0  0  0  0  0  0  0  0  0
    1.1711   -5.2842    6.8145 H   0  0  0  0  0  0  0  0  0  0  0  0
    3.1377   -6.5926    8.0242 H   0  0  0  0  0  0  0  0  0  0  0  0
   -0.0718   -8.5522    6.6535 H   0  0  0  0  0  0  0  0  0  0  0  0
    0.4304   -7.9758    5.1012 H   0  0  0  0  0  0  0  0  0  0  0  0
   -0.1300   -6.8451    6.3133 H   0  0  0  0  0  0  0  0  0  0  0  0
    3.5038   -6.9162    5.8038 H   0  0  0  0  0  0  0  0  0  0  0  0
    1.7745   -9.7544    6.6617 H   0  0  0  0  0  0  0  0  0  0  0  0
    4.1986   -8.8525    5.1397 H   0  0  0  0  0  0  0  0  0  0  0  0
    1.2155   -7.9115    2.1383 H   0  0  0  0  0  0  0  0  0  0  0  0
    1.1679   -9.6757    1.9464 H   0  0  0  0  0  0  0  0  0  0  0  0
    2.2247   -8.7122    0.9125 H   0  0  0  0  0  0  0  0  0  0  0  0
    4.3937  -11.1880    6.1441 H   0  0  0  0  0  0  0  0  0  0  0  0
    5.5410  -10.7471    3.9476 H   0  0  0  0  0  0  0  0  0  0  0  0
    4.1591  -11.4953    3.1315 H   0  0  0  0  0  0  0  0  0  0  0  0
    5.1067  -12.4328    4.2250 H   0  0  0  0  0  0  0  0  0  0  0  0
    2.3270  -11.9606    6.1465 H   0  0  0  0  0  0  0  0  0  0  0  0
    3.3471  -10.5134    8.0153 H   0  0  0  0  0  0  0  0  0  0  0  0
    4.5297   -9.3472    7.6039 H   0  0  0  0  0  0  0  0  0  0  0  0
   -0.0167   -8.4783    8.7609 H   0  0  0  0  0  0  0  0  0  0  0  0
    0.5777   -9.2730   10.2000 H   0  0  0  0  0  0  0  0  0  0  0  0
    1.1128   -9.7422    8.6799 H   0  0  0  0  0  0  0  0  0  0  0  0
    4.0810   -7.2021   11.5969 H   0  0  0  0  0  0  0  0  0  0  0  0
    3.0729   -8.3803   12.2871 H   0  0  0  0  0  0  0  0  0  0  0  0
    2.9529   -6.7415   12.8590 H   0  0  0  0  0  0  0  0  0  0  0  0
    1.1092   -7.2072   12.6512 H   0  0  0  0  0  0  0  0  0  0  0  0
    5.9271   -5.8447    6.1745 H   0  0  0  0  0  0  0  0  0  0  0  0
    5.9360   -7.5724    7.0212 H   0  0  0  0  0  0  0  0  0  0  0  0
  1  2  2  0
  1 69  1  0
  1 70  1  0
  2 34  1  0
  2  3  1  0
  3 11  1  0
  3  4  1  0
  3 71  1  1
  4  5  2  0
  4  6  1  0
  6  7  1  0
  6  8  1  6
  6  9  1  0
  7 72  1  0
  7 73  1  0
  7 74  1  0
  8 75  1  0
  9 10  1  6
  9 11  1  0
  9 13  1  0
 10 76  1  0
 10 77  1  0
 10 78  1  0
 11 12  1  0
 11 79  1  1
 12 80  1  0
 13 34  1  0
 13 14  1  6
 13 15  1  0
 14 81  1  0
 14 82  1  0
 14 83  1  0
 16 15  1  6
 15 84  1  0
 15 85  1  0
 16 33  1  0
 16 45  1  0
 16 17  1  0
 17 67  1  0
 17 18  1  0
 17 86  1  6
 18 19  1  0
 19 20  2  0
 19 21  1  0
 21 25  1  0
 21 22  1  6
 21 67  1  0
 22 23  1  0
 22 87  1  0
 22 88  1  0
 23 24  1  0
 23 25  1  0
 23 89  1  1
 24 90  1  0
 25 26  1  6
 25 27  1  0
 26 91  1  0
 27 28  1  0
 27 29  1  0
 27 92  1  1
 28 93  1  0
 29 30  1  0
 29 94  1  0
 29 95  1  0
 31 30  1  1
 30 36  1  0
 30 96  1  6
 31 32  2  0
 31 33  1  0
 33 34  1  0
 33 97  1  1
 34 35  1  1
 35 98  1  0
 35 99  1  0
 35100  1  0
 36 43  1  0
 36 64  1  0
 36 37  1  6
 37 38  1  0
 37101  1  0
 37102  1  0
 38 39  1  0
 39 40  1  6
 39 41  1  0
 39 45  1  0
 40103  1  0
 40104  1  0
 40105  1  0
 41 42  1  0
 41 43  1  0
 41106  1  6
 42107  1  0
 43 44  1  0
 43108  1  1
 44109  1  0
 45 46  1  0
 45110  1  6
 46 62  1  0
 46 47  1  0
 46111  1  6
 47 48  1  0
 47 49  1  6
 47 50  1  0
 48112  1  0
 48113  1  0
 48114  1  0
 49115  1  0
 50 51  1  0
 50 59  1  0
 50116  1  1
 51 52  1  0
 51 56  1  0
 51117  1  6
 52 53  1  0
 53 54  1  0
 53 55  2  0
 54118  1  0
 54119  1  0
 54120  1  0
 56 57  1  0
 56 58  1  0
 56121  1  1
 57122  1  0
 57123  1  0
 57124  1  0
 58125  1  0
 59 60  1  0
 59126  1  0
 59127  1  0
 60 61  2  0
 60 62  1  0
 62 63  1  6
 62 64  1  0
 63128  1  0
 63129  1  0
 63130  1  0
 64 65  1  0
 64 66  1  1
 65131  1  0
 65132  1  0
 65133  1  0
 66134  1  0
 67 68  1  0
 67135  1  6
 68136  1  0
M  END
>  <i_m_ct_stereo_status>  (145) 
1

>  <s_m_source_file>  (145) 
/var/tmp/pbs.5075288.sched01/tmp4tfr24xl/130i3iej58d.sdf

>  <i_m_source_file_index>  (145) 
46

>  <i_lp_mmshare_version>  (145) 
48012

>  <i_f3d_flags>  (145) 
0

>  <s_epik_input>  (145) 
W0NIMl09QzFbQ0BASF0oW0NAQEhdMltPSF0pQyg9TylbQ0BAXShbQ0gzXSkoW09IXSlbQ0BdMihbQ0gzXSlbQ0BdKFtDSDNdKShbQ0gyXTMpW0NAQF0xKFtDSDNdKVtDQEhdNFtTK10oW08tXSlbQ0BASF0oW0NIMl1bQ0BIXShbT0hdKVtDQF0oW09IXSkoW0NAQEhdKFtDSDJdNSlbT0hdKVtDQEBdNShbQ0BIXTZbT0hdKUMoPU8pT1tDQEBIXTZbQ0BdMzQ3KUM4OVtDSDJdT1tDQEBdKFtDSDNdKShbQ0BASF0oW09IXSlbQ0BIXThbT0hdKVtDQEBIXTdbQ0BIXTFbQ0BdKFtDSDNdKShbQ0BdOShbQ0gzXSlbT0hdKUMoPU8pW0NIMl1bQ0BASF0oW0NAXTEoW0NIM10pW09IXSlbQ0BASF0oW0NASF0oW0NIM10pW09IXSlPQyg9TylbQ0gzXQ==

>  <s_epik_cmdline>  (145) 
J2VwaWtfcHl0aG9uJywgJy1waHQnLCAnMi4wJywgJy1waCcsICc3LjAnLCAnLXRuJywgJzgnLCAnLW1hJywgJzIwMCcsICctaW1hZScsICc8aW5maWxlLm1hZT4nLCAnLW9tYWUnLCAnPG91dGZpbGUubWFlPic=

>  <r_lp_tautomer_probability>  (145) 
1

>  <r_epik_Ionization_Penalty>  (145) 
2.3251e-06

>  <r_epik_Ionization_Penalty_Charging>  (145) 
0

>  <r_epik_Ionization_Penalty_Neutral>  (145) 
2.3251e-06

>  <r_epik_State_Penalty>  (145) 
-0

>  <r_epik_Charging_Adjusted_Penalty>  (145) 
0

>  <i_epik_Tot_Q>  (145) 
0

>  <i_epik_Tot_abs_Q>  (145) 
2

>  <s_epik_Chemistry_Notes>  (145) 
This compound has an ester and may undergo hydrolysis at high or low pH.

>  <s_lp_Force_Field>  (145) 
OPLS3e

>  <r_lp_Energy>  (145) 
528.28

>  <b_lp_Chiralities_Consistent>  (145) 
1

>  <s_lp_Variant>  (145) 
68:0-1

>  <s_i_glide_gridfile>  (145) 
pfpi4k_grid

>  <i_i_glide_lignum>  (145) 
46

>  <i_i_glide_rotatable_bonds>  (145) 
15

>  <r_i_docking_score>  (145) 
-3.12508

>  <r_i_glide_ligand_efficiency>  (145) 
-0.045957

>  <r_i_glide_ligand_efficiency_sa>  (145) 
-0.187581

>  <r_i_glide_ligand_efficiency_ln>  (145) 
-0.59873

>  <r_i_glide_gscore>  (145) 
-3.12508

>  <r_i_glide_lipo>  (145) 
0

>  <r_i_glide_hbond>  (145) 
-0.0411169

>  <r_i_glide_metal>  (145) 
-0

>  <r_i_glide_rewards>  (145) 
-0.504779

>  <r_i_glide_evdw>  (145) 
-33.8265

>  <r_i_glide_ecoul>  (145) 
-6.26248

>  <r_i_glide_erotb>  (145) 
0.0692949

>  <r_i_glide_esite>  (145) 
-0.0177762

>  <r_i_glide_emodel>  (145) 
-48.3843

>  <r_i_glide_energy>  (145) 
-40.089

>  <r_i_glide_einternal>  (145) 
6.12946

>  <r_i_glide_intrahb_reward>  (145) 
-0.5

>  <i_i_glide_confnum>  (145) 
4

>  <i_i_glide_posenum>  (145) 
7

>  <r_i_glide_eff_state_penalty>  (145) 
0

>  <ligand_id>  (145) 
68

>  <original_smiles>  (145) 
C=C1C2C(=O)C(C)(O)C(C)(C2O)C2(C)CC34C5OC(=O)C6(CC(O)C6(O)C(O)CC([S+]([O-])C3C12C)C12COC(C)(C(O)C1O)C4C1C(C)(O)C(C(OC(C)=O)C(C)O)CC(=O)C1(C)C2(C)O)C5O

>  <smiles>  (145) 
[H]OC([H])(C([H])([H])[H])C([H])(OC(=O)C([H])([H])[H])C1([H])C([H])([H])C(=O)C2(C([H])([H])[H])C([H])(C3([H])C4(C([H])([H])[H])OC([H])([H])C(C([H])(O[H])C4([H])O[H])(C4([H])S(=O)C5([H])C6(C([H])([H])[H])C(=C([H])[H])C7([H])C(=O)C(O[H])(C([H])([H])[H])C(C([H])([H])[H])(C7([H])O[H])C6(C([H])([H])[H])C([H])([H])C53C3([H])OC(=O)C5(C([H])([H])C([H])(O[H])C5(O[H])C([H])(O[H])C4([H])[H])C3([H])O[H])C2(O[H])C([H])([H])[H])C1(O[H])C([H])([H])[H]

$$$$
68:0:1
     RDKit          3D

136145  0  0  1  0  0  0  0  0999 V2000
    8.1710   -1.8638    8.3623 C   0  0  0  0  0  0  0  0  0  0  0  0
    6.8546   -1.6026    8.2800 C   0  0  0  0  0  0  0  0  0  0  0  0
    6.3437   -0.1391    8.0377 C   0  0  2  0  0  0  0  0  0  0  0  0
    5.1648    0.2852    8.9182 C   0  0  0  0  0  0  0  0  0  0  0  0
    5.2740    0.8484   10.0104 O   0  0  0  0  0  0  0  0  0  0  0  0
    3.8340   -0.0991    8.2357 C   0  0  1  0  0  0  0  0  0  0  0  0
    2.7325   -0.7450    9.1024 C   0  0  0  0  0  0  0  0  0  0  0  0
    3.1863    1.1339    7.9279 O   0  0  0  0  0  0  0  0  0  0  0  0
    4.3143   -0.8974    6.9535 C   0  0  1  0  0  0  0  0  0  0  0  0
    3.2113   -0.7763    5.8585 C   0  0  0  0  0  0  0  0  0  0  0  0
    5.6479   -0.0599    6.6799 C   0  0  1  0  0  0  0  0  0  0  0  0
    5.4532    1.2729    6.2175 O   0  0  0  0  0  0  0  0  0  0  0  0
    4.8300   -2.4403    7.0933 C   0  0  2  0  0  0  0  0  0  0  0  0
    5.5357   -2.6452    5.7004 C   0  0  0  0  0  0  0  0  0  0  0  0
    3.9399   -3.7285    7.1977 C   0  0  0  0  0  0  0  0  0  0  0  0
    4.8000   -5.0641    7.5568 C   0  0  1  0  0  0  0  0  0  0  0  0
    5.3289   -5.7109    6.1119 C   0  0  1  0  0  0  0  0  0  0  0  0
    6.5819   -5.1357    5.6869 O   0  0  0  0  0  0  0  0  0  0  0  0
    7.7014   -5.8920    5.7533 C   0  0  0  0  0  0  0  0  0  0  0  0
    8.8363   -5.4590    5.6260 O   0  0  0  0  0  0  0  0  0  0  0  0
    7.3040   -7.3249    5.8373 C   0  0  1  0  0  0  0  0  0  0  0  0
    8.0748   -8.2049    4.8136 C   0  0  0  0  0  0  0  0  0  0  0  0
    8.9443   -8.7378    5.9495 C   0  0  1  0  0  0  0  0  0  0  0  0
   10.2566   -8.2111    6.0151 O   0  0  0  0  0  0  0  0  0  0  0  0
    7.8962   -8.2374    6.9824 C   0  0  2  0  0  0  0  0  0  0  0  0
    7.0179   -9.2857    7.3020 O   0  0  0  0  0  0  0  0  0  0  0  0
    8.4788   -7.7574    8.3644 C   0  0  1  0  0  0  0  0  0  0  0  0
    9.2355   -6.5768    8.2491 O   0  0  0  0  0  0  0  0  0  0  0  0
    7.5888   -7.6824    9.6537 C   0  0  0  0  0  0  0  0  0  0  0  0
    6.1418   -7.0696    9.5770 C   0  0  2  0  0  0  0  0  0  0  0  0
    6.6069   -5.2215    9.6928 S   0  0  0  0  0  0  0  0  0  0  0  0
    8.0622   -4.9083   10.0343 O   0  0  0  0  0  0  0  0  0  0  0  0
    6.0439   -4.2849    8.2000 C   0  0  2  0  0  0  0  0  0  0  0  0
    5.7644   -2.7031    8.3497 C   0  0  1  0  0  0  0  0  0  0  0  0
    5.2408   -2.5988    9.8021 C   0  0  0  0  0  0  0  0  0  0  0  0
    4.9436   -7.6576   10.6521 C   0  0  2  0  0  0  0  0  0  0  0  0
    3.3086   -7.4929   10.9899 C   0  0  0  0  0  0  0  0  0  0  0  0
    2.5766   -6.5412   10.3354 O   0  0  0  0  0  0  0  0  0  0  0  0
    3.4112   -5.4679   10.1385 C   0  0  1  0  0  0  0  0  0  0  0  0
    2.2662   -4.3976   10.2394 C   0  0  0  0  0  0  0  0  0  0  0  0
    4.3898   -5.3741   11.5203 C   0  0  1  0  0  0  0  0  0  0  0  0
    3.6250   -4.9487   12.6453 O   0  0  0  0  0  0  0  0  0  0  0  0
    5.2332   -6.7362   11.8736 C   0  0  1  0  0  0  0  0  0  0  0  0
    5.0437   -7.3130   13.1666 O   0  0  0  0  0  0  0  0  0  0  0  0
    3.7886   -5.9917    8.5714 C   0  0  2  0  0  0  0  0  0  0  0  0
    3.4388   -7.6171    8.1096 C   0  0  2  0  0  0  0  0  0  0  0  0
    2.2586   -7.6879    7.0201 C   0  0  1  0  0  0  0  0  0  0  0  0
    0.8801   -7.2299    7.5804 C   0  0  0  0  0  0  0  0  0  0  0  0
    2.5583   -6.7102    6.0458 O   0  0  0  0  0  0  0  0  0  0  0  0
    2.0691   -9.0603    6.2389 C   0  0  1  0  0  0  0  0  0  0  0  0
    1.7118   -8.9999    4.7027 C   0  0  2  0  0  0  0  0  0  0  0  0
    0.5336   -8.2160    4.5198 O   0  0  0  0  0  0  0  0  0  0  0  0
    0.2896   -7.5661    3.3732 C   0  0  0  0  0  0  0  0  0  0  0  0
   -1.1419   -7.0637    3.3210 C   0  0  0  0  0  0  0  0  0  0  0  0
    1.0872   -7.4148    2.4432 O   0  0  0  0  0  0  0  0  0  0  0  0
    1.5080  -10.3960    4.0051 C   0  0  2  0  0  0  0  0  0  0  0  0
    0.7287  -10.4010    2.6702 C   0  0  0  0  0  0  0  0  0  0  0  0
    0.8528  -11.3294    4.8436 O   0  0  0  0  0  0  0  0  0  0  0  0
    3.1498  -10.1441    6.4965 C   0  0  0  0  0  0  0  0  0  0  0  0
    3.9261  -10.1516    7.8177 C   0  0  0  0  0  0  0  0  0  0  0  0
    4.7189  -11.0757    7.9613 O   0  0  0  0  0  0  0  0  0  0  0  0
    3.5952   -9.1023    8.9295 C   0  0  2  0  0  0  0  0  0  0  0  0
    2.1674   -9.6946    9.3273 C   0  0  0  0  0  0  0  0  0  0  0  0
    4.6447   -9.1783   10.2670 C   0  0  1  0  0  0  0  0  0  0  0  0
    5.8374  -10.1819   10.2694 C   0  0  0  0  0  0  0  0  0  0  0  0
    4.1317   -9.9086   11.3963 O   0  0  0  0  0  0  0  0  0  0  0  0
    5.8207   -7.1114    5.5965 C   0  0  1  0  0  0  0  0  0  0  0  0
    5.0579   -8.2636    5.4296 O   0  0  0  0  0  0  0  0  0  0  0  0
    8.5387   -2.8682    8.5052 H   0  0  0  0  0  0  0  0  0  0  0  0
    8.8959   -1.0653    8.2876 H   0  0  0  0  0  0  0  0  0  0  0  0
    7.1530    0.5799    8.1162 H   0  0  0  0  0  0  0  0  0  0  0  0
    2.8487   -1.8086    9.2010 H   0  0  0  0  0  0  0  0  0  0  0  0
    1.7372   -0.6199    8.6736 H   0  0  0  0  0  0  0  0  0  0  0  0
    2.6936   -0.3229   10.1087 H   0  0  0  0  0  0  0  0  0  0  0  0
    2.3889    0.9636    7.4526 H   0  0  0  0  0  0  0  0  0  0  0  0
    3.4338   -1.2959    4.9287 H   0  0  0  0  0  0  0  0  0  0  0  0
    3.0128    0.2595    5.5728 H   0  0  0  0  0  0  0  0  0  0  0  0
    2.2687   -1.1956    6.2171 H   0  0  0  0  0  0  0  0  0  0  0  0
    6.3696   -0.4140    5.9539 H   0  0  0  0  0  0  0  0  0  0  0  0
    5.0246    1.2328    5.3768 H   0  0  0  0  0  0  0  0  0  0  0  0
    6.6139   -2.7833    5.8092 H   0  0  0  0  0  0  0  0  0  0  0  0
    5.4282   -1.8558    4.9659 H   0  0  0  0  0  0  0  0  0  0  0  0
    5.1037   -3.4294    5.0888 H   0  0  0  0  0  0  0  0  0  0  0  0
    3.2086   -3.5174    7.9661 H   0  0  0  0  0  0  0  0  0  0  0  0
    3.3373   -3.8739    6.3034 H   0  0  0  0  0  0  0  0  0  0  0  0
    4.5775   -5.4214    5.3831 H   0  0  0  0  0  0  0  0  0  0  0  0
    7.4697   -8.9837    4.3556 H   0  0  0  0  0  0  0  0  0  0  0  0
    8.6357   -7.6596    4.0442 H   0  0  0  0  0  0  0  0  0  0  0  0
    9.0111   -9.8331    5.9117 H   0  0  0  0  0  0  0  0  0  0  0  0
   10.1974   -7.2826    5.8417 H   0  0  0  0  0  0  0  0  0  0  0  0
    6.7201   -9.6482    6.4790 H   0  0  0  0  0  0  0  0  0  0  0  0
    9.2397   -8.4966    8.6214 H   0  0  0  0  0  0  0  0  0  0  0  0
    9.9267   -6.7369    7.6292 H   0  0  0  0  0  0  0  0  0  0  0  0
    7.6327   -8.6556   10.0976 H   0  0  0  0  0  0  0  0  0  0  0  0
    8.1618   -7.1801   10.4311 H   0  0  0  0  0  0  0  0  0  0  0  0
    5.9061   -7.2850    8.5582 H   0  0  0  0  0  0  0  0  0  0  0  0
    6.9819   -4.3047    7.6764 H   0  0  0  0  0  0  0  0  0  0  0  0
    4.4973   -3.3373    9.9296 H   0  0  0  0  0  0  0  0  0  0  0  0
    4.7870   -1.7104   10.2021 H   0  0  0  0  0  0  0  0  0  0  0  0
    6.0470   -2.7726   10.5153 H   0  0  0  0  0  0  0  0  0  0  0  0
    2.6164   -8.3025   11.1099 H   0  0  0  0  0  0  0  0  0  0  0  0
    3.0465   -7.3115   12.0299 H   0  0  0  0  0  0  0  0  0  0  0  0
    2.5983   -3.4273   10.5983 H   0  0  0  0  0  0  0  0  0  0  0  0
    1.5223   -4.6839   10.9880 H   0  0  0  0  0  0  0  0  0  0  0  0
    1.7025   -4.2543    9.3196 H   0  0  0  0  0  0  0  0  0  0  0  0
    5.0697   -4.5322   11.5391 H   0  0  0  0  0  0  0  0  0  0  0  0
    2.9982   -5.6247   12.8552 H   0  0  0  0  0  0  0  0  0  0  0  0
    6.2945   -6.5131   11.9530 H   0  0  0  0  0  0  0  0  0  0  0  0
    5.5722   -8.0959   13.2371 H   0  0  0  0  0  0  0  0  0  0  0  0
    2.8753   -5.5998    8.1668 H   0  0  0  0  0  0  0  0  0  0  0  0
    4.3000   -7.7298    7.5040 H   0  0  0  0  0  0  0  0  0  0  0  0
    0.3442   -8.0190    8.1018 H   0  0  0  0  0  0  0  0  0  0  0  0
    0.2120   -6.9225    6.7769 H   0  0  0  0  0  0  0  0  0  0  0  0
    0.9303   -6.3938    8.2751 H   0  0  0  0  0  0  0  0  0  0  0  0
    2.5257   -5.8645    6.4627 H   0  0  0  0  0  0  0  0  0  0  0  0
    1.1627   -9.4940    6.6580 H   0  0  0  0  0  0  0  0  0  0  0  0
    2.5318   -8.4878    4.1891 H   0  0  0  0  0  0  0  0  0  0  0  0
   -1.2972   -6.2395    4.0277 H   0  0  0  0  0  0  0  0  0  0  0  0
   -1.8379   -7.8603    3.5827 H   0  0  0  0  0  0  0  0  0  0  0  0
   -1.3934   -6.7003    2.3278 H   0  0  0  0  0  0  0  0  0  0  0  0
    2.4989  -10.8063    3.8057 H   0  0  0  0  0  0  0  0  0  0  0  0
    1.1646   -9.7021    1.9598 H   0  0  0  0  0  0  0  0  0  0  0  0
   -0.3078  -10.0758    2.8296 H   0  0  0  0  0  0  0  0  0  0  0  0
    0.6116  -11.4220    2.3042 H   0  0  0  0  0  0  0  0  0  0  0  0
    1.3879  -11.5413    5.5994 H   0  0  0  0  0  0  0  0  0  0  0  0
    2.6590  -11.1138    6.4782 H   0  0  0  0  0  0  0  0  0  0  0  0
    3.8530  -10.2178    5.6722 H   0  0  0  0  0  0  0  0  0  0  0  0
    1.4531   -8.9388    9.6347 H   0  0  0  0  0  0  0  0  0  0  0  0
    2.2013  -10.4304   10.1267 H   0  0  0  0  0  0  0  0  0  0  0  0
    1.6336  -10.2501    8.5641 H   0  0  0  0  0  0  0  0  0  0  0  0
    6.4661  -10.1305    9.3973 H   0  0  0  0  0  0  0  0  0  0  0  0
    5.5394  -11.2381   10.2733 H   0  0  0  0  0  0  0  0  0  0  0  0
    6.4708  -10.0642   11.1522 H   0  0  0  0  0  0  0  0  0  0  0  0
    3.9162  -10.7841   11.1096 H   0  0  0  0  0  0  0  0  0  0  0  0
    5.7688   -6.9222    4.5163 H   0  0  0  0  0  0  0  0  0  0  0  0
    4.9073   -8.6388    6.2804 H   0  0  0  0  0  0  0  0  0  0  0  0
  1  2  2  0
  1 69  1  0
  1 70  1  0
  2 34  1  0
  2  3  1  0
  3 11  1  0
  3  4  1  0
  3 71  1  6
  4  5  2  0
  4  6  1  0
  6  7  1  0
  6  8  1  6
  6  9  1  0
  7 72  1  0
  7 73  1  0
  7 74  1  0
  8 75  1  0
  9 10  1  6
  9 11  1  0
  9 13  1  0
 10 76  1  0
 10 77  1  0
 10 78  1  0
 11 12  1  0
 11 79  1  6
 12 80  1  0
 13 34  1  0
 13 14  1  6
 13 15  1  0
 14 81  1  0
 14 82  1  0
 14 83  1  0
 16 15  1  6
 15 84  1  0
 15 85  1  0
 16 33  1  0
 16 45  1  0
 16 17  1  0
 17 67  1  0
 17 18  1  0
 17 86  1  6
 18 19  1  0
 19 20  2  0
 19 21  1  0
 21 25  1  0
 21 22  1  6
 21 67  1  0
 22 23  1  0
 22 87  1  0
 22 88  1  0
 23 24  1  0
 23 25  1  0
 23 89  1  6
 24 90  1  0
 25 26  1  1
 25 27  1  0
 26 91  1  0
 27 28  1  0
 27 29  1  0
 27 92  1  1
 28 93  1  0
 29 30  1  0
 29 94  1  0
 29 95  1  0
 31 30  1  6
 30 36  1  0
 30 96  1  6
 31 32  2  0
 31 33  1  0
 33 34  1  0
 33 97  1  6
 34 35  1  1
 35 98  1  0
 35 99  1  0
 35100  1  0
 36 43  1  0
 36 64  1  0
 36 37  1  6
 37 38  1  0
 37101  1  0
 37102  1  0
 38 39  1  0
 39 40  1  6
 39 41  1  0
 39 45  1  0
 40103  1  0
 40104  1  0
 40105  1  0
 41 42  1  0
 41 43  1  0
 41106  1  6
 42107  1  0
 43 44  1  0
 43108  1  1
 44109  1  0
 45 46  1  0
 45110  1  6
 46 62  1  0
 46 47  1  0
 46111  1  6
 47 48  1  0
 47 49  1  6
 47 50  1  0
 48112  1  0
 48113  1  0
 48114  1  0
 49115  1  0
 50 51  1  0
 50 59  1  0
 50116  1  1
 51 52  1  0
 51 56  1  0
 51117  1  6
 52 53  1  0
 53 54  1  0
 53 55  2  0
 54118  1  0
 54119  1  0
 54120  1  0
 56 57  1  0
 56 58  1  0
 56121  1  6
 57122  1  0
 57123  1  0
 57124  1  0
 58125  1  0
 59 60  1  0
 59126  1  0
 59127  1  0
 60 61  2  0
 60 62  1  0
 62 63  1  1
 62 64  1  0
 63128  1  0
 63129  1  0
 63130  1  0
 64 65  1  0
 64 66  1  1
 65131  1  0
 65132  1  0
 65133  1  0
 66134  1  0
 67 68  1  0
 67135  1  6
 68136  1  0
M  END
>  <i_m_ct_stereo_status>  (146) 
1

>  <s_m_source_file>  (146) 
/var/tmp/pbs.5075288.sched01/tmp4tfr24xl/130i3iej58d.sdf

>  <i_m_source_file_index>  (146) 
46

>  <i_lp_mmshare_version>  (146) 
48012

>  <i_f3d_flags>  (146) 
0

>  <s_epik_input>  (146) 
W0NIMl09QzFbQ0BASF0oW0NAQEhdMltPSF0pQyg9TylbQ0BAXShbQ0gzXSkoW09IXSlbQ0BdMihbQ0gzXSlbQ0BdKFtDSDNdKShbQ0gyXTMpW0NAQF0xKFtDSDNdKVtDQEhdNFtTK10oW08tXSlbQ0BASF0oW0NIMl1bQ0BIXShbT0hdKVtDQF0oW09IXSkoW0NAQEhdKFtDSDJdNSlbT0hdKVtDQEBdNShbQ0BIXTZbT0hdKUMoPU8pT1tDQEBIXTZbQ0BdMzQ3KUM4OVtDSDJdT1tDQEBdKFtDSDNdKShbQ0BASF0oW09IXSlbQ0BIXThbT0hdKVtDQEBIXTdbQ0BIXTFbQ0BdKFtDSDNdKShbQ0BdOShbQ0gzXSlbT0hdKUMoPU8pW0NIMl1bQ0BASF0oW0NAXTEoW0NIM10pW09IXSlbQ0BASF0oW0NASF0oW0NIM10pW09IXSlPQyg9TylbQ0gzXQ==

>  <s_epik_cmdline>  (146) 
J2VwaWtfcHl0aG9uJywgJy1waHQnLCAnMi4wJywgJy1waCcsICc3LjAnLCAnLXRuJywgJzgnLCAnLW1hJywgJzIwMCcsICctaW1hZScsICc8aW5maWxlLm1hZT4nLCAnLW9tYWUnLCAnPG91dGZpbGUubWFlPic=

>  <r_lp_tautomer_probability>  (146) 
1

>  <r_epik_Ionization_Penalty>  (146) 
2.3251e-06

>  <r_epik_Ionization_Penalty_Charging>  (146) 
0

>  <r_epik_Ionization_Penalty_Neutral>  (146) 
2.3251e-06

>  <r_epik_State_Penalty>  (146) 
-0

>  <r_epik_Charging_Adjusted_Penalty>  (146) 
0

>  <i_epik_Tot_Q>  (146) 
0

>  <i_epik_Tot_abs_Q>  (146) 
2

>  <s_epik_Chemistry_Notes>  (146) 
This compound has an ester and may undergo hydrolysis at high or low pH.

>  <s_lp_Force_Field>  (146) 
OPLS3e

>  <r_lp_Energy>  (146) 
528.28

>  <b_lp_Chiralities_Consistent>  (146) 
1

>  <s_lp_Variant>  (146) 
68:0-1

>  <s_i_glide_gridfile>  (146) 
pfpi4k_grid

>  <i_i_glide_lignum>  (146) 
46

>  <i_i_glide_rotatable_bonds>  (146) 
15

>  <r_i_docking_score>  (146) 
-2.60949

>  <r_i_glide_ligand_efficiency>  (146) 
-0.0383748

>  <r_i_glide_ligand_efficiency_sa>  (146) 
-0.156633

>  <r_i_glide_ligand_efficiency_ln>  (146) 
-0.499949

>  <r_i_glide_gscore>  (146) 
-2.60949

>  <r_i_glide_lipo>  (146) 
-0.29464

>  <r_i_glide_hbond>  (146) 
0

>  <r_i_glide_metal>  (146) 
-0

>  <r_i_glide_rewards>  (146) 
-0.521045

>  <r_i_glide_evdw>  (146) 
-28.5403

>  <r_i_glide_ecoul>  (146) 
-2.36375

>  <r_i_glide_erotb>  (146) 
0.0692949

>  <r_i_glide_esite>  (146) 
-0.0815252

>  <r_i_glide_emodel>  (146) 
-38.44

>  <r_i_glide_energy>  (146) 
-30.904

>  <r_i_glide_einternal>  (146) 
4.91181

>  <r_i_glide_intrahb_reward>  (146) 
-0.5

>  <i_i_glide_confnum>  (146) 
4

>  <i_i_glide_posenum>  (146) 
21

>  <r_i_glide_eff_state_penalty>  (146) 
0

>  <ligand_id>  (146) 
68

>  <original_smiles>  (146) 
C=C1C2C(=O)C(C)(O)C(C)(C2O)C2(C)CC34C5OC(=O)C6(CC(O)C6(O)C(O)CC([S+]([O-])C3C12C)C12COC(C)(C(O)C1O)C4C1C(C)(O)C(C(OC(C)=O)C(C)O)CC(=O)C1(C)C2(C)O)C5O

>  <smiles>  (146) 
[H]OC([H])(C([H])([H])[H])C([H])(OC(=O)C([H])([H])[H])C1([H])C([H])([H])C(=O)C2(C([H])([H])[H])C([H])(C3([H])C4(C([H])([H])[H])OC([H])([H])C(C([H])(O[H])C4([H])O[H])(C4([H])S(=O)C5([H])C6(C([H])([H])[H])C(=C([H])[H])C7([H])C(=O)C(O[H])(C([H])([H])[H])C(C([H])([H])[H])(C7([H])O[H])C6(C([H])([H])[H])C([H])([H])C53C3([H])OC(=O)C5(C([H])([H])C([H])(O[H])C5(O[H])C([H])(O[H])C4([H])[H])C3([H])O[H])C2(O[H])C([H])([H])[H])C1(O[H])C([H])([H])[H]

$$$$
68:1:0
     RDKit          3D

136145  0  0  1  0  0  0  0  0999 V2000
    4.5495    0.7925    7.0116 C   0  0  0  0  0  0  0  0  0  0  0  0
    3.3958    0.4493    6.4156 C   0  0  0  0  0  0  0  0  0  0  0  0
    2.6574    1.4774    5.4821 C   0  0  2  0  0  0  0  0  0  0  0  0
    1.1226    1.4922    5.5838 C   0  0  0  0  0  0  0  0  0  0  0  0
    0.4802    2.2445    6.3464 O   0  0  0  0  0  0  0  0  0  0  0  0
    0.5023    0.4821    4.6079 C   0  0  1  0  0  0  0  0  0  0  0  0
   -0.7192   -0.3458    5.0967 C   0  0  0  0  0  0  0  0  0  0  0  0
   -0.1448    1.2790    3.6237 O   0  0  0  0  0  0  0  0  0  0  0  0
    1.7887   -0.2778    4.0623 C   0  0  1  0  0  0  0  0  0  0  0  0
    1.4437   -0.8758    2.6680 C   0  0  0  0  0  0  0  0  0  0  0  0
    2.7766    0.9701    4.0394 C   0  0  1  0  0  0  0  0  0  0  0  0
    2.4810    1.9651    3.0634 O   0  0  0  0  0  0  0  0  0  0  0  0
    2.5559   -1.3693    5.0035 C   0  0  2  0  0  0  0  0  0  0  0  0
    3.9281   -1.5779    4.2239 C   0  0  0  0  0  0  0  0  0  0  0  0
    2.0764   -2.8401    5.1805 C   0  0  0  0  0  0  0  0  0  0  0  0
    2.8366   -3.6921    6.3387 C   0  0  1  0  0  0  0  0  0  0  0  0
    4.2426   -4.4153    5.7132 C   0  0  1  0  0  0  0  0  0  0  0  0
    5.3540   -3.5166    5.6220 O   0  0  0  0  0  0  0  0  0  0  0  0
    6.3637   -3.6108    6.5444 C   0  0  0  0  0  0  0  0  0  0  0  0
    7.0832   -2.6684    6.8369 O   0  0  0  0  0  0  0  0  0  0  0  0
    6.5018   -5.0509    6.9487 C   0  0  1  0  0  0  0  0  0  0  0  0
    7.8928   -5.5832    6.5058 C   0  0  0  0  0  0  0  0  0  0  0  0
    8.4210   -5.3856    7.9324 C   0  0  1  0  0  0  0  0  0  0  0  0
    9.2077   -4.2355    8.1629 O   0  0  0  0  0  0  0  0  0  0  0  0
    6.9459   -5.4425    8.4426 C   0  0  2  0  0  0  0  0  0  0  0  0
    6.7758   -6.8084    8.7968 O   0  0  0  0  0  0  0  0  0  0  0  0
    6.5546   -4.6775    9.7880 C   0  0  1  0  0  0  0  0  0  0  0  0
    7.2145   -3.4384    9.9101 O   0  0  0  0  0  0  0  0  0  0  0  0
    5.0638   -4.5483   10.3494 C   0  0  0  0  0  0  0  0  0  0  0  0
    3.8672   -4.2254    9.3973 C   0  0  2  0  0  0  0  0  0  0  0  0
    3.9904   -2.3926    8.8722 S   0  0  0  0  0  0  0  0  0  0  0  0
    5.4143   -1.8165    8.9565 O   0  0  0  0  0  0  0  0  0  0  0  0
    3.4006   -2.2967    7.0762 C   0  0  2  0  0  0  0  0  0  0  0  0
    2.7227   -0.9472    6.5341 C   0  0  1  0  0  0  0  0  0  0  0  0
    1.5441   -0.6573    7.5188 C   0  0  0  0  0  0  0  0  0  0  0  0
    2.3782   -5.0213    9.4349 C   0  0  1  0  0  0  0  0  0  0  0  0
    1.0987   -5.3376   10.2904 C   0  0  0  0  0  0  0  0  0  0  0  0
    0.1724   -5.6103    9.1438 O   0  0  0  0  0  0  0  0  0  0  0  0
    0.2033   -4.7689    7.8856 C   0  0  1  0  0  0  0  0  0  0  0  0
   -1.2038   -4.9006    7.2166 C   0  0  0  0  0  0  0  0  0  0  0  0
    0.1409   -3.4925    8.6107 C   0  0  1  0  0  0  0  0  0  0  0  0
   -0.9708   -3.2625    9.4815 O   0  0  0  0  0  0  0  0  0  0  0  0
    1.5047   -3.6005    9.2762 C   0  0  1  0  0  0  0  0  0  0  0  0
    1.5562   -2.6703   10.3853 O   0  0  0  0  0  0  0  0  0  0  0  0
    1.5108   -4.8010    6.7681 C   0  0  2  0  0  0  0  0  0  0  0  0
    1.8039   -6.2882    6.3703 C   0  0  2  0  0  0  0  0  0  0  0  0
    1.3279   -6.7694    4.9290 C   0  0  1  0  0  0  0  0  0  0  0  0
   -0.2058   -6.6023    4.6659 C   0  0  0  0  0  0  0  0  0  0  0  0
    1.8849   -5.8293    4.0346 O   0  0  0  0  0  0  0  0  0  0  0  0
    1.8422   -8.2401    4.5404 C   0  0  1  0  0  0  0  0  0  0  0  0
    2.5379   -8.4895    3.1218 C   0  0  2  0  0  0  0  0  0  0  0  0
    2.0274   -7.6394    2.0945 O   0  0  0  0  0  0  0  0  0  0  0  0
    0.7064   -7.5369    1.7500 C   0  0  0  0  0  0  0  0  0  0  0  0
   -0.2170   -8.6543    2.3857 C   0  0  0  0  0  0  0  0  0  0  0  0
    0.2590   -6.6833    1.0285 O   0  0  0  0  0  0  0  0  0  0  0  0
    2.6088   -9.9634    2.5420 C   0  0  2  0  0  0  0  0  0  0  0  0
    2.1189  -11.1280    3.4350 C   0  0  0  0  0  0  0  0  0  0  0  0
    3.9101  -10.2331    2.0869 O   0  0  0  0  0  0  0  0  0  0  0  0
    2.7746   -8.8806    5.5907 C   0  0  0  0  0  0  0  0  0  0  0  0
    2.4062   -8.6486    7.0549 C   0  0  0  0  0  0  0  0  0  0  0  0
    2.5877   -9.5904    7.8370 O   0  0  0  0  0  0  0  0  0  0  0  0
    1.7231   -7.3193    7.5369 C   0  0  2  0  0  0  0  0  0  0  0  0
    0.2841   -7.9605    7.7262 C   0  0  0  0  0  0  0  0  0  0  0  0
    2.4718   -6.6719    8.8566 C   0  0  1  0  0  0  0  0  0  0  0  0
    3.9319   -7.1319    9.0155 C   0  0  0  0  0  0  0  0  0  0  0  0
    2.1263   -7.6784    9.8148 O   0  0  0  0  0  0  0  0  0  0  0  0
    5.2743   -5.5595    6.1706 C   0  0  1  0  0  0  0  0  0  0  0  0
    5.0182   -6.9315    6.2557 O   0  0  0  0  0  0  0  0  0  0  0  0
    5.1037    0.1087    7.6244 H   0  0  0  0  0  0  0  0  0  0  0  0
    4.9754    1.7734    6.8631 H   0  0  0  0  0  0  0  0  0  0  0  0
    3.0702    2.4829    5.5893 H   0  0  0  0  0  0  0  0  0  0  0  0
   -0.4705   -1.3235    5.4811 H   0  0  0  0  0  0  0  0  0  0  0  0
   -1.4112   -0.5631    4.2805 H   0  0  0  0  0  0  0  0  0  0  0  0
   -1.2961    0.1866    5.8623 H   0  0  0  0  0  0  0  0  0  0  0  0
    0.5227    1.7918    3.1766 H   0  0  0  0  0  0  0  0  0  0  0  0
    2.2615   -1.3996    2.1878 H   0  0  0  0  0  0  0  0  0  0  0  0
    1.1210   -0.1179    1.9509 H   0  0  0  0  0  0  0  0  0  0  0  0
    0.6295   -1.5958    2.7546 H   0  0  0  0  0  0  0  0  0  0  0  0
    3.8295    0.7985    3.8558 H   0  0  0  0  0  0  0  0  0  0  0  0
    3.2614    2.4908    2.9209 H   0  0  0  0  0  0  0  0  0  0  0  0
    4.8070   -1.2513    4.7767 H   0  0  0  0  0  0  0  0  0  0  0  0
    4.0291   -1.0871    3.2585 H   0  0  0  0  0  0  0  0  0  0  0  0
    4.0885   -2.5924    3.8707 H   0  0  0  0  0  0  0  0  0  0  0  0
    1.0305   -2.7170    5.4261 H   0  0  0  0  0  0  0  0  0  0  0  0
    2.0707   -3.3657    4.2264 H   0  0  0  0  0  0  0  0  0  0  0  0
    3.9745   -4.6786    4.6919 H   0  0  0  0  0  0  0  0  0  0  0  0
    7.8774   -6.6305    6.1938 H   0  0  0  0  0  0  0  0  0  0  0  0
    8.4068   -4.9866    5.7460 H   0  0  0  0  0  0  0  0  0  0  0  0
    9.0079   -6.2499    8.2458 H   0  0  0  0  0  0  0  0  0  0  0  0
   10.0549   -4.3780    7.7630 H   0  0  0  0  0  0  0  0  0  0  0  0
    5.8493   -6.9903    8.8291 H   0  0  0  0  0  0  0  0  0  0  0  0
    7.0777   -5.2104   10.5804 H   0  0  0  0  0  0  0  0  0  0  0  0
    8.1298   -3.5649    9.6805 H   0  0  0  0  0  0  0  0  0  0  0  0
    4.8472   -5.4209   10.9551 H   0  0  0  0  0  0  0  0  0  0  0  0
    5.0777   -3.7742   11.1178 H   0  0  0  0  0  0  0  0  0  0  0  0
    4.2381   -4.5327    8.4394 H   0  0  0  0  0  0  0  0  0  0  0  0
    4.3650   -1.9842    6.7505 H   0  0  0  0  0  0  0  0  0  0  0  0
    0.5725   -0.9363    7.1695 H   0  0  0  0  0  0  0  0  0  0  0  0
    1.4630    0.3835    7.8226 H   0  0  0  0  0  0  0  0  0  0  0  0
    1.6917   -1.0524    8.5091 H   0  0  0  0  0  0  0  0  0  0  0  0
    1.1402   -6.1414   11.0210 H   0  0  0  0  0  0  0  0  0  0  0  0
    0.6533   -4.6472   11.0186 H   0  0  0  0  0  0  0  0  0  0  0  0
   -1.3900   -4.1160    6.4871 H   0  0  0  0  0  0  0  0  0  0  0  0
   -2.0198   -4.8652    7.9383 H   0  0  0  0  0  0  0  0  0  0  0  0
   -1.3774   -5.8344    6.7149 H   0  0  0  0  0  0  0  0  0  0  0  0
    0.0346   -2.7172    7.8602 H   0  0  0  0  0  0  0  0  0  0  0  0
   -0.8952   -3.8620   10.2123 H   0  0  0  0  0  0  0  0  0  0  0  0
    1.8185   -3.0903    8.4377 H   0  0  0  0  0  0  0  0  0  0  0  0
    2.4630   -2.4502   10.5526 H   0  0  0  0  0  0  0  0  0  0  0  0
    0.8464   -4.5996    5.9487 H   0  0  0  0  0  0  0  0  0  0  0  0
    2.8494   -6.2764    6.2086 H   0  0  0  0  0  0  0  0  0  0  0  0
   -0.7969   -7.3101    5.2630 H   0  0  0  0  0  0  0  0  0  0  0  0
   -0.4874   -6.7847    3.6429 H   0  0  0  0  0  0  0  0  0  0  0  0
   -0.5479   -5.5882    4.8088 H   0  0  0  0  0  0  0  0  0  0  0  0
    2.8225   -5.9417    3.9695 H   0  0  0  0  0  0  0  0  0  0  0  0
    0.9638   -8.8724    4.6140 H   0  0  0  0  0  0  0  0  0  0  0  0
    3.5767   -8.1824    3.2709 H   0  0  0  0  0  0  0  0  0  0  0  0
    0.2499   -9.6259    2.3509 H   0  0  0  0  0  0  0  0  0  0  0  0
   -1.1701   -8.7063    1.8435 H   0  0  0  0  0  0  0  0  0  0  0  0
   -0.4150   -8.4484    3.4395 H   0  0  0  0  0  0  0  0  0  0  0  0
    2.0305  -10.0097    1.6221 H   0  0  0  0  0  0  0  0  0  0  0  0
    1.1482  -10.9304    3.8949 H   0  0  0  0  0  0  0  0  0  0  0  0
    2.8289  -11.3775    4.2212 H   0  0  0  0  0  0  0  0  0  0  0  0
    1.9978  -12.0402    2.8563 H   0  0  0  0  0  0  0  0  0  0  0  0
    3.8510  -10.9822    1.4567 H   0  0  0  0  0  0  0  0  0  0  0  0
    2.7126   -9.9633    5.4923 H   0  0  0  0  0  0  0  0  0  0  0  0
    3.8275   -8.6470    5.3986 H   0  0  0  0  0  0  0  0  0  0  0  0
   -0.5344   -7.2898    7.8733 H   0  0  0  0  0  0  0  0  0  0  0  0
    0.2288   -8.6442    8.5710 H   0  0  0  0  0  0  0  0  0  0  0  0
   -0.0351   -8.5709    6.8750 H   0  0  0  0  0  0  0  0  0  0  0  0
    4.5145   -6.4582    8.4604 H   0  0  0  0  0  0  0  0  0  0  0  0
    4.2270   -8.1193    8.6842 H   0  0  0  0  0  0  0  0  0  0  0  0
    4.2921   -7.1204   10.0403 H   0  0  0  0  0  0  0  0  0  0  0  0
    2.3741   -8.5301    9.4689 H   0  0  0  0  0  0  0  0  0  0  0  0
    5.7090   -5.7418    5.1786 H   0  0  0  0  0  0  0  0  0  0  0  0
    4.5701   -7.1132    7.0688 H   0  0  0  0  0  0  0  0  0  0  0  0
  1  2  2  0
  1 69  1  0
  1 70  1  0
  2 34  1  0
  2  3  1  0
  3 11  1  0
  3  4  1  0
  3 71  1  6
  4  5  2  0
  4  6  1  0
  6  7  1  0
  6  8  1  6
  6  9  1  0
  7 72  1  0
  7 73  1  0
  7 74  1  0
  8 75  1  0
  9 10  1  6
  9 11  1  0
  9 13  1  0
 10 76  1  0
 10 77  1  0
 10 78  1  0
 11 12  1  0
 11 79  1  6
 12 80  1  0
 13 34  1  0
 13 14  1  6
 13 15  1  0
 14 81  1  0
 14 82  1  0
 14 83  1  0
 16 15  1  6
 15 84  1  0
 15 85  1  0
 16 33  1  0
 16 45  1  0
 16 17  1  0
 17 67  1  0
 17 18  1  0
 17 86  1  6
 18 19  1  0
 19 20  2  0
 19 21  1  0
 21 25  1  0
 21 22  1  6
 21 67  1  0
 22 23  1  0
 22 87  1  0
 22 88  1  0
 23 24  1  0
 23 25  1  0
 23 89  1  1
 24 90  1  0
 25 26  1  1
 25 27  1  0
 26 91  1  0
 27 28  1  0
 27 29  1  0
 27 92  1  1
 28 93  1  0
 29 30  1  0
 29 94  1  0
 29 95  1  0
 31 30  1  6
 30 36  1  0
 30 96  1  6
 31 32  2  0
 31 33  1  0
 33 34  1  0
 33 97  1  6
 34 35  1  1
 35 98  1  0
 35 99  1  0
 35100  1  0
 36 43  1  0
 36 64  1  0
 36 37  1  1
 37 38  1  0
 37101  1  0
 37102  1  0
 38 39  1  0
 39 40  1  6
 39 41  1  0
 39 45  1  0
 40103  1  0
 40104  1  0
 40105  1  0
 41 42  1  0
 41 43  1  0
 41106  1  6
 42107  1  0
 43 44  1  0
 43108  1  6
 44109  1  0
 45 46  1  0
 45110  1  6
 46 62  1  0
 46 47  1  0
 46111  1  6
 47 48  1  0
 47 49  1  6
 47 50  1  0
 48112  1  0
 48113  1  0
 48114  1  0
 49115  1  0
 50 51  1  0
 50 59  1  0
 50116  1  6
 51 52  1  0
 51 56  1  0
 51117  1  1
 52 53  1  0
 53 54  1  0
 53 55  2  0
 54118  1  0
 54119  1  0
 54120  1  0
 56 57  1  0
 56 58  1  0
 56121  1  6
 57122  1  0
 57123  1  0
 57124  1  0
 58125  1  0
 59 60  1  0
 59126  1  0
 59127  1  0
 60 61  2  0
 60 62  1  0
 62 63  1  1
 62 64  1  0
 63128  1  0
 63129  1  0
 63130  1  0
 64 65  1  0
 64 66  1  1
 65131  1  0
 65132  1  0
 65133  1  0
 66134  1  0
 67 68  1  0
 67135  1  6
 68136  1  0
M  END
>  <i_m_ct_stereo_status>  (147) 
1

>  <s_m_source_file>  (147) 
/var/tmp/pbs.5075288.sched01/tmp4tfr24xl/130i3iej58d.sdf

>  <i_m_source_file_index>  (147) 
47

>  <i_lp_mmshare_version>  (147) 
48012

>  <i_f3d_flags>  (147) 
0

>  <s_epik_input>  (147) 
W0NIMl09QzFbQ0BASF0oW0NAQEhdMltPSF0pQyg9TylbQ0BAXShbQ0gzXSkoW09IXSlbQ0BdMihbQ0gzXSlbQ0BdKFtDSDNdKShbQ0gyXTMpW0NAQF0xKFtDSDNdKVtDQEhdNFtTK10oW08tXSlbQ0BASF0oW0NIMl1bQ0BIXShbT0hdKVtDQF0oW09IXSkoW0NAQEhdKFtDSDJdNSlbT0hdKVtDQEBdNShbQ0BIXTZbT0hdKUMoPU8pT1tDQEBIXTZbQ0BdMzQ3KUM4OVtDSDJdT1tDQEBdKFtDSDNdKShbQ0BASF0oW09IXSlbQ0BIXThbT0hdKVtDQEBIXTdbQ0BIXTFbQ0BdKFtDSDNdKShbQ0BdOShbQ0gzXSlbT0hdKUMoPU8pW0NIMl1bQ0BASF0oW0NAXTEoW0NIM10pW09IXSlbQ0BASF0oW0NASF0oW0NIM10pW09IXSlPQyg9TylbQ0gzXQ==

>  <s_epik_cmdline>  (147) 
J2VwaWtfcHl0aG9uJywgJy1waHQnLCAnMi4wJywgJy1waCcsICc3LjAnLCAnLXRuJywgJzgnLCAnLW1hJywgJzIwMCcsICctaW1hZScsICc8aW5maWxlLm1hZT4nLCAnLW9tYWUnLCAnPG91dGZpbGUubWFlPic=

>  <r_lp_tautomer_probability>  (147) 
1

>  <r_epik_Ionization_Penalty>  (147) 
2.3251e-06

>  <r_epik_Ionization_Penalty_Charging>  (147) 
0

>  <r_epik_Ionization_Penalty_Neutral>  (147) 
2.3251e-06

>  <r_epik_State_Penalty>  (147) 
-0

>  <r_epik_Charging_Adjusted_Penalty>  (147) 
0

>  <i_epik_Tot_Q>  (147) 
0

>  <i_epik_Tot_abs_Q>  (147) 
2

>  <s_epik_Chemistry_Notes>  (147) 
This compound has an ester and may undergo hydrolysis at high or low pH.

>  <s_lp_Force_Field>  (147) 
OPLS3e

>  <r_lp_Energy>  (147) 
590.215

>  <b_lp_Chiralities_Consistent>  (147) 
1

>  <s_lp_Variant>  (147) 
68:0-2

>  <s_i_glide_gridfile>  (147) 
pfpi4k_grid

>  <i_i_glide_lignum>  (147) 
47

>  <i_i_glide_rotatable_bonds>  (147) 
15

>  <r_i_docking_score>  (147) 
-5.5111

>  <r_i_glide_ligand_efficiency>  (147) 
-0.0810455

>  <r_i_glide_ligand_efficiency_sa>  (147) 
-0.3308

>  <r_i_glide_ligand_efficiency_ln>  (147) 
-1.05587

>  <r_i_glide_gscore>  (147) 
-5.5111

>  <r_i_glide_lipo>  (147) 
-0.173278

>  <r_i_glide_hbond>  (147) 
-0.141816

>  <r_i_glide_metal>  (147) 
-0

>  <r_i_glide_rewards>  (147) 
-1.52836

>  <r_i_glide_evdw>  (147) 
-39.4665

>  <r_i_glide_ecoul>  (147) 
-14.3729

>  <r_i_glide_erotb>  (147) 
0.0692949

>  <r_i_glide_esite>  (147) 
-0.0859487

>  <r_i_glide_emodel>  (147) 
-75.864

>  <r_i_glide_energy>  (147) 
-53.8394

>  <r_i_glide_einternal>  (147) 
20.0727

>  <r_i_glide_intrahb_reward>  (147) 
-1.5

>  <i_i_glide_confnum>  (147) 
1

>  <i_i_glide_posenum>  (147) 
5

>  <r_i_glide_eff_state_penalty>  (147) 
0

>  <ligand_id>  (147) 
68

>  <original_smiles>  (147) 
C=C1C2C(=O)C(C)(O)C(C)(C2O)C2(C)CC34C5OC(=O)C6(CC(O)C6(O)C(O)CC([S+]([O-])C3C12C)C12COC(C)(C(O)C1O)C4C1C(C)(O)C(C(OC(C)=O)C(C)O)CC(=O)C1(C)C2(C)O)C5O

>  <smiles>  (147) 
[H]OC([H])(C([H])([H])[H])C([H])(OC(=O)C([H])([H])[H])C1([H])C([H])([H])C(=O)C2(C([H])([H])[H])C([H])(C3([H])C4(C([H])([H])[H])OC([H])([H])C(C([H])(O[H])C4([H])O[H])(C4([H])S(=O)C5([H])C6(C([H])([H])[H])C(=C([H])[H])C7([H])C(=O)C(O[H])(C([H])([H])[H])C(C([H])([H])[H])(C7([H])O[H])C6(C([H])([H])[H])C([H])([H])C53C3([H])OC(=O)C5(C([H])([H])C([H])(O[H])C5(O[H])C([H])(O[H])C4([H])[H])C3([H])O[H])C2(O[H])C([H])([H])[H])C1(O[H])C([H])([H])[H]

$$$$
68:1:1
     RDKit          3D

136145  0  0  1  0  0  0  0  0999 V2000
    4.5312    0.7991    7.0149 C   0  0  0  0  0  0  0  0  0  0  0  0
    3.3787    0.4564    6.4196 C   0  0  0  0  0  0  0  0  0  0  0  0
    2.6397    1.4793    5.4856 C   0  0  2  0  0  0  0  0  0  0  0  0
    1.1015    1.4971    5.5912 C   0  0  0  0  0  0  0  0  0  0  0  0
    0.4621    2.2448    6.3465 O   0  0  0  0  0  0  0  0  0  0  0  0
    0.4861    0.4829    4.6107 C   0  0  1  0  0  0  0  0  0  0  0  0
   -0.7364   -0.3455    5.1013 C   0  0  0  0  0  0  0  0  0  0  0  0
   -0.1648    1.2803    3.6302 O   0  0  0  0  0  0  0  0  0  0  0  0
    1.7716   -0.2746    4.0679 C   0  0  1  0  0  0  0  0  0  0  0  0
    1.4280   -0.8746    2.6717 C   0  0  0  0  0  0  0  0  0  0  0  0
    2.7581    0.9755    4.0427 C   0  0  1  0  0  0  0  0  0  0  0  0
    2.4589    1.9692    3.0700 O   0  0  0  0  0  0  0  0  0  0  0  0
    2.5404   -1.3652    5.0079 C   0  0  2  0  0  0  0  0  0  0  0  0
    3.9138   -1.5731    4.2287 C   0  0  0  0  0  0  0  0  0  0  0  0
    2.0638   -2.8371    5.1869 C   0  0  0  0  0  0  0  0  0  0  0  0
    2.8240   -3.6865    6.3466 C   0  0  1  0  0  0  0  0  0  0  0  0
    4.2313   -4.4105    5.7218 C   0  0  1  0  0  0  0  0  0  0  0  0
    5.3413   -3.5099    5.6294 O   0  0  0  0  0  0  0  0  0  0  0  0
    6.3509   -3.6018    6.5501 C   0  0  0  0  0  0  0  0  0  0  0  0
    7.0714   -2.6581    6.8401 O   0  0  0  0  0  0  0  0  0  0  0  0
    6.4955   -5.0406    6.9558 C   0  0  1  0  0  0  0  0  0  0  0  0
    7.8846   -5.5718    6.5110 C   0  0  0  0  0  0  0  0  0  0  0  0
    8.4191   -5.3748    7.9383 C   0  0  1  0  0  0  0  0  0  0  0  0
    9.1986   -4.2240    8.1721 O   0  0  0  0  0  0  0  0  0  0  0  0
    6.9416   -5.4338    8.4421 C   0  0  2  0  0  0  0  0  0  0  0  0
    6.7398   -6.7896    8.8046 O   0  0  0  0  0  0  0  0  0  0  0  0
    6.5467   -4.6677    9.7915 C   0  0  1  0  0  0  0  0  0  0  0  0
    7.1984   -3.4289    9.9193 O   0  0  0  0  0  0  0  0  0  0  0  0
    5.0541   -4.5402   10.3538 C   0  0  0  0  0  0  0  0  0  0  0  0
    3.8538   -4.2165    9.4041 C   0  0  2  0  0  0  0  0  0  0  0  0
    3.9752   -2.3833    8.8822 S   0  0  0  0  0  0  0  0  0  0  0  0
    5.3997   -1.8083    8.9585 O   0  0  0  0  0  0  0  0  0  0  0  0
    3.3850   -2.2905    7.0842 C   0  0  2  0  0  0  0  0  0  0  0  0
    2.7073   -0.9433    6.5397 C   0  0  1  0  0  0  0  0  0  0  0  0
    1.5281   -0.6531    7.5232 C   0  0  0  0  0  0  0  0  0  0  0  0
    2.3665   -5.0160    9.4410 C   0  0  1  0  0  0  0  0  0  0  0  0
    1.0869   -5.3354   10.2976 C   0  0  0  0  0  0  0  0  0  0  0  0
    0.1593   -5.6077    9.1519 O   0  0  0  0  0  0  0  0  0  0  0  0
    0.1907   -4.7671    7.8921 C   0  0  1  0  0  0  0  0  0  0  0  0
   -1.2154   -4.8999    7.2240 C   0  0  0  0  0  0  0  0  0  0  0  0
    0.1265   -3.4905    8.6180 C   0  0  1  0  0  0  0  0  0  0  0  0
   -0.9801   -3.2517    9.4910 O   0  0  0  0  0  0  0  0  0  0  0  0
    1.4882   -3.5952    9.2860 C   0  0  1  0  0  0  0  0  0  0  0  0
    1.5491   -2.6546   10.3815 O   0  0  0  0  0  0  0  0  0  0  0  0
    1.4991   -4.7973    6.7759 C   0  0  2  0  0  0  0  0  0  0  0  0
    1.7952   -6.2851    6.3770 C   0  0  2  0  0  0  0  0  0  0  0  0
    1.3211   -6.7669    4.9376 C   0  0  1  0  0  0  0  0  0  0  0  0
   -0.2155   -6.6023    4.6725 C   0  0  0  0  0  0  0  0  0  0  0  0
    1.8701   -5.8252    4.0424 O   0  0  0  0  0  0  0  0  0  0  0  0
    1.8355   -8.2371    4.5500 C   0  0  1  0  0  0  0  0  0  0  0  0
    2.5314   -8.4868    3.1303 C   0  0  2  0  0  0  0  0  0  0  0  0
    2.0219   -7.6376    2.1033 O   0  0  0  0  0  0  0  0  0  0  0  0
    0.6962   -7.5297    1.7558 C   0  0  0  0  0  0  0  0  0  0  0  0
   -0.2228   -8.6506    2.4010 C   0  0  0  0  0  0  0  0  0  0  0  0
    0.2448   -6.6835    1.0440 O   0  0  0  0  0  0  0  0  0  0  0  0
    2.6030   -9.9599    2.5526 C   0  0  2  0  0  0  0  0  0  0  0  0
    2.1225  -11.1264    3.4473 C   0  0  0  0  0  0  0  0  0  0  0  0
    3.9018  -10.2541    2.0883 O   0  0  0  0  0  0  0  0  0  0  0  0
    2.7689   -8.8752    5.6004 C   0  0  0  0  0  0  0  0  0  0  0  0
    2.4007   -8.6458    7.0642 C   0  0  0  0  0  0  0  0  0  0  0  0
    2.5797   -9.5842    7.8452 O   0  0  0  0  0  0  0  0  0  0  0  0
    1.7147   -7.3138    7.5448 C   0  0  2  0  0  0  0  0  0  0  0  0
    0.2765   -7.9581    7.7337 C   0  0  0  0  0  0  0  0  0  0  0  0
    2.4608   -6.6660    8.8638 C   0  0  1  0  0  0  0  0  0  0  0  0
    3.9197   -7.1251    9.0252 C   0  0  0  0  0  0  0  0  0  0  0  0
    2.1111   -7.6719    9.8213 O   0  0  0  0  0  0  0  0  0  0  0  0
    5.2638   -5.5529    6.1788 C   0  0  1  0  0  0  0  0  0  0  0  0
    5.0163   -6.9249    6.2696 O   0  0  0  0  0  0  0  0  0  0  0  0
    5.0865    0.1171    7.6287 H   0  0  0  0  0  0  0  0  0  0  0  0
    4.9567    1.7815    6.8663 H   0  0  0  0  0  0  0  0  0  0  0  0
    3.0505    2.4881    5.5923 H   0  0  0  0  0  0  0  0  0  0  0  0
   -0.4854   -1.3231    5.4857 H   0  0  0  0  0  0  0  0  0  0  0  0
   -1.4270   -0.5644    4.2843 H   0  0  0  0  0  0  0  0  0  0  0  0
   -1.3126    0.1860    5.8654 H   0  0  0  0  0  0  0  0  0  0  0  0
    0.5026    1.8106    3.1949 H   0  0  0  0  0  0  0  0  0  0  0  0
    2.2466   -1.3978    2.1925 H   0  0  0  0  0  0  0  0  0  0  0  0
    1.1046   -0.1174    1.9553 H   0  0  0  0  0  0  0  0  0  0  0  0
    0.6150   -1.5954    2.7595 H   0  0  0  0  0  0  0  0  0  0  0  0
    3.8121    0.8036    3.8591 H   0  0  0  0  0  0  0  0  0  0  0  0
    3.2262    2.5261    2.9584 H   0  0  0  0  0  0  0  0  0  0  0  0
    4.7918   -1.2450    4.7816 H   0  0  0  0  0  0  0  0  0  0  0  0
    4.0139   -1.0823    3.2632 H   0  0  0  0  0  0  0  0  0  0  0  0
    4.0749   -2.5872    3.8761 H   0  0  0  0  0  0  0  0  0  0  0  0
    1.0169   -2.7145    5.4314 H   0  0  0  0  0  0  0  0  0  0  0  0
    2.0581   -3.3629    4.2323 H   0  0  0  0  0  0  0  0  0  0  0  0
    3.9630   -4.6734    4.6993 H   0  0  0  0  0  0  0  0  0  0  0  0
    7.8706   -6.6189    6.1972 H   0  0  0  0  0  0  0  0  0  0  0  0
    8.3960   -4.9735    5.7521 H   0  0  0  0  0  0  0  0  0  0  0  0
    9.0045   -6.2377    8.2561 H   0  0  0  0  0  0  0  0  0  0  0  0
   10.0853   -4.4086    7.8799 H   0  0  0  0  0  0  0  0  0  0  0  0
    6.9920   -7.3293    8.0594 H   0  0  0  0  0  0  0  0  0  0  0  0
    7.0663   -5.2011   10.5858 H   0  0  0  0  0  0  0  0  0  0  0  0
    8.1275   -3.5578    9.7360 H   0  0  0  0  0  0  0  0  0  0  0  0
    4.8376   -5.4110   10.9600 H   0  0  0  0  0  0  0  0  0  0  0  0
    5.0656   -3.7653   11.1217 H   0  0  0  0  0  0  0  0  0  0  0  0
    4.2267   -4.5260    8.4474 H   0  0  0  0  0  0  0  0  0  0  0  0
    4.3503   -1.9779    6.7577 H   0  0  0  0  0  0  0  0  0  0  0  0
    0.5569   -0.9336    7.1742 H   0  0  0  0  0  0  0  0  0  0  0  0
    1.4458    0.3874    7.8268 H   0  0  0  0  0  0  0  0  0  0  0  0
    1.6767   -1.0476    8.5137 H   0  0  0  0  0  0  0  0  0  0  0  0
    1.1315   -6.1379   11.0287 H   0  0  0  0  0  0  0  0  0  0  0  0
    0.6413   -4.6475   11.0252 H   0  0  0  0  0  0  0  0  0  0  0  0
   -1.4021   -4.1157    6.4930 H   0  0  0  0  0  0  0  0  0  0  0  0
   -2.0308   -4.8646    7.9451 H   0  0  0  0  0  0  0  0  0  0  0  0
   -1.3860   -5.8340    6.7218 H   0  0  0  0  0  0  0  0  0  0  0  0
    0.0215   -2.7151    7.8660 H   0  0  0  0  0  0  0  0  0  0  0  0
   -0.9402   -3.8866   10.1992 H   0  0  0  0  0  0  0  0  0  0  0  0
    1.8034   -3.0879    8.4484 H   0  0  0  0  0  0  0  0  0  0  0  0
    1.1508   -3.0492   11.1555 H   0  0  0  0  0  0  0  0  0  0  0  0
    0.8352   -4.5971    5.9551 H   0  0  0  0  0  0  0  0  0  0  0  0
    2.8418   -6.2724    6.2168 H   0  0  0  0  0  0  0  0  0  0  0  0
   -0.8047   -7.3100    5.2718 H   0  0  0  0  0  0  0  0  0  0  0  0
   -0.4953   -6.7839    3.6540 H   0  0  0  0  0  0  0  0  0  0  0  0
   -0.5581   -5.5886    4.8146 H   0  0  0  0  0  0  0  0  0  0  0  0
    2.8184   -5.9108    4.0068 H   0  0  0  0  0  0  0  0  0  0  0  0
    0.9578   -8.8700    4.6223 H   0  0  0  0  0  0  0  0  0  0  0  0
    3.5708   -8.1798    3.2803 H   0  0  0  0  0  0  0  0  0  0  0  0
    0.2405   -9.6197    2.3643 H   0  0  0  0  0  0  0  0  0  0  0  0
   -1.1788   -8.6984    1.8599 H   0  0  0  0  0  0  0  0  0  0  0  0
   -0.4187   -8.4448    3.4503 H   0  0  0  0  0  0  0  0  0  0  0  0
    2.0178  -10.0103    1.6367 H   0  0  0  0  0  0  0  0  0  0  0  0
    1.1544  -10.9309    3.9136 H   0  0  0  0  0  0  0  0  0  0  0  0
    2.8390  -11.3723    4.2289 H   0  0  0  0  0  0  0  0  0  0  0  0
    2.0009  -12.0388    2.8675 H   0  0  0  0  0  0  0  0  0  0  0  0
    3.8418  -10.9816    1.4651 H   0  0  0  0  0  0  0  0  0  0  0  0
    2.7075   -9.9582    5.5027 H   0  0  0  0  0  0  0  0  0  0  0  0
    3.8205   -8.6409    5.4078 H   0  0  0  0  0  0  0  0  0  0  0  0
   -0.5431   -7.2879    7.8814 H   0  0  0  0  0  0  0  0  0  0  0  0
    0.2213   -8.6415    8.5793 H   0  0  0  0  0  0  0  0  0  0  0  0
   -0.0416   -8.5690    6.8838 H   0  0  0  0  0  0  0  0  0  0  0  0
    4.5093   -6.4528    8.4749 H   0  0  0  0  0  0  0  0  0  0  0  0
    4.2201   -8.1111    8.6937 H   0  0  0  0  0  0  0  0  0  0  0  0
    4.2843   -7.1125   10.0473 H   0  0  0  0  0  0  0  0  0  0  0  0
    2.3399   -8.5277    9.4620 H   0  0  0  0  0  0  0  0  0  0  0  0
    5.6971   -5.7347    5.1865 H   0  0  0  0  0  0  0  0  0  0  0  0
    4.6255   -7.1086    7.1198 H   0  0  0  0  0  0  0  0  0  0  0  0
  1  2  2  0
  1 69  1  0
  1 70  1  0
  2 34  1  0
  2  3  1  0
  3 11  1  0
  3  4  1  0
  3 71  1  6
  4  5  2  0
  4  6  1  0
  6  7  1  0
  6  8  1  6
  6  9  1  0
  7 72  1  0
  7 73  1  0
  7 74  1  0
  8 75  1  0
  9 10  1  6
  9 11  1  0
  9 13  1  0
 10 76  1  0
 10 77  1  0
 10 78  1  0
 11 12  1  0
 11 79  1  6
 12 80  1  0
 13 34  1  0
 13 14  1  6
 13 15  1  0
 14 81  1  0
 14 82  1  0
 14 83  1  0
 16 15  1  6
 15 84  1  0
 15 85  1  0
 16 33  1  0
 16 45  1  0
 16 17  1  0
 17 67  1  0
 17 18  1  0
 17 86  1  6
 18 19  1  0
 19 20  2  0
 19 21  1  0
 21 25  1  0
 21 22  1  6
 21 67  1  0
 22 23  1  0
 22 87  1  0
 22 88  1  0
 23 24  1  0
 23 25  1  0
 23 89  1  1
 24 90  1  0
 25 26  1  1
 25 27  1  0
 26 91  1  0
 27 28  1  0
 27 29  1  0
 27 92  1  1
 28 93  1  0
 29 30  1  0
 29 94  1  0
 29 95  1  0
 31 30  1  6
 30 36  1  0
 30 96  1  6
 31 32  2  0
 31 33  1  0
 33 34  1  0
 33 97  1  6
 34 35  1  1
 35 98  1  0
 35 99  1  0
 35100  1  0
 36 43  1  0
 36 64  1  0
 36 37  1  1
 37 38  1  0
 37101  1  0
 37102  1  0
 38 39  1  0
 39 40  1  6
 39 41  1  0
 39 45  1  0
 40103  1  0
 40104  1  0
 40105  1  0
 41 42  1  0
 41 43  1  0
 41106  1  6
 42107  1  0
 43 44  1  0
 43108  1  6
 44109  1  0
 45 46  1  0
 45110  1  6
 46 62  1  0
 46 47  1  0
 46111  1  6
 47 48  1  0
 47 49  1  6
 47 50  1  0
 48112  1  0
 48113  1  0
 48114  1  0
 49115  1  0
 50 51  1  0
 50 59  1  0
 50116  1  6
 51 52  1  0
 51 56  1  0
 51117  1  1
 52 53  1  0
 53 54  1  0
 53 55  2  0
 54118  1  0
 54119  1  0
 54120  1  0
 56 57  1  0
 56 58  1  0
 56121  1  6
 57122  1  0
 57123  1  0
 57124  1  0
 58125  1  0
 59 60  1  0
 59126  1  0
 59127  1  0
 60 61  2  0
 60 62  1  0
 62 63  1  1
 62 64  1  0
 63128  1  0
 63129  1  0
 63130  1  0
 64 65  1  0
 64 66  1  1
 65131  1  0
 65132  1  0
 65133  1  0
 66134  1  0
 67 68  1  0
 67135  1  6
 68136  1  0
M  END
>  <i_m_ct_stereo_status>  (148) 
1

>  <s_m_source_file>  (148) 
/var/tmp/pbs.5075288.sched01/tmp4tfr24xl/130i3iej58d.sdf

>  <i_m_source_file_index>  (148) 
47

>  <i_lp_mmshare_version>  (148) 
48012

>  <i_f3d_flags>  (148) 
0

>  <s_epik_input>  (148) 
W0NIMl09QzFbQ0BASF0oW0NAQEhdMltPSF0pQyg9TylbQ0BAXShbQ0gzXSkoW09IXSlbQ0BdMihbQ0gzXSlbQ0BdKFtDSDNdKShbQ0gyXTMpW0NAQF0xKFtDSDNdKVtDQEhdNFtTK10oW08tXSlbQ0BASF0oW0NIMl1bQ0BIXShbT0hdKVtDQF0oW09IXSkoW0NAQEhdKFtDSDJdNSlbT0hdKVtDQEBdNShbQ0BIXTZbT0hdKUMoPU8pT1tDQEBIXTZbQ0BdMzQ3KUM4OVtDSDJdT1tDQEBdKFtDSDNdKShbQ0BASF0oW09IXSlbQ0BIXThbT0hdKVtDQEBIXTdbQ0BIXTFbQ0BdKFtDSDNdKShbQ0BdOShbQ0gzXSlbT0hdKUMoPU8pW0NIMl1bQ0BASF0oW0NAXTEoW0NIM10pW09IXSlbQ0BASF0oW0NASF0oW0NIM10pW09IXSlPQyg9TylbQ0gzXQ==

>  <s_epik_cmdline>  (148) 
J2VwaWtfcHl0aG9uJywgJy1waHQnLCAnMi4wJywgJy1waCcsICc3LjAnLCAnLXRuJywgJzgnLCAnLW1hJywgJzIwMCcsICctaW1hZScsICc8aW5maWxlLm1hZT4nLCAnLW9tYWUnLCAnPG91dGZpbGUubWFlPic=

>  <r_lp_tautomer_probability>  (148) 
1

>  <r_epik_Ionization_Penalty>  (148) 
2.3251e-06

>  <r_epik_Ionization_Penalty_Charging>  (148) 
0

>  <r_epik_Ionization_Penalty_Neutral>  (148) 
2.3251e-06

>  <r_epik_State_Penalty>  (148) 
-0

>  <r_epik_Charging_Adjusted_Penalty>  (148) 
0

>  <i_epik_Tot_Q>  (148) 
0

>  <i_epik_Tot_abs_Q>  (148) 
2

>  <s_epik_Chemistry_Notes>  (148) 
This compound has an ester and may undergo hydrolysis at high or low pH.

>  <s_lp_Force_Field>  (148) 
OPLS3e

>  <r_lp_Energy>  (148) 
590.215

>  <b_lp_Chiralities_Consistent>  (148) 
1

>  <s_lp_Variant>  (148) 
68:0-2

>  <s_i_glide_gridfile>  (148) 
pfpi4k_grid

>  <i_i_glide_lignum>  (148) 
47

>  <i_i_glide_rotatable_bonds>  (148) 
15

>  <r_i_docking_score>  (148) 
-5.33216

>  <r_i_glide_ligand_efficiency>  (148) 
-0.0784142

>  <r_i_glide_ligand_efficiency_sa>  (148) 
-0.32006

>  <r_i_glide_ligand_efficiency_ln>  (148) 
-1.02158

>  <r_i_glide_gscore>  (148) 
-5.33216

>  <r_i_glide_lipo>  (148) 
-0.170309

>  <r_i_glide_hbond>  (148) 
-0.141768

>  <r_i_glide_metal>  (148) 
-0

>  <r_i_glide_rewards>  (148) 
-1.52855

>  <r_i_glide_evdw>  (148) 
-39.5132

>  <r_i_glide_ecoul>  (148) 
-14.1159

>  <r_i_glide_erotb>  (148) 
0.0692949

>  <r_i_glide_esite>  (148) 
-0.0862498

>  <r_i_glide_emodel>  (148) 
-75.4267

>  <r_i_glide_energy>  (148) 
-53.6291

>  <r_i_glide_einternal>  (148) 
19.1082

>  <r_i_glide_intrahb_reward>  (148) 
-1.5

>  <i_i_glide_confnum>  (148) 
1

>  <i_i_glide_posenum>  (148) 
26

>  <r_i_glide_eff_state_penalty>  (148) 
0

>  <ligand_id>  (148) 
68

>  <original_smiles>  (148) 
C=C1C2C(=O)C(C)(O)C(C)(C2O)C2(C)CC34C5OC(=O)C6(CC(O)C6(O)C(O)CC([S+]([O-])C3C12C)C12COC(C)(C(O)C1O)C4C1C(C)(O)C(C(OC(C)=O)C(C)O)CC(=O)C1(C)C2(C)O)C5O

>  <smiles>  (148) 
[H]OC([H])(C([H])([H])[H])C([H])(OC(=O)C([H])([H])[H])C1([H])C([H])([H])C(=O)C2(C([H])([H])[H])C([H])(C3([H])C4(C([H])([H])[H])OC([H])([H])C(C([H])(O[H])C4([H])O[H])(C4([H])S(=O)C5([H])C6(C([H])([H])[H])C(=C([H])[H])C7([H])C(=O)C(O[H])(C([H])([H])[H])C(C([H])([H])[H])(C7([H])O[H])C6(C([H])([H])[H])C([H])([H])C53C3([H])OC(=O)C5(C([H])([H])C([H])(O[H])C5(O[H])C([H])(O[H])C4([H])[H])C3([H])O[H])C2(O[H])C([H])([H])[H])C1(O[H])C([H])([H])[H]

$$$$
68:1:2
     RDKit          3D

136145  0  0  1  0  0  0  0  0999 V2000
    4.5838    0.7607    6.8229 C   0  0  0  0  0  0  0  0  0  0  0  0
    3.4244    0.3851    6.2579 C   0  0  0  0  0  0  0  0  0  0  0  0
    2.6961    1.3414    5.2527 C   0  0  2  0  0  0  0  0  0  0  0  0
    1.1596    1.3692    5.3823 C   0  0  0  0  0  0  0  0  0  0  0  0
    0.5304    2.1534    6.0848 O   0  0  0  0  0  0  0  0  0  0  0  0
    0.5285    0.3010    4.4730 C   0  0  1  0  0  0  0  0  0  0  0  0
   -0.6981   -0.4835    5.0145 C   0  0  0  0  0  0  0  0  0  0  0  0
   -0.0886    1.0431    3.4259 O   0  0  0  0  0  0  0  0  0  0  0  0
    1.7964   -0.4930    3.9730 C   0  0  1  0  0  0  0  0  0  0  0  0
    1.4461   -1.1918    2.6245 C   0  0  0  0  0  0  0  0  0  0  0  0
    2.7954    0.7421    3.8483 C   0  0  1  0  0  0  0  0  0  0  0  0
    2.4968    1.6695    2.8126 O   0  0  0  0  0  0  0  0  0  0  0  0
    2.5648   -1.5236    4.9797 C   0  0  2  0  0  0  0  0  0  0  0  0
    3.9323   -1.7904    4.2184 C   0  0  0  0  0  0  0  0  0  0  0  0
    2.0851   -2.9751    5.2705 C   0  0  0  0  0  0  0  0  0  0  0  0
    2.8540   -3.7510    6.4736 C   0  0  1  0  0  0  0  0  0  0  0  0
    4.2535   -4.5123    5.8855 C   0  0  1  0  0  0  0  0  0  0  0  0
    5.3763   -3.6264    5.7294 O   0  0  0  0  0  0  0  0  0  0  0  0
    6.3777   -3.6563    6.6426 C   0  0  0  0  0  0  0  0  0  0  0  0
    7.0827   -2.6739    6.8817 O   0  0  0  0  0  0  0  0  0  0  0  0
    6.5161   -5.0503    7.1526 C   0  0  1  0  0  0  0  0  0  0  0  0
    7.8970   -5.6318    6.7407 C   0  0  0  0  0  0  0  0  0  0  0  0
    8.4539   -5.3448    8.1338 C   0  0  1  0  0  0  0  0  0  0  0  0
    9.2882   -4.2121    8.2282 O   0  0  0  0  0  0  0  0  0  0  0  0
    6.9828   -5.3270    8.6576 C   0  0  2  0  0  0  0  0  0  0  0  0
    6.7738   -6.6477    9.1232 O   0  0  0  0  0  0  0  0  0  0  0  0
    6.6047   -4.4919    9.9562 C   0  0  1  0  0  0  0  0  0  0  0  0
    7.2520   -3.2440    9.9555 O   0  0  0  0  0  0  0  0  0  0  0  0
    5.1129   -4.3326   10.5085 C   0  0  0  0  0  0  0  0  0  0  0  0
    3.9040   -4.0836    9.5425 C   0  0  2  0  0  0  0  0  0  0  0  0
    4.0516   -2.2883    8.9043 S   0  0  0  0  0  0  0  0  0  0  0  0
    5.4848   -1.7716    8.9376 O   0  0  0  0  0  0  0  0  0  0  0  0
    3.4309   -2.3094    7.1063 C   0  0  2  0  0  0  0  0  0  0  0  0
    2.7487   -0.9994    6.4742 C   0  0  1  0  0  0  0  0  0  0  0  0
    1.5821   -0.6433    7.4473 C   0  0  0  0  0  0  0  0  0  0  0  0
    2.4083   -4.8477    9.6550 C   0  0  1  0  0  0  0  0  0  0  0  0
    1.1479   -5.1045   10.5469 C   0  0  0  0  0  0  0  0  0  0  0  0
    0.2151   -5.4513    9.4286 O   0  0  0  0  0  0  0  0  0  0  0  0
    0.2400   -4.6966    8.1137 C   0  0  1  0  0  0  0  0  0  0  0  0
   -1.1613   -4.8735    7.4497 C   0  0  0  0  0  0  0  0  0  0  0  0
    0.1888   -3.3755    8.7524 C   0  0  1  0  0  0  0  0  0  0  0  0
   -0.8965   -3.0945    9.6340 O   0  0  0  0  0  0  0  0  0  0  0  0
    1.5445   -3.4428    9.3998 C   0  0  1  0  0  0  0  0  0  0  0  0
    1.6172   -2.4319   10.4252 O   0  0  0  0  0  0  0  0  0  0  0  0
    1.5254   -4.8297    6.9792 C   0  0  2  0  0  0  0  0  0  0  0  0
    1.7969   -6.3487    6.6701 C   0  0  2  0  0  0  0  0  0  0  0  0
    1.3402   -6.9481    5.2713 C   0  0  1  0  0  0  0  0  0  0  0  0
   -0.1679   -6.8672    4.9523 C   0  0  0  0  0  0  0  0  0  0  0  0
    1.8835   -6.0510    4.3353 O   0  0  0  0  0  0  0  0  0  0  0  0
    1.8223   -8.4305    4.9773 C   0  0  1  0  0  0  0  0  0  0  0  0
    2.5111   -8.7388    3.5881 C   0  0  2  0  0  0  0  0  0  0  0  0
    1.9594   -8.0138    2.4852 O   0  0  0  0  0  0  0  0  0  0  0  0
    2.7683   -7.2200    1.7383 C   0  0  0  0  0  0  0  0  0  0  0  0
    1.9885   -6.2496    0.8700 C   0  0  0  0  0  0  0  0  0  0  0  0
    3.9996   -7.1820    1.7806 O   0  0  0  0  0  0  0  0  0  0  0  0
    2.5912  -10.2307    3.1360 C   0  0  2  0  0  0  0  0  0  0  0  0
    1.3145  -11.0756    3.2948 C   0  0  0  0  0  0  0  0  0  0  0  0
    3.6593  -10.8931    3.7721 O   0  0  0  0  0  0  0  0  0  0  0  0
    2.7329   -9.0141    6.0710 C   0  0  0  0  0  0  0  0  0  0  0  0
    2.4073   -8.6515    7.5186 C   0  0  0  0  0  0  0  0  0  0  0  0
    2.6077   -9.5056    8.3826 O   0  0  0  0  0  0  0  0  0  0  0  0
    1.7460   -7.2799    7.9072 C   0  0  2  0  0  0  0  0  0  0  0  0
    0.3123   -7.8911    8.1813 C   0  0  0  0  0  0  0  0  0  0  0  0
    2.4944   -6.5293    9.1808 C   0  0  1  0  0  0  0  0  0  0  0  0
    3.9507   -6.9894    9.3743 C   0  0  0  0  0  0  0  0  0  0  0  0
    2.1464   -7.4652   10.2110 O   0  0  0  0  0  0  0  0  0  0  0  0
    5.2777   -5.6146    6.4197 C   0  0  1  0  0  0  0  0  0  0  0  0
    5.0295   -6.9804    6.5934 O   0  0  0  0  0  0  0  0  0  0  0  0
    5.1336    0.1180    7.4890 H   0  0  0  0  0  0  0  0  0  0  0  0
    5.0051    1.7321    6.6032 H   0  0  0  0  0  0  0  0  0  0  0  0
    3.1058    2.3488    5.2913 H   0  0  0  0  0  0  0  0  0  0  0  0
   -0.4643   -1.4362    5.4640 H   0  0  0  0  0  0  0  0  0  0  0  0
   -1.3997   -0.7440    4.2210 H   0  0  0  0  0  0  0  0  0  0  0  0
   -1.2623    0.0959    5.7445 H   0  0  0  0  0  0  0  0  0  0  0  0
   -0.4127    0.4474    2.7598 H   0  0  0  0  0  0  0  0  0  0  0  0
    2.2640   -1.7496    2.1758 H   0  0  0  0  0  0  0  0  0  0  0  0
    1.1279   -0.4863    1.8534 H   0  0  0  0  0  0  0  0  0  0  0  0
    0.6300   -1.9023    2.7663 H   0  0  0  0  0  0  0  0  0  0  0  0
    3.8501    0.5604    3.6664 H   0  0  0  0  0  0  0  0  0  0  0  0
    1.5711    1.8996    2.8658 H   0  0  0  0  0  0  0  0  0  0  0  0
    4.8144   -1.4191    4.7403 H   0  0  0  0  0  0  0  0  0  0  0  0
    4.0210   -1.3755    3.2204 H   0  0  0  0  0  0  0  0  0  0  0  0
    4.0847   -2.8305    3.9486 H   0  0  0  0  0  0  0  0  0  0  0  0
    1.0448   -2.8304    5.5268 H   0  0  0  0  0  0  0  0  0  0  0  0
    2.0757   -3.5557    4.3499 H   0  0  0  0  0  0  0  0  0  0  0  0
    3.9939   -4.8441    4.8794 H   0  0  0  0  0  0  0  0  0  0  0  0
    7.8833   -6.7025    6.5275 H   0  0  0  0  0  0  0  0  0  0  0  0
    8.4227   -5.0936    5.9459 H   0  0  0  0  0  0  0  0  0  0  0  0
    9.0266   -6.1979    8.5008 H   0  0  0  0  0  0  0  0  0  0  0  0
    9.5681   -4.1520    9.1305 H   0  0  0  0  0  0  0  0  0  0  0  0
    7.0486   -7.2215    8.4233 H   0  0  0  0  0  0  0  0  0  0  0  0
    7.1226   -4.9763   10.7871 H   0  0  0  0  0  0  0  0  0  0  0  0
    6.8024   -2.6819    9.3221 H   0  0  0  0  0  0  0  0  0  0  0  0
    4.8961   -5.1603   11.1751 H   0  0  0  0  0  0  0  0  0  0  0  0
    5.1237   -3.5009   11.2137 H   0  0  0  0  0  0  0  0  0  0  0  0
    4.2672   -4.4572    8.6010 H   0  0  0  0  0  0  0  0  0  0  0  0
    4.3854   -2.0049    6.7348 H   0  0  0  0  0  0  0  0  0  0  0  0
    0.6040   -0.9351    7.1246 H   0  0  0  0  0  0  0  0  0  0  0  0
    1.5137    0.4168    7.6781 H   0  0  0  0  0  0  0  0  0  0  0  0
    1.7408   -0.9711    8.4602 H   0  0  0  0  0  0  0  0  0  0  0  0
    1.2010   -5.8406   11.3395 H   0  0  0  0  0  0  0  0  0  0  0  0
    0.7044   -4.3650   11.2117 H   0  0  0  0  0  0  0  0  0  0  0  0
   -1.3439   -4.1284    6.6752 H   0  0  0  0  0  0  0  0  0  0  0  0
   -1.9706   -4.7820    8.1757 H   0  0  0  0  0  0  0  0  0  0  0  0
   -1.3214   -5.8442    6.9999 H   0  0  0  0  0  0  0  0  0  0  0  0
    0.0765   -2.6628    7.9503 H   0  0  0  0  0  0  0  0  0  0  0  0
   -0.8592   -3.7112   10.3559 H   0  0  0  0  0  0  0  0  0  0  0  0
    1.8579   -3.0162    8.5218 H   0  0  0  0  0  0  0  0  0  0  0  0
    1.1876   -2.7440   11.2129 H   0  0  0  0  0  0  0  0  0  0  0  0
    0.8476   -4.6791    6.1572 H   0  0  0  0  0  0  0  0  0  0  0  0
    2.8430   -6.3348    6.5320 H   0  0  0  0  0  0  0  0  0  0  0  0
   -0.7621   -7.4523    5.6484 H   0  0  0  0  0  0  0  0  0  0  0  0
   -0.3659   -7.2840    3.9654 H   0  0  0  0  0  0  0  0  0  0  0  0
   -0.5496   -5.8486    4.9330 H   0  0  0  0  0  0  0  0  0  0  0  0
    2.8225   -6.1779    4.3137 H   0  0  0  0  0  0  0  0  0  0  0  0
    0.9238   -9.0436    5.0140 H   0  0  0  0  0  0  0  0  0  0  0  0
    3.5443   -8.4048    3.7087 H   0  0  0  0  0  0  0  0  0  0  0  0
    1.1089   -6.7333    0.4475 H   0  0  0  0  0  0  0  0  0  0  0  0
    2.6130   -5.8724    0.0606 H   0  0  0  0  0  0  0  0  0  0  0  0
    1.6771   -5.3976    1.4753 H   0  0  0  0  0  0  0  0  0  0  0  0
    2.8493  -10.2516    2.0764 H   0  0  0  0  0  0  0  0  0  0  0  0
    0.4396  -10.5901    2.8572 H   0  0  0  0  0  0  0  0  0  0  0  0
    1.0980  -11.3076    4.3397 H   0  0  0  0  0  0  0  0  0  0  0  0
    1.4402  -12.0367    2.7956 H   0  0  0  0  0  0  0  0  0  0  0  0
    4.4427  -10.7448    3.2555 H   0  0  0  0  0  0  0  0  0  0  0  0
    2.6997  -10.1020    6.0088 H   0  0  0  0  0  0  0  0  0  0  0  0
    3.7674   -8.7752    5.8616 H   0  0  0  0  0  0  0  0  0  0  0  0
   -0.5159   -7.2175    8.2824 H   0  0  0  0  0  0  0  0  0  0  0  0
    0.2718   -8.5159    9.0758 H   0  0  0  0  0  0  0  0  0  0  0  0
   -0.0070   -8.5601    7.3802 H   0  0  0  0  0  0  0  0  0  0  0  0
    4.5524   -6.3718    8.7713 H   0  0  0  0  0  0  0  0  0  0  0  0
    4.2437   -8.0023    9.1172 H   0  0  0  0  0  0  0  0  0  0  0  0
    4.3009   -6.9047   10.4009 H   0  0  0  0  0  0  0  0  0  0  0  0
    2.3616   -8.3393    9.9017 H   0  0  0  0  0  0  0  0  0  0  0  0
    5.7165   -5.8649    5.4444 H   0  0  0  0  0  0  0  0  0  0  0  0
    4.6706   -7.1134    7.4620 H   0  0  0  0  0  0  0  0  0  0  0  0
  1  2  2  0
  1 69  1  0
  1 70  1  0
  2 34  1  0
  2  3  1  0
  3 11  1  0
  3  4  1  0
  3 71  1  6
  4  5  2  0
  4  6  1  0
  6  7  1  0
  6  8  1  6
  6  9  1  0
  7 72  1  0
  7 73  1  0
  7 74  1  0
  8 75  1  0
  9 10  1  6
  9 11  1  0
  9 13  1  0
 10 76  1  0
 10 77  1  0
 10 78  1  0
 11 12  1  0
 11 79  1  6
 12 80  1  0
 13 34  1  0
 13 14  1  6
 13 15  1  0
 14 81  1  0
 14 82  1  0
 14 83  1  0
 16 15  1  6
 15 84  1  0
 15 85  1  0
 16 33  1  0
 16 45  1  0
 16 17  1  0
 17 67  1  0
 17 18  1  0
 17 86  1  6
 18 19  1  0
 19 20  2  0
 19 21  1  0
 21 25  1  0
 21 22  1  6
 21 67  1  0
 22 23  1  0
 22 87  1  0
 22 88  1  0
 23 24  1  0
 23 25  1  0
 23 89  1  1
 24 90  1  0
 25 26  1  1
 25 27  1  0
 26 91  1  0
 27 28  1  0
 27 29  1  0
 27 92  1  1
 28 93  1  0
 29 30  1  0
 29 94  1  0
 29 95  1  0
 31 30  1  6
 30 36  1  0
 30 96  1  6
 31 32  2  0
 31 33  1  0
 33 34  1  0
 33 97  1  6
 34 35  1  1
 35 98  1  0
 35 99  1  0
 35100  1  0
 36 43  1  0
 36 64  1  0
 36 37  1  1
 37 38  1  0
 37101  1  0
 37102  1  0
 38 39  1  0
 39 40  1  6
 39 41  1  0
 39 45  1  0
 40103  1  0
 40104  1  0
 40105  1  0
 41 42  1  0
 41 43  1  0
 41106  1  6
 42107  1  0
 43 44  1  0
 43108  1  6
 44109  1  0
 45 46  1  0
 45110  1  6
 46 62  1  0
 46 47  1  0
 46111  1  6
 47 48  1  0
 47 49  1  6
 47 50  1  0
 48112  1  0
 48113  1  0
 48114  1  0
 49115  1  0
 50 51  1  0
 50 59  1  0
 50116  1  6
 51 52  1  0
 51 56  1  0
 51117  1  1
 52 53  1  0
 53 54  1  0
 53 55  2  0
 54118  1  0
 54119  1  0
 54120  1  0
 56 57  1  0
 56 58  1  0
 56121  1  6
 57122  1  0
 57123  1  0
 57124  1  0
 58125  1  0
 59 60  1  0
 59126  1  0
 59127  1  0
 60 61  2  0
 60 62  1  0
 62 63  1  1
 62 64  1  0
 63128  1  0
 63129  1  0
 63130  1  0
 64 65  1  0
 64 66  1  1
 65131  1  0
 65132  1  0
 65133  1  0
 66134  1  0
 67 68  1  0
 67135  1  6
 68136  1  0
M  END
>  <i_m_ct_stereo_status>  (149) 
1

>  <s_m_source_file>  (149) 
/var/tmp/pbs.5075288.sched01/tmp4tfr24xl/130i3iej58d.sdf

>  <i_m_source_file_index>  (149) 
47

>  <i_lp_mmshare_version>  (149) 
48012

>  <i_f3d_flags>  (149) 
0

>  <s_epik_input>  (149) 
W0NIMl09QzFbQ0BASF0oW0NAQEhdMltPSF0pQyg9TylbQ0BAXShbQ0gzXSkoW09IXSlbQ0BdMihbQ0gzXSlbQ0BdKFtDSDNdKShbQ0gyXTMpW0NAQF0xKFtDSDNdKVtDQEhdNFtTK10oW08tXSlbQ0BASF0oW0NIMl1bQ0BIXShbT0hdKVtDQF0oW09IXSkoW0NAQEhdKFtDSDJdNSlbT0hdKVtDQEBdNShbQ0BIXTZbT0hdKUMoPU8pT1tDQEBIXTZbQ0BdMzQ3KUM4OVtDSDJdT1tDQEBdKFtDSDNdKShbQ0BASF0oW09IXSlbQ0BIXThbT0hdKVtDQEBIXTdbQ0BIXTFbQ0BdKFtDSDNdKShbQ0BdOShbQ0gzXSlbT0hdKUMoPU8pW0NIMl1bQ0BASF0oW0NAXTEoW0NIM10pW09IXSlbQ0BASF0oW0NASF0oW0NIM10pW09IXSlPQyg9TylbQ0gzXQ==

>  <s_epik_cmdline>  (149) 
J2VwaWtfcHl0aG9uJywgJy1waHQnLCAnMi4wJywgJy1waCcsICc3LjAnLCAnLXRuJywgJzgnLCAnLW1hJywgJzIwMCcsICctaW1hZScsICc8aW5maWxlLm1hZT4nLCAnLW9tYWUnLCAnPG91dGZpbGUubWFlPic=

>  <r_lp_tautomer_probability>  (149) 
1

>  <r_epik_Ionization_Penalty>  (149) 
2.3251e-06

>  <r_epik_Ionization_Penalty_Charging>  (149) 
0

>  <r_epik_Ionization_Penalty_Neutral>  (149) 
2.3251e-06

>  <r_epik_State_Penalty>  (149) 
-0

>  <r_epik_Charging_Adjusted_Penalty>  (149) 
0

>  <i_epik_Tot_Q>  (149) 
0

>  <i_epik_Tot_abs_Q>  (149) 
2

>  <s_epik_Chemistry_Notes>  (149) 
This compound has an ester and may undergo hydrolysis at high or low pH.

>  <s_lp_Force_Field>  (149) 
OPLS3e

>  <r_lp_Energy>  (149) 
590.215

>  <b_lp_Chiralities_Consistent>  (149) 
1

>  <s_lp_Variant>  (149) 
68:0-2

>  <s_i_glide_gridfile>  (149) 
pfpi4k_grid

>  <i_i_glide_lignum>  (149) 
47

>  <i_i_glide_rotatable_bonds>  (149) 
15

>  <r_i_docking_score>  (149) 
-5.04927

>  <r_i_glide_ligand_efficiency>  (149) 
-0.0742539

>  <r_i_glide_ligand_efficiency_sa>  (149) 
-0.303079

>  <r_i_glide_ligand_efficiency_ln>  (149) 
-0.967384

>  <r_i_glide_gscore>  (149) 
-5.04927

>  <r_i_glide_lipo>  (149) 
-0.263983

>  <r_i_glide_hbond>  (149) 
0

>  <r_i_glide_metal>  (149) 
-0

>  <r_i_glide_rewards>  (149) 
-2.03984

>  <r_i_glide_evdw>  (149) 
-39.9484

>  <r_i_glide_ecoul>  (149) 
-5.25583

>  <r_i_glide_erotb>  (149) 
0.0692949

>  <r_i_glide_esite>  (149) 
-0.0289483

>  <r_i_glide_emodel>  (149) 
-77.9794

>  <r_i_glide_energy>  (149) 
-45.2042

>  <r_i_glide_einternal>  (149) 
10.4457

>  <r_i_glide_intrahb_reward>  (149) 
-2

>  <i_i_glide_confnum>  (149) 
1

>  <i_i_glide_posenum>  (149) 
20

>  <r_i_glide_eff_state_penalty>  (149) 
0

>  <ligand_id>  (149) 
68

>  <original_smiles>  (149) 
C=C1C2C(=O)C(C)(O)C(C)(C2O)C2(C)CC34C5OC(=O)C6(CC(O)C6(O)C(O)CC([S+]([O-])C3C12C)C12COC(C)(C(O)C1O)C4C1C(C)(O)C(C(OC(C)=O)C(C)O)CC(=O)C1(C)C2(C)O)C5O

>  <smiles>  (149) 
[H]OC([H])(C([H])([H])[H])C([H])(OC(=O)C([H])([H])[H])C1([H])C([H])([H])C(=O)C2(C([H])([H])[H])C([H])(C3([H])C4(C([H])([H])[H])OC([H])([H])C(C([H])(O[H])C4([H])O[H])(C4([H])S(=O)C5([H])C6(C([H])([H])[H])C(=C([H])[H])C7([H])C(=O)C(O[H])(C([H])([H])[H])C(C([H])([H])[H])(C7([H])O[H])C6(C([H])([H])[H])C([H])([H])C53C3([H])OC(=O)C5(C([H])([H])C([H])(O[H])C5(O[H])C([H])(O[H])C4([H])[H])C3([H])O[H])C2(O[H])C([H])([H])[H])C1(O[H])C([H])([H])[H]

$$$$
68:2:0
     RDKit          3D

136145  0  0  1  0  0  0  0  0999 V2000
    3.3200   -5.3109    4.2833 C   0  0  0  0  0  0  0  0  0  0  0  0
    3.5919   -4.0936    3.7915 C   0  0  0  0  0  0  0  0  0  0  0  0
    3.6739   -3.8456    2.2397 C   0  0  2  0  0  0  0  0  0  0  0  0
    4.8250   -2.9345    1.7733 C   0  0  0  0  0  0  0  0  0  0  0  0
    5.9350   -3.3281    1.4262 O   0  0  0  0  0  0  0  0  0  0  0  0
    4.3657   -1.4635    1.7806 C   0  0  1  0  0  0  0  0  0  0  0  0
    5.3656   -0.4014    2.2800 C   0  0  0  0  0  0  0  0  0  0  0  0
    4.2907   -1.0638    0.4150 O   0  0  0  0  0  0  0  0  0  0  0  0
    2.9382   -1.5536    2.4483 C   0  0  1  0  0  0  0  0  0  0  0  0
    2.0857   -0.3364    1.9807 C   0  0  0  0  0  0  0  0  0  0  0  0
    2.5116   -2.9470    1.8151 C   0  0  1  0  0  0  0  0  0  0  0  0
    2.2849   -2.9299    0.4061 O   0  0  0  0  0  0  0  0  0  0  0  0
    2.7849   -1.7814    4.0543 C   0  0  2  0  0  0  0  0  0  0  0  0
    1.2592   -2.1937    4.1988 C   0  0  0  0  0  0  0  0  0  0  0  0
    2.8980   -0.6510    5.1228 C   0  0  0  0  0  0  0  0  0  0  0  0
    2.9658   -1.1492    6.6717 C   0  0  1  0  0  0  0  0  0  0  0  0
    1.4225   -1.3752    7.3270 C   0  0  1  0  0  0  0  0  0  0  0  0
    0.7396   -2.5668    6.8920 O   0  0  0  0  0  0  0  0  0  0  0  0
    0.6706   -3.6303    7.7328 C   0  0  0  0  0  0  0  0  0  0  0  0
    0.5424   -4.7852    7.3313 O   0  0  0  0  0  0  0  0  0  0  0  0
    0.6146   -3.1242    9.1435 C   0  0  1  0  0  0  0  0  0  0  0  0
   -0.7525   -3.5385    9.7593 C   0  0  0  0  0  0  0  0  0  0  0  0
   -0.0775   -4.7101   10.4737 C   0  0  1  0  0  0  0  0  0  0  0  0
   -0.1763   -5.9799    9.8647 O   0  0  0  0  0  0  0  0  0  0  0  0
    1.2642   -3.9334   10.3685 C   0  0  2  0  0  0  0  0  0  0  0  0
    1.3534   -3.2334   11.5900 O   0  0  0  0  0  0  0  0  0  0  0  0
    2.6260   -4.7418   10.3461 C   0  0  1  0  0  0  0  0  0  0  0  0
    2.5730   -5.7406    9.3543 O   0  0  0  0  0  0  0  0  0  0  0  0
    4.0298   -3.9957   10.2984 C   0  0  0  0  0  0  0  0  0  0  0  0
    4.2722   -2.9255    9.1810 C   0  0  2  0  0  0  0  0  0  0  0  0
    4.0168   -3.8698    7.5423 S   0  0  0  0  0  0  0  0  0  0  0  0
    5.2069   -4.7303    7.1044 O   0  0  0  0  0  0  0  0  0  0  0  0
    3.4027   -2.6780    6.2093 C   0  0  2  0  0  0  0  0  0  0  0  0
    3.8042   -2.8313    4.6743 C   0  0  1  0  0  0  0  0  0  0  0  0
    5.3399   -2.6596    4.6546 C   0  0  0  0  0  0  0  0  0  0  0  0
    5.1104   -1.4805    9.3258 C   0  0  1  0  0  0  0  0  0  0  0  0
    6.4895   -0.8356    9.6803 C   0  0  0  0  0  0  0  0  0  0  0  0
    6.2573    0.4445    8.9492 O   0  0  0  0  0  0  0  0  0  0  0  0
    5.5651    0.4928    7.5987 C   0  0  1  0  0  0  0  0  0  0  0  0
    6.0162    1.8261    6.9287 C   0  0  0  0  0  0  0  0  0  0  0  0
    6.3897   -0.5640    7.0092 C   0  0  1  0  0  0  0  0  0  0  0  0
    7.7924   -0.3466    6.9930 O   0  0  0  0  0  0  0  0  0  0  0  0
    5.9057   -1.6933    7.8877 C   0  0  1  0  0  0  0  0  0  0  0  0
    6.8499   -2.7741    7.8310 O   0  0  0  0  0  0  0  0  0  0  0  0
    3.9010    0.1907    7.3608 C   0  0  2  0  0  0  0  0  0  0  0  0
    3.0627    1.0867    8.3369 C   0  0  2  0  0  0  0  0  0  0  0  0
    2.2321    2.3120    7.7413 C   0  0  1  0  0  0  0  0  0  0  0  0
    3.0393    3.5205    7.2137 C   0  0  0  0  0  0  0  0  0  0  0  0
    1.6294    1.8762    6.5493 O   0  0  0  0  0  0  0  0  0  0  0  0
    1.0717    2.7959    8.6915 C   0  0  1  0  0  0  0  0  0  0  0  0
   -0.2971    2.0197    8.6019 C   0  0  2  0  0  0  0  0  0  0  0  0
   -0.9575    2.3923    7.3858 O   0  0  0  0  0  0  0  0  0  0  0  0
   -1.3824    1.4700    6.4907 C   0  0  0  0  0  0  0  0  0  0  0  0
   -1.7864    2.0937    5.1633 C   0  0  0  0  0  0  0  0  0  0  0  0
   -1.4316    0.2528    6.6638 O   0  0  0  0  0  0  0  0  0  0  0  0
   -1.3488    2.2239    9.7364 C   0  0  2  0  0  0  0  0  0  0  0  0
   -1.6984    3.6830   10.0819 C   0  0  0  0  0  0  0  0  0  0  0  0
   -0.9674    1.5328   10.9089 O   0  0  0  0  0  0  0  0  0  0  0  0
    1.6411    2.9632   10.1112 C   0  0  0  0  0  0  0  0  0  0  0  0
    2.4906    1.8097   10.6637 C   0  0  0  0  0  0  0  0  0  0  0  0
    2.4163    1.6133   11.8696 O   0  0  0  0  0  0  0  0  0  0  0  0
    3.6431    1.1938    9.7820 C   0  0  2  0  0  0  0  0  0  0  0  0
    4.6506    2.4084    9.9979 C   0  0  0  0  0  0  0  0  0  0  0  0
    4.2273   -0.2919   10.2700 C   0  0  1  0  0  0  0  0  0  0  0  0
    3.3558   -1.0930   11.2675 C   0  0  0  0  0  0  0  0  0  0  0  0
    4.8965    0.1730   11.4527 O   0  0  0  0  0  0  0  0  0  0  0  0
    0.8509   -1.6375    8.7949 C   0  0  1  0  0  0  0  0  0  0  0  0
    0.8148   -0.7397    9.8664 O   0  0  0  0  0  0  0  0  0  0  0  0
    3.2419   -5.4982    5.3447 H   0  0  0  0  0  0  0  0  0  0  0  0
    3.1657   -6.1494    3.6185 H   0  0  0  0  0  0  0  0  0  0  0  0
    3.6838   -4.7899    1.7011 H   0  0  0  0  0  0  0  0  0  0  0  0
    5.1559   -0.0385    3.2752 H   0  0  0  0  0  0  0  0  0  0  0  0
    5.3186    0.4988    1.6654 H   0  0  0  0  0  0  0  0  0  0  0  0
    6.3986   -0.7487    2.2418 H   0  0  0  0  0  0  0  0  0  0  0  0
    3.6008   -1.5734    0.0008 H   0  0  0  0  0  0  0  0  0  0  0  0
    1.0719   -0.3141    2.3726 H   0  0  0  0  0  0  0  0  0  0  0  0
    1.9783   -0.2914    0.8950 H   0  0  0  0  0  0  0  0  0  0  0  0
    2.5624    0.5987    2.2771 H   0  0  0  0  0  0  0  0  0  0  0  0
    1.6141   -3.4368    2.1677 H   0  0  0  0  0  0  0  0  0  0  0  0
    1.7574   -2.1646    0.1729 H   0  0  0  0  0  0  0  0  0  0  0  0
    1.1036   -3.2205    4.5313 H   0  0  0  0  0  0  0  0  0  0  0  0
    0.6469   -2.1134    3.3081 H   0  0  0  0  0  0  0  0  0  0  0  0
    0.6863   -1.5205    4.8294 H   0  0  0  0  0  0  0  0  0  0  0  0
    3.8221   -0.1516    4.8530 H   0  0  0  0  0  0  0  0  0  0  0  0
    2.1146    0.0858    4.9582 H   0  0  0  0  0  0  0  0  0  0  0  0
    0.8560   -0.5330    6.9396 H   0  0  0  0  0  0  0  0  0  0  0  0
   -1.1579   -2.8184   10.4710 H   0  0  0  0  0  0  0  0  0  0  0  0
   -1.5252   -3.8549    9.0557 H   0  0  0  0  0  0  0  0  0  0  0  0
   -0.4639   -4.7923   11.4931 H   0  0  0  0  0  0  0  0  0  0  0  0
    0.3541   -5.9448    9.0776 H   0  0  0  0  0  0  0  0  0  0  0  0
    1.3318   -3.8818   12.2838 H   0  0  0  0  0  0  0  0  0  0  0  0
    2.6616   -5.3291   11.2670 H   0  0  0  0  0  0  0  0  0  0  0  0
    3.3031   -6.3357    9.4799 H   0  0  0  0  0  0  0  0  0  0  0  0
    4.2584   -3.6161   11.2863 H   0  0  0  0  0  0  0  0  0  0  0  0
    4.7987   -4.7581   10.1588 H   0  0  0  0  0  0  0  0  0  0  0  0
    3.2958   -2.5033    9.0344 H   0  0  0  0  0  0  0  0  0  0  0  0
    2.5693   -3.3197    6.0316 H   0  0  0  0  0  0  0  0  0  0  0  0
    5.6994   -1.6962    4.3556 H   0  0  0  0  0  0  0  0  0  0  0  0
    5.8148   -3.3817    4.0047 H   0  0  0  0  0  0  0  0  0  0  0  0
    5.8397   -2.9598    5.5600 H   0  0  0  0  0  0  0  0  0  0  0  0
    6.7655   -0.7320   10.7246 H   0  0  0  0  0  0  0  0  0  0  0  0
    7.4560   -1.2615    9.4162 H   0  0  0  0  0  0  0  0  0  0  0  0
    5.8548    1.8121    5.8501 H   0  0  0  0  0  0  0  0  0  0  0  0
    7.0782    2.0214    7.0871 H   0  0  0  0  0  0  0  0  0  0  0  0
    5.5165    2.7029    7.3203 H   0  0  0  0  0  0  0  0  0  0  0  0
    6.1044   -0.6179    5.9717 H   0  0  0  0  0  0  0  0  0  0  0  0
    8.0768   -0.1869    7.8859 H   0  0  0  0  0  0  0  0  0  0  0  0
    5.2255   -1.8715    7.1539 H   0  0  0  0  0  0  0  0  0  0  0  0
    7.5739   -2.5966    8.4227 H   0  0  0  0  0  0  0  0  0  0  0  0
    3.8707    0.8783    6.5350 H   0  0  0  0  0  0  0  0  0  0  0  0
    2.2427    0.4547    8.5385 H   0  0  0  0  0  0  0  0  0  0  0  0
    3.6361    4.0258    7.9647 H   0  0  0  0  0  0  0  0  0  0  0  0
    2.3618    4.2740    6.8132 H   0  0  0  0  0  0  0  0  0  0  0  0
    3.6875    3.2489    6.3798 H   0  0  0  0  0  0  0  0  0  0  0  0
    2.3167    1.7131    5.9152 H   0  0  0  0  0  0  0  0  0  0  0  0
    0.8033    3.8062    8.3793 H   0  0  0  0  0  0  0  0  0  0  0  0
   -0.0723    0.9639    8.5536 H   0  0  0  0  0  0  0  0  0  0  0  0
   -0.9121    2.4810    4.6444 H   0  0  0  0  0  0  0  0  0  0  0  0
   -2.4959    2.9066    5.3222 H   0  0  0  0  0  0  0  0  0  0  0  0
   -2.2565    1.3471    4.5216 H   0  0  0  0  0  0  0  0  0  0  0  0
   -2.2683    1.7458    9.4073 H   0  0  0  0  0  0  0  0  0  0  0  0
   -2.1024    4.2020    9.2127 H   0  0  0  0  0  0  0  0  0  0  0  0
   -0.8453    4.2576   10.4403 H   0  0  0  0  0  0  0  0  0  0  0  0
   -2.4515    3.7114   10.8702 H   0  0  0  0  0  0  0  0  0  0  0  0
   -1.6645    1.5805   11.5609 H   0  0  0  0  0  0  0  0  0  0  0  0
    2.2466    3.8659   10.1360 H   0  0  0  0  0  0  0  0  0  0  0  0
    0.8640    3.1638   10.8416 H   0  0  0  0  0  0  0  0  0  0  0  0
    5.5275    2.4672    9.3831 H   0  0  0  0  0  0  0  0  0  0  0  0
    5.0274    2.4857   11.0188 H   0  0  0  0  0  0  0  0  0  0  0  0
    4.2052    3.3832    9.8488 H   0  0  0  0  0  0  0  0  0  0  0  0
    2.7237   -1.7129   10.7076 H   0  0  0  0  0  0  0  0  0  0  0  0
    2.6879   -0.5956   11.9599 H   0  0  0  0  0  0  0  0  0  0  0  0
    3.9375   -1.7465   11.9192 H   0  0  0  0  0  0  0  0  0  0  0  0
    4.2531    0.5996   12.0107 H   0  0  0  0  0  0  0  0  0  0  0  0
   -0.1755   -1.3268    8.5763 H   0  0  0  0  0  0  0  0  0  0  0  0
    1.5878   -0.8606   10.4003 H   0  0  0  0  0  0  0  0  0  0  0  0
  1  2  2  0
  1 69  1  0
  1 70  1  0
  2 34  1  0
  2  3  1  0
  3 11  1  0
  3  4  1  0
  3 71  1  6
  4  5  2  0
  4  6  1  0
  6  7  1  0
  6  8  1  6
  6  9  1  0
  7 72  1  0
  7 73  1  0
  7 74  1  0
  8 75  1  0
  9 10  1  6
  9 11  1  0
  9 13  1  0
 10 76  1  0
 10 77  1  0
 10 78  1  0
 11 12  1  0
 11 79  1  1
 12 80  1  0
 13 34  1  0
 13 14  1  6
 13 15  1  0
 14 81  1  0
 14 82  1  0
 14 83  1  0
 16 15  1  6
 15 84  1  0
 15 85  1  0
 16 33  1  0
 16 45  1  0
 16 17  1  0
 17 67  1  0
 17 18  1  0
 17 86  1  6
 18 19  1  0
 19 20  2  0
 19 21  1  0
 21 25  1  0
 21 22  1  1
 21 67  1  0
 22 23  1  0
 22 87  1  0
 22 88  1  0
 23 24  1  0
 23 25  1  0
 23 89  1  1
 24 90  1  0
 25 26  1  1
 25 27  1  0
 26 91  1  0
 27 28  1  0
 27 29  1  0
 27 92  1  1
 28 93  1  0
 29 30  1  0
 29 94  1  0
 29 95  1  0
 31 30  1  1
 30 36  1  0
 30 96  1  1
 31 32  2  0
 31 33  1  0
 33 34  1  0
 33 97  1  6
 34 35  1  1
 35 98  1  0
 35 99  1  0
 35100  1  0
 36 43  1  0
 36 64  1  0
 36 37  1  1
 37 38  1  0
 37101  1  0
 37102  1  0
 38 39  1  0
 39 40  1  6
 39 41  1  0
 39 45  1  0
 40103  1  0
 40104  1  0
 40105  1  0
 41 42  1  0
 41 43  1  0
 41106  1  6
 42107  1  0
 43 44  1  0
 43108  1  6
 44109  1  0
 45 46  1  0
 45110  1  6
 46 62  1  0
 46 47  1  0
 46111  1  1
 47 48  1  0
 47 49  1  6
 47 50  1  0
 48112  1  0
 48113  1  0
 48114  1  0
 49115  1  0
 50 51  1  0
 50 59  1  0
 50116  1  6
 51 52  1  0
 51 56  1  0
 51117  1  6
 52 53  1  0
 53 54  1  0
 53 55  2  0
 54118  1  0
 54119  1  0
 54120  1  0
 56 57  1  0
 56 58  1  0
 56121  1  6
 57122  1  0
 57123  1  0
 57124  1  0
 58125  1  0
 59 60  1  0
 59126  1  0
 59127  1  0
 60 61  2  0
 60 62  1  0
 62 63  1  6
 62 64  1  0
 63128  1  0
 63129  1  0
 63130  1  0
 64 65  1  0
 64 66  1  1
 65131  1  0
 65132  1  0
 65133  1  0
 66134  1  0
 67 68  1  0
 67135  1  6
 68136  1  0
M  END
>  <i_m_ct_stereo_status>  (150) 
1

>  <s_m_source_file>  (150) 
/var/tmp/pbs.5075288.sched01/tmp4tfr24xl/130i3iej58d.sdf

>  <i_m_source_file_index>  (150) 
48

>  <i_lp_mmshare_version>  (150) 
48012

>  <i_f3d_flags>  (150) 
0

>  <s_epik_input>  (150) 
W0NIMl09QzFbQ0BASF0oW0NAQEhdMltPSF0pQyg9TylbQ0BAXShbQ0gzXSkoW09IXSlbQ0BdMihbQ0gzXSlbQ0BdKFtDSDNdKShbQ0gyXTMpW0NAQF0xKFtDSDNdKVtDQEhdNFtTK10oW08tXSlbQ0BASF0oW0NIMl1bQ0BIXShbT0hdKVtDQF0oW09IXSkoW0NAQEhdKFtDSDJdNSlbT0hdKVtDQEBdNShbQ0BIXTZbT0hdKUMoPU8pT1tDQEBIXTZbQ0BdMzQ3KUM4OVtDSDJdT1tDQEBdKFtDSDNdKShbQ0BASF0oW09IXSlbQ0BIXThbT0hdKVtDQEBIXTdbQ0BIXTFbQ0BdKFtDSDNdKShbQ0BdOShbQ0gzXSlbT0hdKUMoPU8pW0NIMl1bQ0BASF0oW0NAXTEoW0NIM10pW09IXSlbQ0BASF0oW0NASF0oW0NIM10pW09IXSlPQyg9TylbQ0gzXQ==

>  <s_epik_cmdline>  (150) 
J2VwaWtfcHl0aG9uJywgJy1waHQnLCAnMi4wJywgJy1waCcsICc3LjAnLCAnLXRuJywgJzgnLCAnLW1hJywgJzIwMCcsICctaW1hZScsICc8aW5maWxlLm1hZT4nLCAnLW9tYWUnLCAnPG91dGZpbGUubWFlPic=

>  <r_lp_tautomer_probability>  (150) 
1

>  <r_epik_Ionization_Penalty>  (150) 
2.3251e-06

>  <r_epik_Ionization_Penalty_Charging>  (150) 
0

>  <r_epik_Ionization_Penalty_Neutral>  (150) 
2.3251e-06

>  <r_epik_State_Penalty>  (150) 
-0

>  <r_epik_Charging_Adjusted_Penalty>  (150) 
0

>  <i_epik_Tot_Q>  (150) 
0

>  <i_epik_Tot_abs_Q>  (150) 
2

>  <s_epik_Chemistry_Notes>  (150) 
This compound has an ester and may undergo hydrolysis at high or low pH.

>  <s_lp_Force_Field>  (150) 
OPLS3e

>  <r_lp_Energy>  (150) 
588.523

>  <b_lp_Chiralities_Consistent>  (150) 
1

>  <s_lp_Variant>  (150) 
68:0-3

>  <s_i_glide_gridfile>  (150) 
pfpi4k_grid

>  <i_i_glide_lignum>  (150) 
48

>  <i_i_glide_rotatable_bonds>  (150) 
15

>  <r_i_docking_score>  (150) 
-4.71163

>  <r_i_glide_ligand_efficiency>  (150) 
-0.0692887

>  <r_i_glide_ligand_efficiency_sa>  (150) 
-0.282813

>  <r_i_glide_ligand_efficiency_ln>  (150) 
-0.902697

>  <r_i_glide_gscore>  (150) 
-4.71163

>  <r_i_glide_lipo>  (150) 
-0.223073

>  <r_i_glide_hbond>  (150) 
-0.145155

>  <r_i_glide_metal>  (150) 
-0

>  <r_i_glide_rewards>  (150) 
-1.04486

>  <r_i_glide_evdw>  (150) 
-31.1413

>  <r_i_glide_ecoul>  (150) 
-11.6638

>  <r_i_glide_erotb>  (150) 
0.0485064

>  <r_i_glide_esite>  (150) 
-0.0404058

>  <r_i_glide_emodel>  (150) 
-63.349

>  <r_i_glide_energy>  (150) 
-42.8052

>  <r_i_glide_einternal>  (150) 
4.79035

>  <r_i_glide_intrahb_reward>  (150) 
-1

>  <i_i_glide_confnum>  (150) 
2

>  <i_i_glide_posenum>  (150) 
33

>  <r_i_glide_eff_state_penalty>  (150) 
0

>  <ligand_id>  (150) 
68

>  <original_smiles>  (150) 
C=C1C2C(=O)C(C)(O)C(C)(C2O)C2(C)CC34C5OC(=O)C6(CC(O)C6(O)C(O)CC([S+]([O-])C3C12C)C12COC(C)(C(O)C1O)C4C1C(C)(O)C(C(OC(C)=O)C(C)O)CC(=O)C1(C)C2(C)O)C5O

>  <smiles>  (150) 
[H]OC([H])(C([H])([H])[H])C([H])(OC(=O)C([H])([H])[H])C1([H])C([H])([H])C(=O)C2(C([H])([H])[H])C([H])(C3([H])C4(C([H])([H])[H])OC([H])([H])C(C([H])(O[H])C4([H])O[H])(C4([H])S(=O)C5([H])C6(C([H])([H])[H])C(=C([H])[H])C7([H])C(=O)C(O[H])(C([H])([H])[H])C(C([H])([H])[H])(C7([H])O[H])C6(C([H])([H])[H])C([H])([H])C53C3([H])OC(=O)C5(C([H])([H])C([H])(O[H])C5(O[H])C([H])(O[H])C4([H])[H])C3([H])O[H])C2(O[H])C([H])([H])[H])C1(O[H])C([H])([H])[H]

$$$$
68:2:1
     RDKit          3D

136145  0  0  1  0  0  0  0  0999 V2000
    3.3320   -5.3320    4.0009 C   0  0  0  0  0  0  0  0  0  0  0  0
    3.6325   -4.1052    3.5429 C   0  0  0  0  0  0  0  0  0  0  0  0
    3.7506   -3.8332    2.0063 C   0  0  2  0  0  0  0  0  0  0  0  0
    4.9388   -2.9296    1.6008 C   0  0  0  0  0  0  0  0  0  0  0  0
    6.0304   -3.3185    1.2718 O   0  0  0  0  0  0  0  0  0  0  0  0
    4.4985   -1.4506    1.6139 C   0  0  1  0  0  0  0  0  0  0  0  0
    5.4829   -0.4114    2.1634 C   0  0  0  0  0  0  0  0  0  0  0  0
    4.4589   -1.0302    0.2521 O   0  0  0  0  0  0  0  0  0  0  0  0
    3.0603   -1.5311    2.2391 C   0  0  1  0  0  0  0  0  0  0  0  0
    2.2412   -0.2880    1.7881 C   0  0  0  0  0  0  0  0  0  0  0  0
    2.6218   -2.9049    1.5742 C   0  0  1  0  0  0  0  0  0  0  0  0
    2.4906   -2.8366    0.1580 O   0  0  0  0  0  0  0  0  0  0  0  0
    2.8476   -1.7897    3.8358 C   0  0  2  0  0  0  0  0  0  0  0  0
    1.3135   -2.1858    3.9359 C   0  0  0  0  0  0  0  0  0  0  0  0
    2.9517   -0.6862    4.9388 C   0  0  0  0  0  0  0  0  0  0  0  0
    2.9679   -1.2199    6.4737 C   0  0  1  0  0  0  0  0  0  0  0  0
    1.4049   -1.4393    7.0792 C   0  0  1  0  0  0  0  0  0  0  0  0
    0.7202   -2.6196    6.6245 O   0  0  0  0  0  0  0  0  0  0  0  0
    0.6132   -3.6920    7.4307 C   0  0  0  0  0  0  0  0  0  0  0  0
    0.5315   -4.8487    6.9943 O   0  0  0  0  0  0  0  0  0  0  0  0
    0.5201   -3.2207    8.8357 C   0  0  1  0  0  0  0  0  0  0  0  0
   -0.8535   -3.6359    9.4082 C   0  0  0  0  0  0  0  0  0  0  0  0
   -0.2006   -4.8281   10.1037 C   0  0  1  0  0  0  0  0  0  0  0  0
   -0.2775   -6.0745    9.4757 O   0  0  0  0  0  0  0  0  0  0  0  0
    1.1325   -4.0615   10.0459 C   0  0  2  0  0  0  0  0  0  0  0  0
    1.1971   -3.3997   11.2863 O   0  0  0  0  0  0  0  0  0  0  0  0
    2.4865   -4.8862   10.0442 C   0  0  1  0  0  0  0  0  0  0  0  0
    2.4736   -5.8893    9.0565 O   0  0  0  0  0  0  0  0  0  0  0  0
    3.8990   -4.1609   10.0560 C   0  0  0  0  0  0  0  0  0  0  0  0
    4.1885   -3.0621    8.9764 C   0  0  2  0  0  0  0  0  0  0  0  0
    3.9647   -3.9640    7.3139 S   0  0  0  0  0  0  0  0  0  0  0  0
    5.1352   -4.8499    6.8788 O   0  0  0  0  0  0  0  0  0  0  0  0
    3.3907   -2.7434    5.9868 C   0  0  2  0  0  0  0  0  0  0  0  0
    3.8323   -2.8675    4.4578 C   0  0  1  0  0  0  0  0  0  0  0  0
    5.3682   -2.7175    4.4868 C   0  0  0  0  0  0  0  0  0  0  0  0
    5.0402   -1.6396    9.1723 C   0  0  1  0  0  0  0  0  0  0  0  0
    6.4159   -1.0323    9.5791 C   0  0  0  0  0  0  0  0  0  0  0  0
    6.1889    0.2683    8.8886 O   0  0  0  0  0  0  0  0  0  0  0  0
    5.5583    0.3548    7.5146 C   0  0  1  0  0  0  0  0  0  0  0  0
    6.0431    1.7014    6.8845 C   0  0  0  0  0  0  0  0  0  0  0  0
    6.3906   -0.6891    6.9318 C   0  0  1  0  0  0  0  0  0  0  0  0
    7.7985   -0.4773    6.9974 O   0  0  0  0  0  0  0  0  0  0  0  0
    5.8648   -1.8294    7.7535 C   0  0  1  0  0  0  0  0  0  0  0  0
    6.7874   -2.9179    7.6972 O   0  0  0  0  0  0  0  0  0  0  0  0
    3.8999    0.0907    7.2218 C   0  0  2  0  0  0  0  0  0  0  0  0
    3.0432    0.9722    8.1960 C   0  0  2  0  0  0  0  0  0  0  0  0
    2.2492    2.2192    7.5995 C   0  0  1  0  0  0  0  0  0  0  0  0
    3.0847    3.4291    7.1261 C   0  0  0  0  0  0  0  0  0  0  0  0
    1.7009    1.8426    6.3687 O   0  0  0  0  0  0  0  0  0  0  0  0
    1.0672    2.7160    8.5233 C   0  0  1  0  0  0  0  0  0  0  0  0
   -0.3019    1.9452    8.3926 C   0  0  2  0  0  0  0  0  0  0  0  0
   -0.9087    2.3016    7.1430 O   0  0  0  0  0  0  0  0  0  0  0  0
   -1.3998    1.3794    6.2819 C   0  0  0  0  0  0  0  0  0  0  0  0
   -1.7584    1.9828    4.9295 C   0  0  0  0  0  0  0  0  0  0  0  0
   -1.5249    0.1793    6.4968 O   0  0  0  0  0  0  0  0  0  0  0  0
   -1.3961    2.1688    9.4804 C   0  0  2  0  0  0  0  0  0  0  0  0
   -1.8889    3.6133    9.6311 C   0  0  0  0  0  0  0  0  0  0  0  0
   -1.0123    1.6371   10.7370 O   0  0  0  0  0  0  0  0  0  0  0  0
    1.6054    2.8593    9.9561 C   0  0  0  0  0  0  0  0  0  0  0  0
    2.3920    1.6559   10.5166 C   0  0  0  0  0  0  0  0  0  0  0  0
    2.2688    1.4511   11.7059 O   0  0  0  0  0  0  0  0  0  0  0  0
    3.5796    1.0417    9.6576 C   0  0  2  0  0  0  0  0  0  0  0  0
    4.6069    2.2295    9.9347 C   0  0  0  0  0  0  0  0  0  0  0  0
    4.1437   -0.4610   10.1170 C   0  0  1  0  0  0  0  0  0  0  0  0
    3.2343   -1.2713   11.0762 C   0  0  0  0  0  0  0  0  0  0  0  0
    4.7965   -0.0453   11.3168 O   0  0  0  0  0  0  0  0  0  0  0  0
    0.7911   -1.7314    8.5222 C   0  0  1  0  0  0  0  0  0  0  0  0
    0.7243   -0.8511    9.6105 O   0  0  0  0  0  0  0  0  0  0  0  0
    3.2269   -5.5453    5.0527 H   0  0  0  0  0  0  0  0  0  0  0  0
    3.1852   -6.1559    3.3120 H   0  0  0  0  0  0  0  0  0  0  0  0
    3.7667   -4.7633    1.4380 H   0  0  0  0  0  0  0  0  0  0  0  0
    5.2470   -0.0628    3.1601 H   0  0  0  0  0  0  0  0  0  0  0  0
    5.4713    0.4908    1.5581 H   0  0  0  0  0  0  0  0  0  0  0  0
    6.5069   -0.7765    2.1504 H   0  0  0  0  0  0  0  0  0  0  0  0
    3.7776   -1.5482   -0.1773 H   0  0  0  0  0  0  0  0  0  0  0  0
    1.2055   -0.2627    2.1239 H   0  0  0  0  0  0  0  0  0  0  0  0
    2.2204   -0.2057    0.7035 H   0  0  0  0  0  0  0  0  0  0  0  0
    2.7140    0.6318    2.1377 H   0  0  0  0  0  0  0  0  0  0  0  0
    1.7134   -3.3991    1.8926 H   0  0  0  0  0  0  0  0  0  0  0  0
    1.8442   -2.1617   -0.0787 H   0  0  0  0  0  0  0  0  0  0  0  0
    1.1356   -3.2190    4.2343 H   0  0  0  0  0  0  0  0  0  0  0  0
    0.7293   -2.0718    3.0290 H   0  0  0  0  0  0  0  0  0  0  0  0
    0.7364   -1.5179    4.5654 H   0  0  0  0  0  0  0  0  0  0  0  0
    3.8878   -0.1991    4.7075 H   0  0  0  0  0  0  0  0  0  0  0  0
    2.1826    0.0699    4.7648 H   0  0  0  0  0  0  0  0  0  0  0  0
    0.8447   -0.5883    6.6930 H   0  0  0  0  0  0  0  0  0  0  0  0
   -1.2680   -2.9359   10.1346 H   0  0  0  0  0  0  0  0  0  0  0  0
   -1.6137   -3.9287    8.6817 H   0  0  0  0  0  0  0  0  0  0  0  0
   -0.6252   -4.9222   11.1134 H   0  0  0  0  0  0  0  0  0  0  0  0
    0.2337   -6.0155    8.6763 H   0  0  0  0  0  0  0  0  0  0  0  0
    1.1855   -4.0627   11.9711 H   0  0  0  0  0  0  0  0  0  0  0  0
    2.4881   -5.4942   10.9516 H   0  0  0  0  0  0  0  0  0  0  0  0
    2.5138   -5.4888    8.1910 H   0  0  0  0  0  0  0  0  0  0  0  0
    4.0966   -3.8088   11.0590 H   0  0  0  0  0  0  0  0  0  0  0  0
    4.6542   -4.9372    9.9214 H   0  0  0  0  0  0  0  0  0  0  0  0
    3.2185   -2.6271    8.8159 H   0  0  0  0  0  0  0  0  0  0  0  0
    2.5560   -3.3687    5.7661 H   0  0  0  0  0  0  0  0  0  0  0  0
    5.7515   -1.7541    4.2195 H   0  0  0  0  0  0  0  0  0  0  0  0
    5.8434   -3.4368    3.8356 H   0  0  0  0  0  0  0  0  0  0  0  0
    5.8395   -3.0473    5.4001 H   0  0  0  0  0  0  0  0  0  0  0  0
    6.6715   -0.9721   10.6313 H   0  0  0  0  0  0  0  0  0  0  0  0
    7.3845   -1.4443    9.3102 H   0  0  0  0  0  0  0  0  0  0  0  0
    5.9112    1.7162    5.7988 H   0  0  0  0  0  0  0  0  0  0  0  0
    7.0993    1.8915    7.0794 H   0  0  0  0  0  0  0  0  0  0  0  0
    5.5390    2.5773    7.2781 H   0  0  0  0  0  0  0  0  0  0  0  0
    6.1540   -0.7122    5.8818 H   0  0  0  0  0  0  0  0  0  0  0  0
    8.0029    0.3102    6.5051 H   0  0  0  0  0  0  0  0  0  0  0  0
    5.1993   -1.9789    6.9938 H   0  0  0  0  0  0  0  0  0  0  0  0
    7.5312   -2.7269    8.2638 H   0  0  0  0  0  0  0  0  0  0  0  0
    3.8950    0.8012    6.4049 H   0  0  0  0  0  0  0  0  0  0  0  0
    2.2147    0.3449    8.3608 H   0  0  0  0  0  0  0  0  0  0  0  0
    3.6693    3.9100    7.9052 H   0  0  0  0  0  0  0  0  0  0  0  0
    2.4262    4.2008    6.7224 H   0  0  0  0  0  0  0  0  0  0  0  0
    3.7448    3.1598    6.3031 H   0  0  0  0  0  0  0  0  0  0  0  0
    1.1160    1.1085    6.5200 H   0  0  0  0  0  0  0  0  0  0  0  0
    0.8135    3.7299    8.2222 H   0  0  0  0  0  0  0  0  0  0  0  0
   -0.0910    0.8878    8.3667 H   0  0  0  0  0  0  0  0  0  0  0  0
   -0.8542    2.2894    4.4025 H   0  0  0  0  0  0  0  0  0  0  0  0
   -2.4053    2.8515    5.0518 H   0  0  0  0  0  0  0  0  0  0  0  0
   -2.2709    1.2472    4.3094 H   0  0  0  0  0  0  0  0  0  0  0  0
   -2.2620    1.5933    9.1579 H   0  0  0  0  0  0  0  0  0  0  0  0
   -2.3231    3.9740    8.6986 H   0  0  0  0  0  0  0  0  0  0  0  0
   -1.0896    4.2898    9.9184 H   0  0  0  0  0  0  0  0  0  0  0  0
   -2.6740    3.6761   10.3875 H   0  0  0  0  0  0  0  0  0  0  0  0
   -1.7098    1.7363   11.3901 H   0  0  0  0  0  0  0  0  0  0  0  0
    2.2445    3.7347   10.0085 H   0  0  0  0  0  0  0  0  0  0  0  0
    0.8156    3.1142   10.6612 H   0  0  0  0  0  0  0  0  0  0  0  0
    5.4974    2.3013    9.3390 H   0  0  0  0  0  0  0  0  0  0  0  0
    4.9438    2.2903   10.9667 H   0  0  0  0  0  0  0  0  0  0  0  0
    4.1757    3.2133    9.7874 H   0  0  0  0  0  0  0  0  0  0  0  0
    2.6001   -1.8682   10.4896 H   0  0  0  0  0  0  0  0  0  0  0  0
    2.5715   -0.7639   11.7655 H   0  0  0  0  0  0  0  0  0  0  0  0
    3.7882   -1.9445   11.7277 H   0  0  0  0  0  0  0  0  0  0  0  0
    5.4989    0.5456   11.0710 H   0  0  0  0  0  0  0  0  0  0  0  0
   -0.2208   -1.4030    8.2864 H   0  0  0  0  0  0  0  0  0  0  0  0
    1.4947   -0.9537   10.1578 H   0  0  0  0  0  0  0  0  0  0  0  0
  1  2  2  0
  1 69  1  0
  1 70  1  0
  2 34  1  0
  2  3  1  0
  3 11  1  0
  3  4  1  0
  3 71  1  6
  4  5  2  0
  4  6  1  0
  6  7  1  0
  6  8  1  6
  6  9  1  0
  7 72  1  0
  7 73  1  0
  7 74  1  0
  8 75  1  0
  9 10  1  6
  9 11  1  0
  9 13  1  0
 10 76  1  0
 10 77  1  0
 10 78  1  0
 11 12  1  0
 11 79  1  1
 12 80  1  0
 13 34  1  0
 13 14  1  6
 13 15  1  0
 14 81  1  0
 14 82  1  0
 14 83  1  0
 16 15  1  6
 15 84  1  0
 15 85  1  0
 16 33  1  0
 16 45  1  0
 16 17  1  0
 17 67  1  0
 17 18  1  0
 17 86  1  6
 18 19  1  0
 19 20  2  0
 19 21  1  0
 21 25  1  0
 21 22  1  1
 21 67  1  0
 22 23  1  0
 22 87  1  0
 22 88  1  0
 23 24  1  0
 23 25  1  0
 23 89  1  1
 24 90  1  0
 25 26  1  1
 25 27  1  0
 26 91  1  0
 27 28  1  0
 27 29  1  0
 27 92  1  1
 28 93  1  0
 29 30  1  0
 29 94  1  0
 29 95  1  0
 31 30  1  1
 30 36  1  0
 30 96  1  6
 31 32  2  0
 31 33  1  0
 33 34  1  0
 33 97  1  6
 34 35  1  1
 35 98  1  0
 35 99  1  0
 35100  1  0
 36 43  1  0
 36 64  1  0
 36 37  1  1
 37 38  1  0
 37101  1  0
 37102  1  0
 38 39  1  0
 39 40  1  6
 39 41  1  0
 39 45  1  0
 40103  1  0
 40104  1  0
 40105  1  0
 41 42  1  0
 41 43  1  0
 41106  1  6
 42107  1  0
 43 44  1  0
 43108  1  6
 44109  1  0
 45 46  1  0
 45110  1  6
 46 62  1  0
 46 47  1  0
 46111  1  1
 47 48  1  0
 47 49  1  6
 47 50  1  0
 48112  1  0
 48113  1  0
 48114  1  0
 49115  1  0
 50 51  1  0
 50 59  1  0
 50116  1  6
 51 52  1  0
 51 56  1  0
 51117  1  6
 52 53  1  0
 53 54  1  0
 53 55  2  0
 54118  1  0
 54119  1  0
 54120  1  0
 56 57  1  0
 56 58  1  0
 56121  1  6
 57122  1  0
 57123  1  0
 57124  1  0
 58125  1  0
 59 60  1  0
 59126  1  0
 59127  1  0
 60 61  2  0
 60 62  1  0
 62 63  1  6
 62 64  1  0
 63128  1  0
 63129  1  0
 63130  1  0
 64 65  1  0
 64 66  1  1
 65131  1  0
 65132  1  0
 65133  1  0
 66134  1  0
 67 68  1  0
 67135  1  6
 68136  1  0
M  END
>  <i_m_ct_stereo_status>  (151) 
1

>  <s_m_source_file>  (151) 
/var/tmp/pbs.5075288.sched01/tmp4tfr24xl/130i3iej58d.sdf

>  <i_m_source_file_index>  (151) 
48

>  <i_lp_mmshare_version>  (151) 
48012

>  <i_f3d_flags>  (151) 
0

>  <s_epik_input>  (151) 
W0NIMl09QzFbQ0BASF0oW0NAQEhdMltPSF0pQyg9TylbQ0BAXShbQ0gzXSkoW09IXSlbQ0BdMihbQ0gzXSlbQ0BdKFtDSDNdKShbQ0gyXTMpW0NAQF0xKFtDSDNdKVtDQEhdNFtTK10oW08tXSlbQ0BASF0oW0NIMl1bQ0BIXShbT0hdKVtDQF0oW09IXSkoW0NAQEhdKFtDSDJdNSlbT0hdKVtDQEBdNShbQ0BIXTZbT0hdKUMoPU8pT1tDQEBIXTZbQ0BdMzQ3KUM4OVtDSDJdT1tDQEBdKFtDSDNdKShbQ0BASF0oW09IXSlbQ0BIXThbT0hdKVtDQEBIXTdbQ0BIXTFbQ0BdKFtDSDNdKShbQ0BdOShbQ0gzXSlbT0hdKUMoPU8pW0NIMl1bQ0BASF0oW0NAXTEoW0NIM10pW09IXSlbQ0BASF0oW0NASF0oW0NIM10pW09IXSlPQyg9TylbQ0gzXQ==

>  <s_epik_cmdline>  (151) 
J2VwaWtfcHl0aG9uJywgJy1waHQnLCAnMi4wJywgJy1waCcsICc3LjAnLCAnLXRuJywgJzgnLCAnLW1hJywgJzIwMCcsICctaW1hZScsICc8aW5maWxlLm1hZT4nLCAnLW9tYWUnLCAnPG91dGZpbGUubWFlPic=

>  <r_lp_tautomer_probability>  (151) 
1

>  <r_epik_Ionization_Penalty>  (151) 
2.3251e-06

>  <r_epik_Ionization_Penalty_Charging>  (151) 
0

>  <r_epik_Ionization_Penalty_Neutral>  (151) 
2.3251e-06

>  <r_epik_State_Penalty>  (151) 
-0

>  <r_epik_Charging_Adjusted_Penalty>  (151) 
0

>  <i_epik_Tot_Q>  (151) 
0

>  <i_epik_Tot_abs_Q>  (151) 
2

>  <s_epik_Chemistry_Notes>  (151) 
This compound has an ester and may undergo hydrolysis at high or low pH.

>  <s_lp_Force_Field>  (151) 
OPLS3e

>  <r_lp_Energy>  (151) 
588.523

>  <b_lp_Chiralities_Consistent>  (151) 
1

>  <s_lp_Variant>  (151) 
68:0-3

>  <s_i_glide_gridfile>  (151) 
pfpi4k_grid

>  <i_i_glide_lignum>  (151) 
48

>  <i_i_glide_rotatable_bonds>  (151) 
15

>  <r_i_docking_score>  (151) 
-4.56539

>  <r_i_glide_ligand_efficiency>  (151) 
-0.0671381

>  <r_i_glide_ligand_efficiency_sa>  (151) 
-0.274034

>  <r_i_glide_ligand_efficiency_ln>  (151) 
-0.874678

>  <r_i_glide_gscore>  (151) 
-4.56539

>  <r_i_glide_lipo>  (151) 
-0.235102

>  <r_i_glide_hbond>  (151) 
-0.147312

>  <r_i_glide_metal>  (151) 
-0

>  <r_i_glide_rewards>  (151) 
-1.04799

>  <r_i_glide_evdw>  (151) 
-30.4814

>  <r_i_glide_ecoul>  (151) 
-10.9304

>  <r_i_glide_erotb>  (151) 
0.0692949

>  <r_i_glide_esite>  (151) 
-0.0406464

>  <r_i_glide_emodel>  (151) 
-61.6442

>  <r_i_glide_energy>  (151) 
-41.4119

>  <r_i_glide_einternal>  (151) 
4.43355

>  <r_i_glide_intrahb_reward>  (151) 
-1

>  <i_i_glide_confnum>  (151) 
2

>  <i_i_glide_posenum>  (151) 
1

>  <r_i_glide_eff_state_penalty>  (151) 
0

>  <ligand_id>  (151) 
68

>  <original_smiles>  (151) 
C=C1C2C(=O)C(C)(O)C(C)(C2O)C2(C)CC34C5OC(=O)C6(CC(O)C6(O)C(O)CC([S+]([O-])C3C12C)C12COC(C)(C(O)C1O)C4C1C(C)(O)C(C(OC(C)=O)C(C)O)CC(=O)C1(C)C2(C)O)C5O

>  <smiles>  (151) 
[H]OC([H])(C([H])([H])[H])C([H])(OC(=O)C([H])([H])[H])C1([H])C([H])([H])C(=O)C2(C([H])([H])[H])C([H])(C3([H])C4(C([H])([H])[H])OC([H])([H])C(C([H])(O[H])C4([H])O[H])(C4([H])S(=O)C5([H])C6(C([H])([H])[H])C(=C([H])[H])C7([H])C(=O)C(O[H])(C([H])([H])[H])C(C([H])([H])[H])(C7([H])O[H])C6(C([H])([H])[H])C([H])([H])C53C3([H])OC(=O)C5(C([H])([H])C([H])(O[H])C5(O[H])C([H])(O[H])C4([H])[H])C3([H])O[H])C2(O[H])C([H])([H])[H])C1(O[H])C([H])([H])[H]

$$$$
68:2:2
     RDKit          3D

136145  0  0  1  0  0  0  0  0999 V2000
    4.5917   -6.9525   -0.1845 C   0  0  0  0  0  0  0  0  0  0  0  0
    4.8304   -5.7122    0.2416 C   0  0  0  0  0  0  0  0  0  0  0  0
    5.0585   -4.5250   -0.7857 C   0  0  2  0  0  0  0  0  0  0  0  0
    6.1277   -3.5225   -0.3422 C   0  0  0  0  0  0  0  0  0  0  0  0
    7.3292   -3.5771   -0.6663 O   0  0  0  0  0  0  0  0  0  0  0  0
    5.5196   -2.4109    0.4933 C   0  0  1  0  0  0  0  0  0  0  0  0
    6.3297   -1.9532    1.7100 C   0  0  0  0  0  0  0  0  0  0  0  0
    5.6341   -1.2317   -0.2931 O   0  0  0  0  0  0  0  0  0  0  0  0
    4.0735   -2.9418    0.7221 C   0  0  1  0  0  0  0  0  0  0  0  0
    3.1725   -1.7076    1.0338 C   0  0  0  0  0  0  0  0  0  0  0  0
    3.8595   -3.5934   -0.7218 C   0  0  1  0  0  0  0  0  0  0  0  0
    3.7913   -2.6652   -1.7932 O   0  0  0  0  0  0  0  0  0  0  0  0
    3.7864   -4.1653    1.7737 C   0  0  2  0  0  0  0  0  0  0  0  0
    2.3306   -4.5899    1.3633 C   0  0  0  0  0  0  0  0  0  0  0  0
    3.6284   -4.0275    3.3146 C   0  0  0  0  0  0  0  0  0  0  0  0
    3.5343   -5.4287    4.1424 C   0  0  1  0  0  0  0  0  0  0  0  0
    1.9395   -5.9981    4.2372 C   0  0  1  0  0  0  0  0  0  0  0  0
    1.4473   -6.5887    3.0292 O   0  0  0  0  0  0  0  0  0  0  0  0
    1.4215   -7.9403    2.9215 C   0  0  0  0  0  0  0  0  0  0  0  0
    1.5334   -8.5100    1.8483 O   0  0  0  0  0  0  0  0  0  0  0  0
    1.1280   -8.5029    4.2804 C   0  0  1  0  0  0  0  0  0  0  0  0
   -0.2470   -9.2018    4.2331 C   0  0  0  0  0  0  0  0  0  0  0  0
    0.4567  -10.5571    4.1117 C   0  0  1  0  0  0  0  0  0  0  0  0
    0.5734  -11.0842    2.8201 O   0  0  0  0  0  0  0  0  0  0  0  0
    1.7009   -9.9299    4.7581 C   0  0  2  0  0  0  0  0  0  0  0  0
    1.5455  -10.1868    6.1349 O   0  0  0  0  0  0  0  0  0  0  0  0
    3.1185  -10.5489    4.4404 C   0  0  1  0  0  0  0  0  0  0  0  0
    3.3751  -10.6841    3.0599 O   0  0  0  0  0  0  0  0  0  0  0  0
    4.4169   -9.9721    5.1326 C   0  0  0  0  0  0  0  0  0  0  0  0
    4.6839   -8.4402    5.0413 C   0  0  2  0  0  0  0  0  0  0  0  0
    4.7429   -8.0541    3.1665 S   0  0  0  0  0  0  0  0  0  0  0  0
    6.0501   -8.4166    2.4639 O   0  0  0  0  0  0  0  0  0  0  0  0
    4.1827   -6.2674    2.8737 C   0  0  2  0  0  0  0  0  0  0  0  0
    4.8163   -5.3564    1.7255 C   0  0  1  0  0  0  0  0  0  0  0  0
    6.3309   -5.2345    2.0444 C   0  0  0  0  0  0  0  0  0  0  0  0
    5.3526   -7.4801    6.2393 C   0  0  1  0  0  0  0  0  0  0  0  0
    6.6048   -7.2368    7.1357 C   0  0  0  0  0  0  0  0  0  0  0  0
    6.3229   -5.7960    7.4131 O   0  0  0  0  0  0  0  0  0  0  0  0
    5.8126   -4.8581    6.3339 C   0  0  1  0  0  0  0  0  0  0  0  0
    6.2125   -3.4074    6.7660 C   0  0  0  0  0  0  0  0  0  0  0  0
    6.7868   -5.2774    5.3392 C   0  0  1  0  0  0  0  0  0  0  0  0
    8.1524   -5.1281    5.7231 O   0  0  0  0  0  0  0  0  0  0  0  0
    6.3277   -6.6969    5.1695 C   0  0  1  0  0  0  0  0  0  0  0  0
    7.3797   -7.4624    4.5597 O   0  0  0  0  0  0  0  0  0  0  0  0
    4.2449   -4.9123    5.6830 C   0  0  2  0  0  0  0  0  0  0  0  0
    3.2240   -4.8890    6.8639 C   0  0  2  0  0  0  0  0  0  0  0  0
    2.3787   -3.5662    7.0889 C   0  0  1  0  0  0  0  0  0  0  0  0
    3.0999   -2.3070    7.5966 C   0  0  0  0  0  0  0  0  0  0  0  0
    2.0054   -3.1732    5.7943 O   0  0  0  0  0  0  0  0  0  0  0  0
    1.0766   -3.7947    7.9371 C   0  0  1  0  0  0  0  0  0  0  0  0
   -0.2258   -4.1565    7.1286 C   0  0  2  0  0  0  0  0  0  0  0  0
   -0.6435   -3.1830    6.1681 O   0  0  0  0  0  0  0  0  0  0  0  0
   -0.6167   -1.8521    6.3889 C   0  0  0  0  0  0  0  0  0  0  0  0
   -1.0732   -1.0790    5.1632 C   0  0  0  0  0  0  0  0  0  0  0  0
   -0.3073   -1.2876    7.4284 O   0  0  0  0  0  0  0  0  0  0  0  0
   -1.4441   -4.6637    7.9249 C   0  0  2  0  0  0  0  0  0  0  0  0
   -2.7123   -4.6773    7.0900 C   0  0  0  0  0  0  0  0  0  0  0  0
   -1.6980   -3.8798    9.0660 O   0  0  0  0  0  0  0  0  0  0  0  0
    1.3782   -4.6716    9.1613 C   0  0  0  0  0  0  0  0  0  0  0  0
    2.2601   -5.9008    8.9499 C   0  0  0  0  0  0  0  0  0  0  0  0
    2.0028   -6.8531    9.6915 O   0  0  0  0  0  0  0  0  0  0  0  0
    3.5782   -5.7725    8.0940 C   0  0  2  0  0  0  0  0  0  0  0  0
    4.4242   -4.9951    9.1980 C   0  0  0  0  0  0  0  0  0  0  0  0
    4.2456   -7.2013    7.5680 C   0  0  1  0  0  0  0  0  0  0  0  0
    3.3456   -8.4370    7.6343 C   0  0  0  0  0  0  0  0  0  0  0  0
    4.7257   -7.6274    8.8480 O   0  0  0  0  0  0  0  0  0  0  0  0
    1.2104   -7.1699    5.0481 C   0  0  1  0  0  0  0  0  0  0  0  0
    0.9694   -7.2018    6.4328 O   0  0  0  0  0  0  0  0  0  0  0  0
    4.4164   -7.7975    0.4393 H   0  0  0  0  0  0  0  0  0  0  0  0
    4.6819   -7.1011   -1.2461 H   0  0  0  0  0  0  0  0  0  0  0  0
    5.2313   -4.8886   -1.7920 H   0  0  0  0  0  0  0  0  0  0  0  0
    5.9541   -2.3584    2.6470 H   0  0  0  0  0  0  0  0  0  0  0  0
    6.2744   -0.8670    1.8740 H   0  0  0  0  0  0  0  0  0  0  0  0
    7.3757   -2.2072    1.5738 H   0  0  0  0  0  0  0  0  0  0  0  0
    5.1829   -0.5283    0.1474 H   0  0  0  0  0  0  0  0  0  0  0  0
    2.1171   -1.9380    1.1941 H   0  0  0  0  0  0  0  0  0  0  0  0
    3.1864   -0.9667    0.2300 H   0  0  0  0  0  0  0  0  0  0  0  0
    3.5179   -1.2077    1.9414 H   0  0  0  0  0  0  0  0  0  0  0  0
    2.9985   -4.2237   -0.9509 H   0  0  0  0  0  0  0  0  0  0  0  0
    2.9920   -2.1615   -1.6850 H   0  0  0  0  0  0  0  0  0  0  0  0
    2.2212   -5.5715    0.9056 H   0  0  0  0  0  0  0  0  0  0  0  0
    1.8825   -3.9200    0.6607 H   0  0  0  0  0  0  0  0  0  0  0  0
    1.5965   -4.4652    2.1463 H   0  0  0  0  0  0  0  0  0  0  0  0
    4.5246   -3.4872    3.5969 H   0  0  0  0  0  0  0  0  0  0  0  0
    2.7905   -3.3655    3.5117 H   0  0  0  0  0  0  0  0  0  0  0  0
    1.3174   -5.1182    4.3933 H   0  0  0  0  0  0  0  0  0  0  0  0
   -0.8043   -9.1046    5.1678 H   0  0  0  0  0  0  0  0  0  0  0  0
   -0.8933   -8.9743    3.3794 H   0  0  0  0  0  0  0  0  0  0  0  0
   -0.0375  -11.2981    4.7462 H   0  0  0  0  0  0  0  0  0  0  0  0
   -0.2769  -11.0231    2.4111 H   0  0  0  0  0  0  0  0  0  0  0  0
    1.4516  -11.1236    6.2823 H   0  0  0  0  0  0  0  0  0  0  0  0
    3.0730  -11.5972    4.7508 H   0  0  0  0  0  0  0  0  0  0  0  0
    3.2520   -9.8434    2.6402 H   0  0  0  0  0  0  0  0  0  0  0  0
    4.4666  -10.3460    6.1489 H   0  0  0  0  0  0  0  0  0  0  0  0
    5.2617  -10.4595    4.6493 H   0  0  0  0  0  0  0  0  0  0  0  0
    3.6955   -8.0087    5.0557 H   0  0  0  0  0  0  0  0  0  0  0  0
    3.4441   -6.6196    2.1864 H   0  0  0  0  0  0  0  0  0  0  0  0
    6.6189   -4.3104    2.5061 H   0  0  0  0  0  0  0  0  0  0  0  0
    6.9773   -5.3538    1.1732 H   0  0  0  0  0  0  0  0  0  0  0  0
    6.7126   -6.0707    2.6111 H   0  0  0  0  0  0  0  0  0  0  0  0
    6.7513   -7.8599    8.0133 H   0  0  0  0  0  0  0  0  0  0  0  0
    7.6364   -7.3660    6.8076 H   0  0  0  0  0  0  0  0  0  0  0  0
    6.1904   -2.7020    5.9327 H   0  0  0  0  0  0  0  0  0  0  0  0
    7.2195   -3.3684    7.1783 H   0  0  0  0  0  0  0  0  0  0  0  0
    5.5880   -2.9961    7.5460 H   0  0  0  0  0  0  0  0  0  0  0  0
    6.5865   -4.6493    4.4876 H   0  0  0  0  0  0  0  0  0  0  0  0
    8.3204   -5.6492    6.4951 H   0  0  0  0  0  0  0  0  0  0  0  0
    5.7633   -6.3442    4.4050 H   0  0  0  0  0  0  0  0  0  0  0  0
    8.0492   -7.6508    5.2030 H   0  0  0  0  0  0  0  0  0  0  0  0
    4.2839   -3.8505    5.5052 H   0  0  0  0  0  0  0  0  0  0  0  0
    2.4539   -5.4774    6.4614 H   0  0  0  0  0  0  0  0  0  0  0  0
    3.5274   -2.4062    8.5913 H   0  0  0  0  0  0  0  0  0  0  0  0
    2.3794   -1.4890    7.6732 H   0  0  0  0  0  0  0  0  0  0  0  0
    3.8605   -1.9446    6.9101 H   0  0  0  0  0  0  0  0  0  0  0  0
    2.7799   -2.8442    5.3507 H   0  0  0  0  0  0  0  0  0  0  0  0
    0.8496   -2.8740    8.4581 H   0  0  0  0  0  0  0  0  0  0  0  0
   -0.0199   -5.0123    6.4941 H   0  0  0  0  0  0  0  0  0  0  0  0
   -2.1642   -1.0931    5.0629 H   0  0  0  0  0  0  0  0  0  0  0  0
   -0.6122   -1.4598    4.2457 H   0  0  0  0  0  0  0  0  0  0  0  0
   -0.7536   -0.0448    5.2902 H   0  0  0  0  0  0  0  0  0  0  0  0
   -1.2843   -5.6670    8.2889 H   0  0  0  0  0  0  0  0  0  0  0  0
   -2.6635   -5.4560    6.3070 H   0  0  0  0  0  0  0  0  0  0  0  0
   -2.9843   -3.7096    6.6726 H   0  0  0  0  0  0  0  0  0  0  0  0
   -3.5443   -4.9890    7.7113 H   0  0  0  0  0  0  0  0  0  0  0  0
   -1.0797   -4.1183    9.7587 H   0  0  0  0  0  0  0  0  0  0  0  0
    1.8941   -4.0438    9.8753 H   0  0  0  0  0  0  0  0  0  0  0  0
    0.4790   -4.9782    9.6885 H   0  0  0  0  0  0  0  0  0  0  0  0
    5.3584   -4.5352    8.9232 H   0  0  0  0  0  0  0  0  0  0  0  0
    4.6476   -5.5978   10.0796 H   0  0  0  0  0  0  0  0  0  0  0  0
    3.8959   -4.1607    9.6309 H   0  0  0  0  0  0  0  0  0  0  0  0
    2.8550   -8.5210    6.7157 H   0  0  0  0  0  0  0  0  0  0  0  0
    2.5631   -8.5113    8.3692 H   0  0  0  0  0  0  0  0  0  0  0  0
    3.9047   -9.3554    7.7924 H   0  0  0  0  0  0  0  0  0  0  0  0
    5.4008   -7.0179    9.1131 H   0  0  0  0  0  0  0  0  0  0  0  0
    0.1867   -6.7983    4.9235 H   0  0  0  0  0  0  0  0  0  0  0  0
    1.6100   -7.7804    6.8276 H   0  0  0  0  0  0  0  0  0  0  0  0
  1  2  2  0
  1 69  1  0
  1 70  1  0
  2 34  1  0
  2  3  1  0
  3 11  1  0
  3  4  1  0
  3 71  1  6
  4  5  2  0
  4  6  1  0
  6  7  1  0
  6  8  1  6
  6  9  1  0
  7 72  1  0
  7 73  1  0
  7 74  1  0
  8 75  1  0
  9 10  1  1
  9 11  1  0
  9 13  1  0
 10 76  1  0
 10 77  1  0
 10 78  1  0
 11 12  1  0
 11 79  1  1
 12 80  1  0
 13 34  1  0
 13 14  1  6
 13 15  1  0
 14 81  1  0
 14 82  1  0
 14 83  1  0
 16 15  1  6
 15 84  1  0
 15 85  1  0
 16 33  1  0
 16 45  1  0
 16 17  1  0
 17 67  1  0
 17 18  1  0
 17 86  1  1
 18 19  1  0
 19 20  2  0
 19 21  1  0
 21 25  1  0
 21 22  1  6
 21 67  1  0
 22 23  1  0
 22 87  1  0
 22 88  1  0
 23 24  1  0
 23 25  1  0
 23 89  1  1
 24 90  1  0
 25 26  1  1
 25 27  1  0
 26 91  1  0
 27 28  1  0
 27 29  1  0
 27 92  1  1
 28 93  1  0
 29 30  1  0
 29 94  1  0
 29 95  1  0
 31 30  1  1
 30 36  1  0
 30 96  1  1
 31 32  2  0
 31 33  1  0
 33 34  1  0
 33 97  1  6
 34 35  1  1
 35 98  1  0
 35 99  1  0
 35100  1  0
 36 43  1  0
 36 64  1  0
 36 37  1  1
 37 38  1  0
 37101  1  0
 37102  1  0
 38 39  1  0
 39 40  1  1
 39 41  1  0
 39 45  1  0
 40103  1  0
 40104  1  0
 40105  1  0
 41 42  1  0
 41 43  1  0
 41106  1  6
 42107  1  0
 43 44  1  0
 43108  1  6
 44109  1  0
 45 46  1  0
 45110  1  6
 46 62  1  0
 46 47  1  0
 46111  1  6
 47 48  1  0
 47 49  1  6
 47 50  1  0
 48112  1  0
 48113  1  0
 48114  1  0
 49115  1  0
 50 51  1  0
 50 59  1  0
 50116  1  1
 51 52  1  0
 51 56  1  0
 51117  1  6
 52 53  1  0
 53 54  1  0
 53 55  2  0
 54118  1  0
 54119  1  0
 54120  1  0
 56 57  1  0
 56 58  1  0
 56121  1  1
 57122  1  0
 57123  1  0
 57124  1  0
 58125  1  0
 59 60  1  0
 59126  1  0
 59127  1  0
 60 61  2  0
 60 62  1  0
 62 63  1  1
 62 64  1  0
 63128  1  0
 63129  1  0
 63130  1  0
 64 65  1  0
 64 66  1  1
 65131  1  0
 65132  1  0
 65133  1  0
 66134  1  0
 67 68  1  0
 67135  1  6
 68136  1  0
M  END
>  <i_m_ct_stereo_status>  (152) 
1

>  <s_m_source_file>  (152) 
/var/tmp/pbs.5075288.sched01/tmp4tfr24xl/130i3iej58d.sdf

>  <i_m_source_file_index>  (152) 
48

>  <i_lp_mmshare_version>  (152) 
48012

>  <i_f3d_flags>  (152) 
0

>  <s_epik_input>  (152) 
W0NIMl09QzFbQ0BASF0oW0NAQEhdMltPSF0pQyg9TylbQ0BAXShbQ0gzXSkoW09IXSlbQ0BdMihbQ0gzXSlbQ0BdKFtDSDNdKShbQ0gyXTMpW0NAQF0xKFtDSDNdKVtDQEhdNFtTK10oW08tXSlbQ0BASF0oW0NIMl1bQ0BIXShbT0hdKVtDQF0oW09IXSkoW0NAQEhdKFtDSDJdNSlbT0hdKVtDQEBdNShbQ0BIXTZbT0hdKUMoPU8pT1tDQEBIXTZbQ0BdMzQ3KUM4OVtDSDJdT1tDQEBdKFtDSDNdKShbQ0BASF0oW09IXSlbQ0BIXThbT0hdKVtDQEBIXTdbQ0BIXTFbQ0BdKFtDSDNdKShbQ0BdOShbQ0gzXSlbT0hdKUMoPU8pW0NIMl1bQ0BASF0oW0NAXTEoW0NIM10pW09IXSlbQ0BASF0oW0NASF0oW0NIM10pW09IXSlPQyg9TylbQ0gzXQ==

>  <s_epik_cmdline>  (152) 
J2VwaWtfcHl0aG9uJywgJy1waHQnLCAnMi4wJywgJy1waCcsICc3LjAnLCAnLXRuJywgJzgnLCAnLW1hJywgJzIwMCcsICctaW1hZScsICc8aW5maWxlLm1hZT4nLCAnLW9tYWUnLCAnPG91dGZpbGUubWFlPic=

>  <r_lp_tautomer_probability>  (152) 
1

>  <r_epik_Ionization_Penalty>  (152) 
2.3251e-06

>  <r_epik_Ionization_Penalty_Charging>  (152) 
0

>  <r_epik_Ionization_Penalty_Neutral>  (152) 
2.3251e-06

>  <r_epik_State_Penalty>  (152) 
-0

>  <r_epik_Charging_Adjusted_Penalty>  (152) 
0

>  <i_epik_Tot_Q>  (152) 
0

>  <i_epik_Tot_abs_Q>  (152) 
2

>  <s_epik_Chemistry_Notes>  (152) 
This compound has an ester and may undergo hydrolysis at high or low pH.

>  <s_lp_Force_Field>  (152) 
OPLS3e

>  <r_lp_Energy>  (152) 
588.523

>  <b_lp_Chiralities_Consistent>  (152) 
1

>  <s_lp_Variant>  (152) 
68:0-3

>  <s_i_glide_gridfile>  (152) 
pfpi4k_grid

>  <i_i_glide_lignum>  (152) 
48

>  <i_i_glide_rotatable_bonds>  (152) 
15

>  <r_i_docking_score>  (152) 
-3.72112

>  <r_i_glide_ligand_efficiency>  (152) 
-0.0547224

>  <r_i_glide_ligand_efficiency_sa>  (152) 
-0.223358

>  <r_i_glide_ligand_efficiency_ln>  (152) 
-0.712926

>  <r_i_glide_gscore>  (152) 
-3.72112

>  <r_i_glide_lipo>  (152) 
-0.394854

>  <r_i_glide_hbond>  (152) 
-0.0200456

>  <r_i_glide_metal>  (152) 
-0

>  <r_i_glide_rewards>  (152) 
-0.60489

>  <r_i_glide_evdw>  (152) 
-26.1036

>  <r_i_glide_ecoul>  (152) 
-9.29377

>  <r_i_glide_erotb>  (152) 
0.0692949

>  <r_i_glide_esite>  (152) 
-0.0713806

>  <r_i_glide_emodel>  (152) 
-43.9632

>  <r_i_glide_energy>  (152) 
-35.3974

>  <r_i_glide_einternal>  (152) 
7.55091

>  <r_i_glide_intrahb_reward>  (152) 
-0.5

>  <i_i_glide_confnum>  (152) 
3

>  <i_i_glide_posenum>  (152) 
2

>  <r_i_glide_eff_state_penalty>  (152) 
0

>  <ligand_id>  (152) 
68

>  <original_smiles>  (152) 
C=C1C2C(=O)C(C)(O)C(C)(C2O)C2(C)CC34C5OC(=O)C6(CC(O)C6(O)C(O)CC([S+]([O-])C3C12C)C12COC(C)(C(O)C1O)C4C1C(C)(O)C(C(OC(C)=O)C(C)O)CC(=O)C1(C)C2(C)O)C5O

>  <smiles>  (152) 
[H]OC([H])(C([H])([H])[H])C([H])(OC(=O)C([H])([H])[H])C1([H])C([H])([H])C(=O)C2(C([H])([H])[H])C([H])(C3([H])C4(C([H])([H])[H])OC([H])([H])C(C([H])(O[H])C4([H])O[H])(C4([H])S(=O)C5([H])C6(C([H])([H])[H])C(=C([H])[H])C7([H])C(=O)C(O[H])(C([H])([H])[H])C(C([H])([H])[H])(C7([H])O[H])C6(C([H])([H])[H])C([H])([H])C53C3([H])OC(=O)C5(C([H])([H])C([H])(O[H])C5(O[H])C([H])(O[H])C4([H])[H])C3([H])O[H])C2(O[H])C([H])([H])[H])C1(O[H])C([H])([H])[H]

$$$$
70:0:0
     RDKit          3D

106114  0  0  1  0  0  0  0  0999 V2000
    0.2224   -7.4909   10.8778 C   0  0  0  0  0  0  0  0  0  0  0  0
    1.2570   -8.0292    9.9065 C   0  0  0  0  0  0  0  0  0  0  0  0
    1.2590   -9.5386    9.7756 C   0  0  0  0  0  0  0  0  0  0  0  0
    2.0864   -7.1893    9.2565 C   0  0  0  0  0  0  0  0  0  0  0  0
    3.2051   -7.5440    8.2615 C   0  0  2  0  0  0  0  0  0  0  0  0
    4.6083   -7.2546    8.8056 C   0  0  0  0  0  0  0  0  0  0  0  0
    5.1215   -5.8258    8.5595 C   0  0  1  0  0  0  0  0  0  0  0  0
    4.6677   -4.8629    9.6959 C   0  0  0  0  0  0  0  0  0  0  0  0
    6.5120   -5.9299    8.8295 O   0  0  0  0  0  0  0  0  0  0  0  0
    4.8822   -5.3497    7.0476 C   0  0  1  0  0  0  0  0  0  0  0  0
    5.2072   -3.9745    7.1179 O   0  0  0  0  0  0  0  0  0  0  0  0
    5.9253   -6.0590    6.1503 C   0  0  0  0  0  0  0  0  0  0  0  0
    5.6715   -5.8520    4.7880 O   0  0  0  0  0  0  0  0  0  0  0  0
    6.1571   -4.6231    4.2764 C   0  0  0  0  0  0  0  0  0  0  0  0
    4.9987   -3.9435    3.5179 C   0  0  1  0  0  0  0  0  0  0  0  0
    4.8533   -4.7276    2.1673 C   0  0  2  0  0  0  0  0  0  0  0  0
    6.0135   -4.4415    1.1457 C   0  0  0  0  0  0  0  0  0  0  0  0
    5.7018   -3.6397   -0.1370 C   0  0  0  0  0  0  0  0  0  0  0  0
    4.4162   -4.0746   -0.8913 C   0  0  2  0  0  0  0  0  0  0  0  0
    4.5104   -3.7541   -2.4012 C   0  0  0  0  0  0  0  0  0  0  0  0
    3.2482   -3.4160   -0.4426 O   0  0  0  0  0  0  0  0  0  0  0  0
    3.1524   -3.5113    1.0585 O   0  0  0  0  0  0  0  0  0  0  0  0
    3.4523   -4.8258    1.5143 C   0  0  1  0  0  0  0  0  0  0  0  0
    3.5151   -5.8618    0.3844 C   0  0  1  0  0  0  0  0  0  0  0  0
    2.1791   -6.1358    0.0840 O   0  0  0  0  0  0  0  0  0  0  0  0
    1.3902   -6.6072    1.5351 S   0  0  0  0  0  0  0  0  0  0  0  0
   -0.1128   -6.2960    1.4355 O   0  0  0  0  0  0  0  0  0  0  0  0
    2.2740   -5.2502    2.4558 C   0  0  1  0  0  0  0  0  0  0  0  0
    2.6923   -5.8283    3.8383 C   0  0  0  0  0  0  0  0  0  0  0  0
    2.8796   -4.8295    5.0416 C   0  0  2  0  0  0  0  0  0  0  0  0
    1.4346   -4.2289    5.2301 C   0  0  0  0  0  0  0  0  0  0  0  0
    0.4478   -4.9673    5.2270 O   0  0  0  0  0  0  0  0  0  0  0  0
    1.2628   -2.6834    5.4203 C   0  0  0  0  0  0  0  0  0  0  0  0
   -0.2517   -2.3636    5.4315 C   0  0  0  0  0  0  0  0  0  0  0  0
    1.7571   -2.3450    6.8598 C   0  0  0  0  0  0  0  0  0  0  0  0
    2.0694   -1.8800    4.2755 C   0  0  2  0  0  0  0  0  0  0  0  0
    2.8126   -0.8165    4.8516 O   0  0  0  0  0  0  0  0  0  0  0  0
    2.1048    0.3548    5.3083 C   0  0  1  0  0  0  0  0  0  0  0  0
    3.1150    1.2914    5.9867 C   0  0  0  0  0  0  0  0  0  0  0  0
    3.6349    0.7430    7.1908 O   0  0  0  0  0  0  0  0  0  0  0  0
    1.3576    1.0133    4.1425 C   0  0  1  0  0  0  0  0  0  0  0  0
    2.2489    1.6986    3.2615 O   0  0  0  0  0  0  0  0  0  0  0  0
    0.4751   -0.0082    3.4139 C   0  0  1  0  0  0  0  0  0  0  0  0
   -0.1377    0.5705    2.2684 O   0  0  0  0  0  0  0  0  0  0  0  0
    1.2589   -1.2899    3.0502 C   0  0  1  0  0  0  0  0  0  0  0  0
    2.1630   -0.9761    1.9767 O   0  0  0  0  0  0  0  0  0  0  0  0
    2.9545   -2.7800    3.6480 O   0  0  0  0  0  0  0  0  0  0  0  0
    3.7663   -3.6388    4.4529 C   0  0  2  0  0  0  0  0  0  0  0  0
    3.3919   -5.5652    6.4873 C   0  0  2  0  0  0  0  0  0  0  0  0
    2.6648   -4.9271    7.4981 O   0  0  0  0  0  0  0  0  0  0  0  0
    3.0107   -7.0710    6.7826 C   0  0  1  0  0  0  0  0  0  0  0  0
    3.1487   -8.1863    5.7789 C   0  0  0  0  0  0  0  0  0  0  0  0
    1.8709   -7.6325    6.1276 O   0  0  0  0  0  0  0  0  0  0  0  0
    4.3138   -5.4623   -0.7049 O   0  0  0  0  0  0  0  0  0  0  0  0
   -0.7613   -7.7972   10.5505 H   0  0  0  0  0  0  0  0  0  0  0  0
    0.2403   -6.4005   10.9497 H   0  0  0  0  0  0  0  0  0  0  0  0
    0.3597   -7.9016   11.8751 H   0  0  0  0  0  0  0  0  0  0  0  0
    0.2424   -9.8714    9.6078 H   0  0  0  0  0  0  0  0  0  0  0  0
    1.5977  -10.0099   10.6859 H   0  0  0  0  0  0  0  0  0  0  0  0
    1.8096   -9.9355    8.9384 H   0  0  0  0  0  0  0  0  0  0  0  0
    1.9546   -6.1370    9.4806 H   0  0  0  0  0  0  0  0  0  0  0  0
    3.2027   -8.6224    8.2085 H   0  0  0  0  0  0  0  0  0  0  0  0
    4.6533   -7.5016    9.8694 H   0  0  0  0  0  0  0  0  0  0  0  0
    5.2897   -7.9645    8.3342 H   0  0  0  0  0  0  0  0  0  0  0  0
    3.6044   -4.6496    9.7225 H   0  0  0  0  0  0  0  0  0  0  0  0
    5.1763   -3.8997    9.6397 H   0  0  0  0  0  0  0  0  0  0  0  0
    4.9082   -5.2705   10.6769 H   0  0  0  0  0  0  0  0  0  0  0  0
    6.6194   -6.1767    9.7332 H   0  0  0  0  0  0  0  0  0  0  0  0
    5.1524   -3.6199    6.2494 H   0  0  0  0  0  0  0  0  0  0  0  0
    6.9578   -5.8182    6.3980 H   0  0  0  0  0  0  0  0  0  0  0  0
    5.8328   -7.1359    6.2615 H   0  0  0  0  0  0  0  0  0  0  0  0
    6.5319   -3.9348    5.0533 H   0  0  0  0  0  0  0  0  0  0  0  0
    6.9059   -4.9230    3.5891 H   0  0  0  0  0  0  0  0  0  0  0  0
    5.3584   -2.9583    3.2188 H   0  0  0  0  0  0  0  0  0  0  0  0
    5.0894   -5.7620    2.4152 H   0  0  0  0  0  0  0  0  0  0  0  0
    6.8658   -3.9763    1.6297 H   0  0  0  0  0  0  0  0  0  0  0  0
    6.4003   -5.4117    0.8196 H   0  0  0  0  0  0  0  0  0  0  0  0
    5.7032   -2.5662    0.0551 H   0  0  0  0  0  0  0  0  0  0  0  0
    6.5479   -3.8094   -0.8042 H   0  0  0  0  0  0  0  0  0  0  0  0
    3.5717   -3.9768   -2.8999 H   0  0  0  0  0  0  0  0  0  0  0  0
    5.2949   -4.3183   -2.8998 H   0  0  0  0  0  0  0  0  0  0  0  0
    4.6928   -2.6958   -2.5771 H   0  0  0  0  0  0  0  0  0  0  0  0
    3.9300   -6.7956    0.7513 H   0  0  0  0  0  0  0  0  0  0  0  0
    1.5343   -4.4493    2.5549 H   0  0  0  0  0  0  0  0  0  0  0  0
    1.9367   -6.5732    4.0835 H   0  0  0  0  0  0  0  0  0  0  0  0
    3.5961   -6.3983    3.6853 H   0  0  0  0  0  0  0  0  0  0  0  0
   -0.4454   -1.3464    5.7641 H   0  0  0  0  0  0  0  0  0  0  0  0
   -0.7940   -2.9995    6.1271 H   0  0  0  0  0  0  0  0  0  0  0  0
   -0.7115   -2.5156    4.4550 H   0  0  0  0  0  0  0  0  0  0  0  0
    1.5005   -1.3705    7.2475 H   0  0  0  0  0  0  0  0  0  0  0  0
    2.8372   -2.4467    6.9699 H   0  0  0  0  0  0  0  0  0  0  0  0
    1.2769   -3.0104    7.5736 H   0  0  0  0  0  0  0  0  0  0  0  0
    1.3362    0.0901    6.0202 H   0  0  0  0  0  0  0  0  0  0  0  0
    3.9426    1.5424    5.3202 H   0  0  0  0  0  0  0  0  0  0  0  0
    2.6078    2.2226    6.2286 H   0  0  0  0  0  0  0  0  0  0  0  0
    4.2291    1.3901    7.5947 H   0  0  0  0  0  0  0  0  0  0  0  0
    0.7131    1.7675    4.5812 H   0  0  0  0  0  0  0  0  0  0  0  0
    1.7379    2.2962    2.6953 H   0  0  0  0  0  0  0  0  0  0  0  0
   -0.3432   -0.2594    4.0760 H   0  0  0  0  0  0  0  0  0  0  0  0
    0.5538    0.8034    1.6235 H   0  0  0  0  0  0  0  0  0  0  0  0
    0.6021   -2.0646    2.6676 H   0  0  0  0  0  0  0  0  0  0  0  0
    1.6629   -0.7497    1.1705 H   0  0  0  0  0  0  0  0  0  0  0  0
    4.1383   -3.0069    5.2407 H   0  0  0  0  0  0  0  0  0  0  0  0
    2.8852   -5.3283    8.3228 H   0  0  0  0  0  0  0  0  0  0  0  0
    3.5057   -7.9934    4.7890 H   0  0  0  0  0  0  0  0  0  0  0  0
    3.3070   -9.1991    6.1335 H   0  0  0  0  0  0  0  0  0  0  0  0
  1  2  1  0
  1 55  1  0
  1 56  1  0
  1 57  1  0
  2  3  1  0
  2  4  2  3
  3 58  1  0
  3 59  1  0
  3 60  1  0
  4  5  1  0
  4 61  1  0
  5 51  1  0
  5  6  1  0
  5 62  1  6
  6  7  1  0
  6 63  1  0
  6 64  1  0
  7  8  1  0
  7  9  1  6
  7 10  1  0
  8 65  1  0
  8 66  1  0
  8 67  1  0
  9 68  1  0
 10 49  1  0
 10 11  1  1
 10 12  1  0
 11 69  1  0
 12 13  1  0
 12 70  1  0
 12 71  1  0
 13 14  1  0
 14 15  1  0
 14 72  1  0
 14 73  1  0
 15 48  1  0
 15 16  1  0
 15 74  1  6
 16 23  1  0
 16 17  1  0
 16 75  1  1
 17 18  1  0
 17 76  1  0
 17 77  1  0
 18 19  1  0
 18 78  1  0
 18 79  1  0
 19 54  1  0
 19 20  1  6
 19 21  1  0
 20 80  1  0
 20 81  1  0
 20 82  1  0
 21 22  1  0
 23 22  1  6
 23 28  1  0
 23 24  1  0
 24 25  1  0
 24 54  1  0
 24 83  1  1
 26 25  1  6
 26 27  2  0
 26 28  1  0
 28 29  1  0
 28 84  1  1
 30 29  1  6
 29 85  1  0
 29 86  1  0
 30 48  1  0
 30 31  1  0
 30 49  1  0
 31 32  2  0
 31 33  1  0
 33 34  1  0
 33 35  1  0
 33 36  1  0
 34 87  1  0
 34 88  1  0
 34 89  1  0
 35 90  1  0
 35 91  1  0
 35 92  1  0
 36 45  1  0
 36 37  1  1
 36 47  1  0
 37 38  1  0
 38 39  1  0
 38 41  1  0
 38 93  1  1
 39 40  1  0
 39 94  1  0
 39 95  1  0
 40 96  1  0
 41 42  1  0
 41 43  1  0
 41 97  1  1
 42 98  1  0
 43 44  1  0
 43 45  1  0
 43 99  1  1
 44100  1  0
 45 46  1  0
 45101  1  6
 46102  1  0
 47 48  1  0
 48103  1  1
 49 50  1  1
 49 51  1  0
 50104  1  0
 51 53  1  1
 51 52  1  0
 52 53  1  0
 52105  1  0
 52106  1  0
M  END
>  <i_m_ct_stereo_status>  (153) 
1

>  <s_m_source_file>  (153) 
/var/tmp/pbs.5075288.sched01/tmp4tfr24xl/130i3iej58d.sdf

>  <i_m_source_file_index>  (153) 
53

>  <i_lp_mmshare_version>  (153) 
48012

>  <i_f3d_flags>  (153) 
0

>  <s_epik_input>  (153) 
W0NIMl0xT1tDSDJdW0NAXTIoW09IXSlbQ0BdKFtDSDNdKShbT0hdKVtDSDJdW0NAQEhdKFtDSF09QyhbQ0gzXSlbQ0gzXSlbQ0BdMyhbQ0gyXU8zKVtDQF0yKFtPSF0pW0NAQF0oW0NASF00W0NAQEhdMVtDQEhdNVtDQEBdNjc4KShbQ0gyXVtDQEBIXThbUytdKFtPLV0pT1tDQEhdN09bQ0BAXShbQ0gzXSkoT082KVtDSDJdW0NIMl01KUMoPU8pQyhbQ0gzXSkoW0NIM10pW0NAXTkoTzQpT1tDQEBIXShbQ0gyXVtPSF0pW0NAQEhdKFtPSF0pW0NAQEhdKFtPSF0pW0NASF05W09IXQ==

>  <s_epik_cmdline>  (153) 
J2VwaWtfcHl0aG9uJywgJy1waHQnLCAnMi4wJywgJy1waCcsICc3LjAnLCAnLXRuJywgJzgnLCAnLW1hJywgJzIwMCcsICctaW1hZScsICc8aW5maWxlLm1hZT4nLCAnLW9tYWUnLCAnPG91dGZpbGUubWFlPic=

>  <r_lp_tautomer_probability>  (153) 
1

>  <r_epik_Ionization_Penalty>  (153) 
1.04673e-05

>  <r_epik_Ionization_Penalty_Charging>  (153) 
0

>  <r_epik_Ionization_Penalty_Neutral>  (153) 
1.04673e-05

>  <r_epik_State_Penalty>  (153) 
-0

>  <r_epik_Charging_Adjusted_Penalty>  (153) 
0

>  <i_epik_Tot_Q>  (153) 
0

>  <i_epik_Tot_abs_Q>  (153) 
2

>  <s_epik_Chemistry_Notes>  (153) 
This compound contains an acetal/aminal-like group ( X-CH(R)-Y where X, Y are N, S, or O) that may be acid/base labile, releasing an aldehyde.

>  <s_lp_Force_Field>  (153) 
OPLS3e

>  <r_lp_Energy>  (153) 
122.196

>  <b_lp_Chiralities_Consistent>  (153) 
1

>  <s_lp_Variant>  (153) 
70:0-1

>  <s_i_glide_gridfile>  (153) 
pfpi4k_grid

>  <i_i_glide_lignum>  (153) 
53

>  <i_i_glide_rotatable_bonds>  (153) 
9

>  <r_i_docking_score>  (153) 
-2.14356

>  <r_i_glide_ligand_efficiency>  (153) 
-0.0396956

>  <r_i_glide_ligand_efficiency_sa>  (153) 
-0.15004

>  <r_i_glide_ligand_efficiency_ln>  (153) 
-0.429659

>  <r_i_glide_gscore>  (153) 
-2.14356

>  <r_i_glide_lipo>  (153) 
-0.190667

>  <r_i_glide_hbond>  (153) 
-0.298517

>  <r_i_glide_metal>  (153) 
-0

>  <r_i_glide_rewards>  (153) 
-0.00132249

>  <r_i_glide_evdw>  (153) 
-18.1099

>  <r_i_glide_ecoul>  (153) 
-4.9518

>  <r_i_glide_erotb>  (153) 
0.0698826

>  <r_i_glide_esite>  (153) 
-0.0746705

>  <r_i_glide_emodel>  (153) 
-23.0353

>  <r_i_glide_energy>  (153) 
-23.0617

>  <r_i_glide_einternal>  (153) 
3.12038

>  <r_i_glide_intrahb_reward>  (153) 
-0

>  <i_i_glide_confnum>  (153) 
1

>  <i_i_glide_posenum>  (153) 
2

>  <r_i_glide_eff_state_penalty>  (153) 
0

>  <ligand_id>  (153) 
70

>  <original_smiles>  (153) 
CC(C)=CC1CC(C)(O)C2(O)COCC3C4CCC5(C)OOC46C(O[S+]([O-])C6CC4(C(=O)C(C)(C)C6(OC(CO)C(O)C(O)C6O)OC34)C2(O)C12CO2)O5

>  <smiles>  (153) 
[H]OC([H])([H])C1([H])OC2(OC3([H])C4([H])C([H])([H])OC([H])([H])C5(O[H])C(O[H])(C([H])([H])[H])C([H])([H])C([H])(C([H])=C(C([H])([H])[H])C([H])([H])[H])C6(OC6([H])[H])C5(O[H])C3(C(=O)C2(C([H])([H])[H])C([H])([H])[H])C([H])([H])C2([H])S(=O)OC3([H])OC5(C([H])([H])[H])OOC32C4([H])C([H])([H])C5([H])[H])C([H])(O[H])C([H])(O[H])C1([H])O[H]

$$$$
70:0:1
     RDKit          3D

106114  0  0  1  0  0  0  0  0999 V2000
    0.1571   -7.5684   11.9590 C   0  0  0  0  0  0  0  0  0  0  0  0
    1.1600   -8.0917   10.9471 C   0  0  0  0  0  0  0  0  0  0  0  0
    0.9854   -9.5677   10.6330 C   0  0  0  0  0  0  0  0  0  0  0  0
    2.0962   -7.2736   10.4065 C   0  0  0  0  0  0  0  0  0  0  0  0
    3.1950   -7.6202    9.3808 C   0  0  2  0  0  0  0  0  0  0  0  0
    4.6100   -7.3024    9.8976 C   0  0  0  0  0  0  0  0  0  0  0  0
    5.0880   -5.8646    9.6062 C   0  0  1  0  0  0  0  0  0  0  0  0
    4.6497   -4.8864   10.7492 C   0  0  0  0  0  0  0  0  0  0  0  0
    6.4846   -5.9411    9.8228 O   0  0  0  0  0  0  0  0  0  0  0  0
    4.7980   -5.4130    8.1017 C   0  0  1  0  0  0  0  0  0  0  0  0
    5.0923   -4.0349    8.1575 O   0  0  0  0  0  0  0  0  0  0  0  0
    5.8390   -6.0990    7.1740 C   0  0  0  0  0  0  0  0  0  0  0  0
    5.5826   -5.8903    5.8101 O   0  0  0  0  0  0  0  0  0  0  0  0
    5.9938   -4.6321    5.3127 C   0  0  0  0  0  0  0  0  0  0  0  0
    4.7978   -4.0638    4.5349 C   0  0  1  0  0  0  0  0  0  0  0  0
    4.6196   -4.8936    3.2034 C   0  0  2  0  0  0  0  0  0  0  0  0
    5.7170   -4.6164    2.1281 C   0  0  0  0  0  0  0  0  0  0  0  0
    5.3409   -3.8304    0.8532 C   0  0  0  0  0  0  0  0  0  0  0  0
    4.0464   -4.2724    0.1216 C   0  0  2  0  0  0  0  0  0  0  0  0
    4.1187   -3.9418   -1.3616 C   0  0  0  0  0  0  0  0  0  0  0  0
    2.8692   -3.6533    0.6197 O   0  0  0  0  0  0  0  0  0  0  0  0
    2.9127   -3.6914    2.0999 O   0  0  0  0  0  0  0  0  0  0  0  0
    3.2051   -5.0026    2.5852 C   0  0  1  0  0  0  0  0  0  0  0  0
    3.2420   -6.0614    1.4334 C   0  0  1  0  0  0  0  0  0  0  0  0
    1.9194   -6.4598    1.2036 O   0  0  0  0  0  0  0  0  0  0  0  0
    1.1457   -6.7687    2.6761 S   0  0  0  0  0  0  0  0  0  0  0  0
   -0.3113   -6.2356    2.5764 O   0  0  0  0  0  0  0  0  0  0  0  0
    2.0775   -5.4374    3.5641 C   0  0  1  0  0  0  0  0  0  0  0  0
    2.5387   -5.9994    4.9565 C   0  0  0  0  0  0  0  0  0  0  0  0
    2.7374   -4.9777    6.1379 C   0  0  2  0  0  0  0  0  0  0  0  0
    1.2876   -4.4015    6.3708 C   0  0  0  0  0  0  0  0  0  0  0  0
    0.3165   -5.1672    6.4057 O   0  0  0  0  0  0  0  0  0  0  0  0
    1.0863   -2.8602    6.5488 C   0  0  0  0  0  0  0  0  0  0  0  0
   -0.4341   -2.5710    6.6071 C   0  0  0  0  0  0  0  0  0  0  0  0
    1.6049   -2.4783    7.9625 C   0  0  0  0  0  0  0  0  0  0  0  0
    1.8173   -2.0505    5.3776 C   0  0  2  0  0  0  0  0  0  0  0  0
    2.5678   -0.9547    5.9038 O   0  0  0  0  0  0  0  0  0  0  0  0
    1.8356    0.2105    6.3519 C   0  0  1  0  0  0  0  0  0  0  0  0
    2.8491    1.1824    7.0080 C   0  0  0  0  0  0  0  0  0  0  0  0
    2.1651    2.2491    7.6597 O   0  0  0  0  0  0  0  0  0  0  0  0
    1.0528    0.8421    5.1772 C   0  0  1  0  0  0  0  0  0  0  0  0
    1.8911    1.5198    4.2511 O   0  0  0  0  0  0  0  0  0  0  0  0
    0.1768   -0.2262    4.5062 C   0  0  1  0  0  0  0  0  0  0  0  0
   -0.4813    0.3244    3.3610 O   0  0  0  0  0  0  0  0  0  0  0  0
    0.9660   -1.5046    4.1574 C   0  0  1  0  0  0  0  0  0  0  0  0
    1.8445   -1.2331    3.0712 O   0  0  0  0  0  0  0  0  0  0  0  0
    2.7214   -2.9341    4.7337 O   0  0  0  0  0  0  0  0  0  0  0  0
    3.5796   -3.7735    5.5055 C   0  0  2  0  0  0  0  0  0  0  0  0
    3.3040   -5.6711    7.5682 C   0  0  2  0  0  0  0  0  0  0  0  0
    2.5891   -5.0402    8.6043 O   0  0  0  0  0  0  0  0  0  0  0  0
    2.9675   -7.1970    7.9193 C   0  0  1  0  0  0  0  0  0  0  0  0
    3.0941   -8.3187    6.9249 C   0  0  0  0  0  0  0  0  0  0  0  0
    1.8164   -7.7716    7.2759 O   0  0  0  0  0  0  0  0  0  0  0  0
    3.9222   -5.6784    0.2443 O   0  0  0  0  0  0  0  0  0  0  0  0
   -0.8627   -7.6765   11.5825 H   0  0  0  0  0  0  0  0  0  0  0  0
    0.3189   -6.5150   12.1809 H   0  0  0  0  0  0  0  0  0  0  0  0
    0.2283   -8.1274   12.8887 H   0  0  0  0  0  0  0  0  0  0  0  0
   -0.0789   -9.7542   10.4912 H   0  0  0  0  0  0  0  0  0  0  0  0
    1.3007  -10.1779   11.4766 H   0  0  0  0  0  0  0  0  0  0  0  0
    1.5100   -9.9055    9.7382 H   0  0  0  0  0  0  0  0  0  0  0  0
    2.0762   -6.2572   10.7759 H   0  0  0  0  0  0  0  0  0  0  0  0
    3.2035   -8.7031    9.3587 H   0  0  0  0  0  0  0  0  0  0  0  0
    4.7036   -7.5270   10.9559 H   0  0  0  0  0  0  0  0  0  0  0  0
    5.2939   -8.0030    9.4152 H   0  0  0  0  0  0  0  0  0  0  0  0
    3.5863   -4.6791   10.8111 H   0  0  0  0  0  0  0  0  0  0  0  0
    5.1405   -3.9163   10.6670 H   0  0  0  0  0  0  0  0  0  0  0  0
    4.9267   -5.2743   11.7271 H   0  0  0  0  0  0  0  0  0  0  0  0
    6.6280   -6.1667   10.7336 H   0  0  0  0  0  0  0  0  0  0  0  0
    5.0172   -3.6905    7.2778 H   0  0  0  0  0  0  0  0  0  0  0  0
    6.8745   -5.8378    7.4012 H   0  0  0  0  0  0  0  0  0  0  0  0
    5.7721   -7.1786    7.3042 H   0  0  0  0  0  0  0  0  0  0  0  0
    6.3343   -3.9262    6.0696 H   0  0  0  0  0  0  0  0  0  0  0  0
    6.8597   -4.8101    4.6788 H   0  0  0  0  0  0  0  0  0  0  0  0
    5.1023   -3.0716    4.1972 H   0  0  0  0  0  0  0  0  0  0  0  0
    4.8746   -5.9183    3.4679 H   0  0  0  0  0  0  0  0  0  0  0  0
    6.5771   -4.1190    2.5578 H   0  0  0  0  0  0  0  0  0  0  0  0
    6.1157   -5.5824    1.8079 H   0  0  0  0  0  0  0  0  0  0  0  0
    5.3265   -2.7590    1.0438 H   0  0  0  0  0  0  0  0  0  0  0  0
    6.1808   -3.9850    0.1739 H   0  0  0  0  0  0  0  0  0  0  0  0
    3.1660   -4.2006   -1.8027 H   0  0  0  0  0  0  0  0  0  0  0  0
    4.9011   -4.5164   -1.8636 H   0  0  0  0  0  0  0  0  0  0  0  0
    4.2923   -2.8802   -1.5322 H   0  0  0  0  0  0  0  0  0  0  0  0
    3.7220   -6.9726    1.7795 H   0  0  0  0  0  0  0  0  0  0  0  0
    1.3341   -4.6331    3.6639 H   0  0  0  0  0  0  0  0  0  0  0  0
    1.7931   -6.7369    5.2276 H   0  0  0  0  0  0  0  0  0  0  0  0
    3.4284   -6.5942    4.8259 H   0  0  0  0  0  0  0  0  0  0  0  0
   -0.6293   -1.5450    6.9128 H   0  0  0  0  0  0  0  0  0  0  0  0
   -0.9375   -3.2254    7.3218 H   0  0  0  0  0  0  0  0  0  0  0  0
   -0.9225   -2.7370    5.6511 H   0  0  0  0  0  0  0  0  0  0  0  0
    1.3383   -1.4904    8.3106 H   0  0  0  0  0  0  0  0  0  0  0  0
    2.6848   -2.5627    8.0501 H   0  0  0  0  0  0  0  0  0  0  0  0
    1.1660   -3.1509    8.6960 H   0  0  0  0  0  0  0  0  0  0  0  0
    1.1049   -0.0780    7.0928 H   0  0  0  0  0  0  0  0  0  0  0  0
    3.4583    0.6527    7.7367 H   0  0  0  0  0  0  0  0  0  0  0  0
    3.5530    1.5896    6.2864 H   0  0  0  0  0  0  0  0  0  0  0  0
    2.7997    2.8945    7.9969 H   0  0  0  0  0  0  0  0  0  0  0  0
    0.3945    1.5888    5.6129 H   0  0  0  0  0  0  0  0  0  0  0  0
    1.3645    1.9788    3.5828 H   0  0  0  0  0  0  0  0  0  0  0  0
   -0.6027   -0.4714    5.2255 H   0  0  0  0  0  0  0  0  0  0  0  0
    0.1655    0.6449    2.7127 H   0  0  0  0  0  0  0  0  0  0  0  0
    0.2980   -2.3046    3.8214 H   0  0  0  0  0  0  0  0  0  0  0  0
    1.3551   -0.9095    2.3066 H   0  0  0  0  0  0  0  0  0  0  0  0
    3.9664   -3.1289    6.2806 H   0  0  0  0  0  0  0  0  0  0  0  0
    2.8018   -5.4585    9.4342 H   0  0  0  0  0  0  0  0  0  0  0  0
    3.4323   -8.1557    5.9214 H   0  0  0  0  0  0  0  0  0  0  0  0
    3.2602   -9.3211    7.3243 H   0  0  0  0  0  0  0  0  0  0  0  0
  1  2  1  0
  1 55  1  0
  1 56  1  0
  1 57  1  0
  2  3  1  0
  2  4  2  3
  3 58  1  0
  3 59  1  0
  3 60  1  0
  4  5  1  0
  4 61  1  0
  5 51  1  0
  5  6  1  0
  5 62  1  6
  6  7  1  0
  6 63  1  0
  6 64  1  0
  7  8  1  0
  7  9  1  6
  7 10  1  0
  8 65  1  0
  8 66  1  0
  8 67  1  0
  9 68  1  0
 10 49  1  0
 10 11  1  1
 10 12  1  0
 11 69  1  0
 12 13  1  0
 12 70  1  0
 12 71  1  0
 13 14  1  0
 14 15  1  0
 14 72  1  0
 14 73  1  0
 15 48  1  0
 15 16  1  0
 15 74  1  6
 16 23  1  0
 16 17  1  0
 16 75  1  1
 17 18  1  0
 17 76  1  0
 17 77  1  0
 18 19  1  0
 18 78  1  0
 18 79  1  0
 19 54  1  0
 19 20  1  6
 19 21  1  0
 20 80  1  0
 20 81  1  0
 20 82  1  0
 21 22  1  0
 23 22  1  6
 23 28  1  0
 23 24  1  0
 24 25  1  0
 24 54  1  0
 24 83  1  1
 26 25  1  6
 26 27  2  0
 26 28  1  0
 28 29  1  0
 28 84  1  1
 30 29  1  6
 29 85  1  0
 29 86  1  0
 30 48  1  0
 30 31  1  0
 30 49  1  0
 31 32  2  0
 31 33  1  0
 33 34  1  0
 33 35  1  0
 33 36  1  0
 34 87  1  0
 34 88  1  0
 34 89  1  0
 35 90  1  0
 35 91  1  0
 35 92  1  0
 36 45  1  0
 36 37  1  1
 36 47  1  0
 37 38  1  0
 38 39  1  0
 38 41  1  0
 38 93  1  1
 39 40  1  0
 39 94  1  0
 39 95  1  0
 40 96  1  0
 41 42  1  0
 41 43  1  0
 41 97  1  1
 42 98  1  0
 43 44  1  0
 43 45  1  0
 43 99  1  1
 44100  1  0
 45 46  1  0
 45101  1  6
 46102  1  0
 47 48  1  0
 48103  1  1
 49 50  1  1
 49 51  1  0
 50104  1  0
 51 53  1  1
 51 52  1  0
 52 53  1  0
 52105  1  0
 52106  1  0
M  END
>  <i_m_ct_stereo_status>  (154) 
1

>  <s_m_source_file>  (154) 
/var/tmp/pbs.5075288.sched01/tmp4tfr24xl/130i3iej58d.sdf

>  <i_m_source_file_index>  (154) 
53

>  <i_lp_mmshare_version>  (154) 
48012

>  <i_f3d_flags>  (154) 
0

>  <s_epik_input>  (154) 
W0NIMl0xT1tDSDJdW0NAXTIoW09IXSlbQ0BdKFtDSDNdKShbT0hdKVtDSDJdW0NAQEhdKFtDSF09QyhbQ0gzXSlbQ0gzXSlbQ0BdMyhbQ0gyXU8zKVtDQF0yKFtPSF0pW0NAQF0oW0NASF00W0NAQEhdMVtDQEhdNVtDQEBdNjc4KShbQ0gyXVtDQEBIXThbUytdKFtPLV0pT1tDQEhdN09bQ0BAXShbQ0gzXSkoT082KVtDSDJdW0NIMl01KUMoPU8pQyhbQ0gzXSkoW0NIM10pW0NAXTkoTzQpT1tDQEBIXShbQ0gyXVtPSF0pW0NAQEhdKFtPSF0pW0NAQEhdKFtPSF0pW0NASF05W09IXQ==

>  <s_epik_cmdline>  (154) 
J2VwaWtfcHl0aG9uJywgJy1waHQnLCAnMi4wJywgJy1waCcsICc3LjAnLCAnLXRuJywgJzgnLCAnLW1hJywgJzIwMCcsICctaW1hZScsICc8aW5maWxlLm1hZT4nLCAnLW9tYWUnLCAnPG91dGZpbGUubWFlPic=

>  <r_lp_tautomer_probability>  (154) 
1

>  <r_epik_Ionization_Penalty>  (154) 
1.04673e-05

>  <r_epik_Ionization_Penalty_Charging>  (154) 
0

>  <r_epik_Ionization_Penalty_Neutral>  (154) 
1.04673e-05

>  <r_epik_State_Penalty>  (154) 
-0

>  <r_epik_Charging_Adjusted_Penalty>  (154) 
0

>  <i_epik_Tot_Q>  (154) 
0

>  <i_epik_Tot_abs_Q>  (154) 
2

>  <s_epik_Chemistry_Notes>  (154) 
This compound contains an acetal/aminal-like group ( X-CH(R)-Y where X, Y are N, S, or O) that may be acid/base labile, releasing an aldehyde.

>  <s_lp_Force_Field>  (154) 
OPLS3e

>  <r_lp_Energy>  (154) 
122.196

>  <b_lp_Chiralities_Consistent>  (154) 
1

>  <s_lp_Variant>  (154) 
70:0-1

>  <s_i_glide_gridfile>  (154) 
pfpi4k_grid

>  <i_i_glide_lignum>  (154) 
53

>  <i_i_glide_rotatable_bonds>  (154) 
9

>  <r_i_docking_score>  (154) 
-1.99119

>  <r_i_glide_ligand_efficiency>  (154) 
-0.036874

>  <r_i_glide_ligand_efficiency_sa>  (154) 
-0.139375

>  <r_i_glide_ligand_efficiency_ln>  (154) 
-0.399118

>  <r_i_glide_gscore>  (154) 
-1.99119

>  <r_i_glide_lipo>  (154) 
-0.0987254

>  <r_i_glide_hbond>  (154) 
-0.161897

>  <r_i_glide_metal>  (154) 
-0

>  <r_i_glide_rewards>  (154) 
-0.0524528

>  <r_i_glide_evdw>  (154) 
-19.3214

>  <r_i_glide_ecoul>  (154) 
-4.97153

>  <r_i_glide_erotb>  (154) 
0.0698826

>  <r_i_glide_esite>  (154) 
-0.0362042

>  <r_i_glide_emodel>  (154) 
-26.2734

>  <r_i_glide_energy>  (154) 
-24.2929

>  <r_i_glide_einternal>  (154) 
0.189215

>  <r_i_glide_intrahb_reward>  (154) 
-0

>  <i_i_glide_confnum>  (154) 
3

>  <i_i_glide_posenum>  (154) 
12

>  <r_i_glide_eff_state_penalty>  (154) 
0

>  <ligand_id>  (154) 
70

>  <original_smiles>  (154) 
CC(C)=CC1CC(C)(O)C2(O)COCC3C4CCC5(C)OOC46C(O[S+]([O-])C6CC4(C(=O)C(C)(C)C6(OC(CO)C(O)C(O)C6O)OC34)C2(O)C12CO2)O5

>  <smiles>  (154) 
[H]OC([H])([H])C1([H])OC2(OC3([H])C4([H])C([H])([H])OC([H])([H])C5(O[H])C(O[H])(C([H])([H])[H])C([H])([H])C([H])(C([H])=C(C([H])([H])[H])C([H])([H])[H])C6(OC6([H])[H])C5(O[H])C3(C(=O)C2(C([H])([H])[H])C([H])([H])[H])C([H])([H])C2([H])S(=O)OC3([H])OC5(C([H])([H])[H])OOC32C4([H])C([H])([H])C5([H])[H])C([H])(O[H])C([H])(O[H])C1([H])O[H]

$$$$
72:0:0
     RDKit          3D

118126  0  0  1  0  0  0  0  0999 V2000
   -1.4120    5.0232    8.0574 C   0  0  0  0  0  0  0  0  0  0  0  0
   -1.2908    3.9330    6.9838 C   0  0  2  0  0  0  0  0  0  0  0  0
   -1.9827    2.6107    7.3434 C   0  0  0  0  0  0  0  0  0  0  0  0
   -1.0534    1.6932    8.1412 C   0  0  0  0  0  0  0  0  0  0  0  0
    0.3821    1.5218    7.5386 C   0  0  2  0  0  0  0  0  0  0  0  0
    0.8997    3.0291    7.5270 C   0  0  2  0  0  0  0  0  0  0  0  0
    0.0732    3.7397    6.6082 O   0  0  0  0  0  0  0  0  0  0  0  0
    2.3808    3.5354    7.2975 C   0  0  1  0  0  0  0  0  0  0  0  0
    2.7324    4.1232    5.8977 C   0  0  0  0  0  0  0  0  0  0  0  0
    2.5603    5.4547    6.6111 C   0  0  0  0  0  0  0  0  0  0  0  0
    2.6001    6.6384    6.1977 O   0  0  0  0  0  0  0  0  0  0  0  0
    2.2354    4.9062    7.8160 O   0  0  0  0  0  0  0  0  0  0  0  0
    3.5445    2.9974    8.2466 C   0  0  1  0  0  0  0  0  0  0  0  0
    2.9873    2.3053    9.3594 O   0  0  0  0  0  0  0  0  0  0  0  0
    4.8333    2.1929    7.7129 C   0  0  1  0  0  0  0  0  0  0  0  0
    5.7556    2.9250    6.7029 C   0  0  0  0  0  0  0  0  0  0  0  0
    5.6829    2.3683    8.8313 O   0  0  0  0  0  0  0  0  0  0  0  0
    4.6197    0.6191    7.4573 C   0  0  2  0  0  0  0  0  0  0  0  0
    5.8941   -0.5650    8.1888 S   0  0  0  0  0  0  0  0  0  0  0  0
    6.7334    0.0590    9.3053 O   0  0  0  0  0  0  0  0  0  0  0  0
    4.7273   -1.7429    9.0650 C   0  0  0  0  0  0  0  0  0  0  0  0
    3.8273   -2.6819    8.1885 C   0  0  1  0  0  0  0  0  0  0  0  0
    3.0031   -3.3217    9.1422 O   0  0  0  0  0  0  0  0  0  0  0  0
    2.9941   -2.0881    6.9721 C   0  0  2  0  0  0  0  0  0  0  0  0
    2.3976   -0.9279    7.5683 O   0  0  0  0  0  0  0  0  0  0  0  0
    2.3008    0.1316    6.6306 C   0  0  2  0  0  0  0  0  0  0  0  0
    0.7172    0.4368    6.3190 C   0  0  2  0  0  0  0  0  0  0  0  0
   -0.0717    0.9111    4.9739 C   0  0  1  0  0  0  0  0  0  0  0  0
    0.4238    1.2683    3.5346 C   0  0  0  0  0  0  0  0  0  0  0  0
    1.1103    0.1161    2.8052 C   0  0  0  0  0  0  0  0  0  0  0  0
   -0.7202    1.6910    2.5751 C   0  0  0  0  0  0  0  0  0  0  0  0
    1.2102    2.3965    3.5957 O   0  0  0  0  0  0  0  0  0  0  0  0
   -1.3443    0.0588    4.8018 C   0  0  0  0  0  0  0  0  0  0  0  0
   -1.4934   -0.7257    6.0488 C   0  0  1  0  0  0  0  0  0  0  0  0
   -2.2926   -1.8572    5.7749 O   0  0  0  0  0  0  0  0  0  0  0  0
   -0.0640   -0.9464    6.5740 C   0  0  2  0  0  0  0  0  0  0  0  0
   -0.2150   -1.2192    7.9698 O   0  0  0  0  0  0  0  0  0  0  0  0
    0.5080   -2.2780    5.9479 C   0  0  1  0  0  0  0  0  0  0  0  0
    0.6204   -2.2457    4.5497 O   0  0  0  0  0  0  0  0  0  0  0  0
    1.7336   -2.9587    6.6061 C   0  0  1  0  0  0  0  0  0  0  0  0
    2.0125   -4.1771    5.9528 O   0  0  0  0  0  0  0  0  0  0  0  0
    3.8107    0.0459    6.1357 C   0  0  1  0  0  0  0  0  0  0  0  0
    4.2171    0.6980    4.8229 C   0  0  1  0  0  0  0  0  0  0  0  0
    3.5860    1.8631    4.4383 O   0  0  0  0  0  0  0  0  0  0  0  0
    5.5815    0.5408    4.2212 C   0  0  1  0  0  0  0  0  0  0  0  0
    6.5601    0.1089    5.1521 O   0  0  0  0  0  0  0  0  0  0  0  0
    4.4148   -0.3160    3.7108 C   0  0  2  0  0  0  0  0  0  0  0  0
    4.1436   -0.1053    2.2012 C   0  0  0  0  0  0  0  0  0  0  0  0
    3.9392   -1.6692    4.2700 C   0  0  1  0  0  0  0  0  0  0  0  0
    4.8410   -2.5922    3.5961 O   0  0  0  0  0  0  0  0  0  0  0  0
    4.5137   -3.9560    3.3024 C   0  0  0  0  0  0  0  0  0  0  0  0
    5.5758   -4.4199    2.2646 C   0  0  0  0  0  0  0  0  0  0  0  0
    4.7382   -4.7544    4.6094 C   0  0  0  0  0  0  0  0  0  0  0  0
    3.0564   -4.0629    2.7131 C   0  0  2  0  0  0  0  0  0  0  0  0
    2.5192   -5.4896    2.5698 C   0  0  0  0  0  0  0  0  0  0  0  0
    2.9811   -3.4815    1.4178 O   0  0  0  0  0  0  0  0  0  0  0  0
    3.9790   -1.5076    5.8532 C   0  0  2  0  0  0  0  0  0  0  0  0
    5.2432   -2.1494    5.9895 O   0  0  0  0  0  0  0  0  0  0  0  0
   -2.4542    5.2945    8.2141 H   0  0  0  0  0  0  0  0  0  0  0  0
   -0.8878    5.9249    7.7357 H   0  0  0  0  0  0  0  0  0  0  0  0
   -1.0067    4.7241    9.0260 H   0  0  0  0  0  0  0  0  0  0  0  0
   -1.7725    4.3049    6.0815 H   0  0  0  0  0  0  0  0  0  0  0  0
   -2.8866    2.8151    7.9143 H   0  0  0  0  0  0  0  0  0  0  0  0
   -2.3300    2.1233    6.4346 H   0  0  0  0  0  0  0  0  0  0  0  0
   -0.9454    2.1608    9.1148 H   0  0  0  0  0  0  0  0  0  0  0  0
   -1.5189    0.7678    8.4156 H   0  0  0  0  0  0  0  0  0  0  0  0
    0.8735    1.0915    8.4033 H   0  0  0  0  0  0  0  0  0  0  0  0
    0.6758    3.4473    8.5200 H   0  0  0  0  0  0  0  0  0  0  0  0
    3.7536    3.9963    5.5322 H   0  0  0  0  0  0  0  0  0  0  0  0
    1.9762    3.9144    5.1671 H   0  0  0  0  0  0  0  0  0  0  0  0
    3.9514    3.8895    8.7316 H   0  0  0  0  0  0  0  0  0  0  0  0
    2.5168    1.5466    9.0557 H   0  0  0  0  0  0  0  0  0  0  0  0
    5.4332    2.9578    5.6770 H   0  0  0  0  0  0  0  0  0  0  0  0
    6.7419    2.4370    6.6610 H   0  0  0  0  0  0  0  0  0  0  0  0
    5.9210    3.9695    7.0022 H   0  0  0  0  0  0  0  0  0  0  0  0
    5.3018    1.9227    9.5721 H   0  0  0  0  0  0  0  0  0  0  0  0
    3.9858    0.4409    8.3141 H   0  0  0  0  0  0  0  0  0  0  0  0
    5.3663   -2.3747    9.6773 H   0  0  0  0  0  0  0  0  0  0  0  0
    4.1342   -1.1701    9.7789 H   0  0  0  0  0  0  0  0  0  0  0  0
    4.4356   -3.4981    7.8093 H   0  0  0  0  0  0  0  0  0  0  0  0
    2.5223   -2.6571    9.6046 H   0  0  0  0  0  0  0  0  0  0  0  0
    2.4800    1.0728    7.0912 H   0  0  0  0  0  0  0  0  0  0  0  0
   -0.4615    1.8685    5.2683 H   0  0  0  0  0  0  0  0  0  0  0  0
    0.4877   -0.7695    2.6412 H   0  0  0  0  0  0  0  0  0  0  0  0
    1.9492   -0.0969    3.4385 H   0  0  0  0  0  0  0  0  0  0  0  0
    1.4197    0.4195    1.8112 H   0  0  0  0  0  0  0  0  0  0  0  0
   -1.2418    0.8220    2.1477 H   0  0  0  0  0  0  0  0  0  0  0  0
   -0.2708    2.1959    1.7191 H   0  0  0  0  0  0  0  0  0  0  0  0
   -1.4399    2.3614    3.0546 H   0  0  0  0  0  0  0  0  0  0  0  0
    1.5184    2.5619    2.7335 H   0  0  0  0  0  0  0  0  0  0  0  0
   -2.2334    0.6721    4.6516 H   0  0  0  0  0  0  0  0  0  0  0  0
   -1.3042   -0.6190    3.9460 H   0  0  0  0  0  0  0  0  0  0  0  0
   -2.0882   -0.1028    6.6952 H   0  0  0  0  0  0  0  0  0  0  0  0
   -1.7873   -2.4449    5.2397 H   0  0  0  0  0  0  0  0  0  0  0  0
    0.7188   -1.2935    8.2828 H   0  0  0  0  0  0  0  0  0  0  0  0
   -0.2499   -3.0503    6.0989 H   0  0  0  0  0  0  0  0  0  0  0  0
    1.2326   -1.5612    4.3170 H   0  0  0  0  0  0  0  0  0  0  0  0
    1.2953   -3.2883    7.5481 H   0  0  0  0  0  0  0  0  0  0  0  0
    2.3957   -3.9763    5.1050 H   0  0  0  0  0  0  0  0  0  0  0  0
    3.8735    2.0554    3.5539 H   0  0  0  0  0  0  0  0  0  0  0  0
    5.9673    1.3242    3.6051 H   0  0  0  0  0  0  0  0  0  0  0  0
    7.0708    0.8609    5.3734 H   0  0  0  0  0  0  0  0  0  0  0  0
    5.0609   -0.2432    1.6159 H   0  0  0  0  0  0  0  0  0  0  0  0
    3.7974    0.9159    2.0159 H   0  0  0  0  0  0  0  0  0  0  0  0
    3.3805   -0.7770    1.8027 H   0  0  0  0  0  0  0  0  0  0  0  0
    2.9319   -1.8183    3.9374 H   0  0  0  0  0  0  0  0  0  0  0  0
    5.5904   -5.5156    2.2031 H   0  0  0  0  0  0  0  0  0  0  0  0
    6.5788   -4.1048    2.5558 H   0  0  0  0  0  0  0  0  0  0  0  0
    5.4305   -4.0273    1.2476 H   0  0  0  0  0  0  0  0  0  0  0  0
    4.4159   -5.7920    4.5096 H   0  0  0  0  0  0  0  0  0  0  0  0
    4.1992   -4.3206    5.4473 H   0  0  0  0  0  0  0  0  0  0  0  0
    5.8067   -4.7777    4.8592 H   0  0  0  0  0  0  0  0  0  0  0  0
    2.3135   -3.5666    3.3286 H   0  0  0  0  0  0  0  0  0  0  0  0
    2.4021   -5.9480    3.5548 H   0  0  0  0  0  0  0  0  0  0  0  0
    3.1602   -6.1313    1.9559 H   0  0  0  0  0  0  0  0  0  0  0  0
    1.5180   -5.4619    2.1293 H   0  0  0  0  0  0  0  0  0  0  0  0
    3.6813   -3.8198    0.8795 H   0  0  0  0  0  0  0  0  0  0  0  0
    5.5875   -1.9921    6.8506 H   0  0  0  0  0  0  0  0  0  0  0  0
  1  2  1  0
  1 59  1  0
  1 60  1  0
  1 61  1  0
  2  7  1  0
  2  3  1  0
  2 62  1  6
  3  4  1  0
  3 63  1  0
  3 64  1  0
  4  5  1  0
  4 65  1  0
  4 66  1  0
  5 27  1  0
  5  6  1  0
  5 67  1  1
  6  7  1  0
  6  8  1  0
  6 68  1  1
  8 12  1  1
  8  9  1  0
  8 13  1  0
  9 10  1  0
  9 69  1  0
  9 70  1  0
 10 11  2  0
 10 12  1  0
 13 14  1  0
 13 15  1  0
 13 71  1  1
 14 72  1  0
 15 16  1  0
 15 17  1  1
 15 18  1  0
 16 73  1  0
 16 74  1  0
 16 75  1  0
 17 76  1  0
 18 42  1  0
 18 19  1  0
 18 77  1  1
 19 20  2  0
 19 21  1  1
 21 22  1  0
 21 78  1  0
 21 79  1  0
 22 23  1  0
 22 24  1  0
 22 80  1  6
 23 81  1  0
 24 40  1  0
 24 57  1  0
 24 25  1  1
 25 26  1  0
 26 27  1  0
 26 42  1  0
 26 82  1  1
 27 36  1  1
 27 28  1  0
 28 29  1  0
 28 33  1  0
 28 83  1  1
 29 30  1  0
 29 31  1  0
 29 32  1  0
 30 84  1  0
 30 85  1  0
 30 86  1  0
 31 87  1  0
 31 88  1  0
 31 89  1  0
 32 90  1  0
 33 34  1  0
 33 91  1  0
 33 92  1  0
 34 35  1  0
 34 36  1  0
 34 93  1  1
 35 94  1  0
 36 37  1  1
 36 38  1  0
 37 95  1  0
 38 39  1  0
 38 40  1  0
 38 96  1  6
 39 97  1  0
 40 41  1  0
 40 98  1  1
 41 99  1  0
 42 57  1  0
 42 43  1  6
 43 47  1  0
 43 44  1  6
 43 45  1  0
 44100  1  0
 45 46  1  0
 45 47  1  0
 45101  1  6
 46102  1  0
 47 48  1  6
 47 49  1  0
 48103  1  0
 48104  1  0
 48105  1  0
 49 50  1  0
 49 57  1  0
 49106  1  6
 50 51  1  0
 51 52  1  0
 51 53  1  0
 51 54  1  0
 52107  1  0
 52108  1  0
 52109  1  0
 53110  1  0
 53111  1  0
 53112  1  0
 54 55  1  0
 54 56  1  0
 54113  1  1
 55114  1  0
 55115  1  0
 55116  1  0
 56117  1  0
 57 58  1  1
 58118  1  0
M  END
>  <i_m_ct_stereo_status>  (155) 
1

>  <s_m_source_file>  (155) 
/var/tmp/pbs.5075288.sched01/tmp4tfr24xl/130i3iej58d.sdf

>  <i_m_source_file_index>  (155) 
54

>  <i_lp_mmshare_version>  (155) 
48012

>  <i_f3d_flags>  (155) 
2

>  <s_epik_input>  (155) 
Tz1DKE8xKVtDSDJdW0NAXTEyW0NAQEhdM1tDQEhdKFtDSDJdW0NIMl1bQ0BIXShPMylbQ0gzXSlbQ0BdNDVbQ0hdNltDQF03OFtDQEhdKFtDQF0oW0NIM10pKFtPSF0pW0NAQEhdMltPSF0pW1MrXShbTy1dKVtDSDJdW0NAQEhdKFtPSF0pW0NAQF0oTzYpKFtDQF04KFtPSF0pW0NAQEhdKFtDQF05KFtDSDNdKVtDQF03KFtPSF0pW0NASF05W09IXSlPQyhbQ0gzXSkoW0NIM10pW0NASF0oW0NIM10pW09IXSlbQ0BIXShbT0hdKVtDQEhdKFtPSF0pW0NAXTUoW09IXSlbQ0BIXShbT0hdKVtDSDJdW0NAQEhdNEMoW0NIM10pKFtDSDNdKVtPSF0=

>  <s_epik_cmdline>  (155) 
J2VwaWtfcHl0aG9uJywgJy1waHQnLCAnMi4wJywgJy1waCcsICc3LjAnLCAnLXRuJywgJzgnLCAnLW1hJywgJzIwMCcsICctaW1hZScsICc8aW5maWxlLm1hZT4nLCAnLW9tYWUnLCAnPG91dGZpbGUubWFlPic=

>  <r_lp_tautomer_probability>  (155) 
1

>  <r_epik_Ionization_Penalty>  (155) 
1.03462e-06

>  <r_epik_Ionization_Penalty_Charging>  (155) 
0

>  <r_epik_Ionization_Penalty_Neutral>  (155) 
1.03462e-06

>  <r_epik_State_Penalty>  (155) 
-0

>  <r_epik_Charging_Adjusted_Penalty>  (155) 
0

>  <i_epik_Tot_Q>  (155) 
0

>  <i_epik_Tot_abs_Q>  (155) 
2

>  <s_epik_Chemistry_Notes>  (155) 
This compound has an ester and may undergo hydrolysis at high or low pH.

>  <s_lp_Force_Field>  (155) 
OPLS3e

>  <r_lp_Energy>  (155) 
275.16

>  <b_lp_Chiralities_Consistent>  (155) 
0

>  <s_lp_Variant>  (155) 
72:0-1

>  <s_i_glide_gridfile>  (155) 
pfpi4k_grid

>  <i_i_glide_lignum>  (155) 
54

>  <i_i_glide_rotatable_bonds>  (155) 
16

>  <r_i_docking_score>  (155) 
-2.11186

>  <r_i_glide_ligand_efficiency>  (155) 
-0.0364114

>  <r_i_glide_ligand_efficiency_sa>  (155) 
-0.140944

>  <r_i_glide_ligand_efficiency_ln>  (155) 
-0.417328

>  <r_i_glide_gscore>  (155) 
-2.11186

>  <r_i_glide_lipo>  (155) 
-0.339818

>  <r_i_glide_hbond>  (155) 
0

>  <r_i_glide_metal>  (155) 
-0

>  <r_i_glide_rewards>  (155) 
-0.500985

>  <r_i_glide_evdw>  (155) 
-21.4688

>  <r_i_glide_ecoul>  (155) 
-5.99997

>  <r_i_glide_erotb>  (155) 
0.121647

>  <r_i_glide_esite>  (155) 
0

>  <r_i_glide_emodel>  (155) 
-27.0905

>  <r_i_glide_energy>  (155) 
-27.4687

>  <r_i_glide_einternal>  (155) 
4.01776

>  <r_i_glide_intrahb_reward>  (155) 
-0.5

>  <i_i_glide_confnum>  (155) 
3

>  <i_i_glide_posenum>  (155) 
7

>  <r_i_glide_eff_state_penalty>  (155) 
0

>  <ligand_id>  (155) 
72

>  <original_smiles>  (155) 
CC1CCC2C(O1)C1(CC(=O)O1)C(O)C(C)(O)C1[S+]([O-])CC(O)C34OC(C25C(C(C)(C)O)CC(O)C5(O)C(O)C3O)C12C1(O)C(O)C1(C)C(OC(C)(C)C(C)O)C42O

>  <smiles>  (155) 
[H]OC([H])(C([H])([H])[H])C(OC1([H])C2(O[H])C34OC5([H])C6(C7([H])C([H])([H])C([H])([H])C([H])(C([H])([H])[H])OC7([H])C7(OC(=O)C7([H])[H])C([H])(O[H])C(O[H])(C([H])([H])[H])C([H])(S(=O)C([H])([H])C3([H])O[H])C52C2(O[H])C([H])(O[H])C12C([H])([H])[H])C([H])(C(O[H])(C([H])([H])[H])C([H])([H])[H])C([H])([H])C([H])(O[H])C6(O[H])C([H])(O[H])C4([H])O[H])(C([H])([H])[H])C([H])([H])[H]

$$$$
75:0:0
     RDKit          3D

 80 88  0  0  1  0  0  0  0  0999 V2000
    2.4083    3.4315    7.2928 C   0  0  0  0  0  0  0  0  0  0  0  0
    2.3061    2.1721    6.6401 O   0  0  0  0  0  0  0  0  0  0  0  0
    1.0653    1.4862    6.7455 C   0  0  2  0  0  0  0  0  0  0  0  0
   -0.0755    2.1157    5.8384 C   0  0  0  0  0  0  0  0  0  0  0  0
    0.1071    2.8265    4.4214 C   0  0  2  0  0  0  0  0  0  0  0  0
    1.1608    3.8231    4.3847 O   0  0  0  0  0  0  0  0  0  0  0  0
    1.1046    5.0428    4.9592 C   0  0  0  0  0  0  0  0  0  0  0  0
    2.4078    5.8107    4.7960 C   0  0  0  0  0  0  0  0  0  0  0  0
    0.1266    5.5364    5.5226 O   0  0  0  0  0  0  0  0  0  0  0  0
   -1.2834    3.3952    3.9330 C   0  0  1  0  0  0  0  0  0  0  0  0
   -1.3845    4.6345    3.2457 O   0  0  0  0  0  0  0  0  0  0  0  0
   -1.4446    2.1907    3.0268 C   0  0  0  0  0  0  0  0  0  0  0  0
    0.0782    2.1619    2.9743 C   0  0  2  0  0  0  0  0  0  0  0  0
    0.7413    0.9557    2.3117 C   0  0  2  0  0  0  0  0  0  0  0  0
    0.2263   -0.2505    2.8213 O   0  0  0  0  0  0  0  0  0  0  0  0
    1.6546   -0.1517    2.8529 C   0  0  2  0  0  0  0  0  0  0  0  0
    2.3004   -0.0992    4.2159 C   0  0  2  0  0  0  0  0  0  0  0  0
    2.6034    1.2679    4.2687 O   0  0  0  0  0  0  0  0  0  0  0  0
    3.7137   -0.7098    4.2641 C   0  0  0  0  0  0  0  0  0  0  0  0
    4.5168   -0.5452    5.6194 C   0  0  1  0  0  0  0  0  0  0  0  0
    4.7482    0.7893    6.0339 O   0  0  0  0  0  0  0  0  0  0  0  0
    5.9968    1.3112    6.1368 C   0  0  0  0  0  0  0  0  0  0  0  0
    7.0505    0.7136    5.9080 O   0  0  0  0  0  0  0  0  0  0  0  0
    5.9565    2.7646    6.5693 C   0  0  0  0  0  0  0  0  0  0  0  0
    7.1224    3.6746    6.2082 C   0  0  0  0  0  0  0  0  0  0  0  0
    6.9447    3.2257    7.6262 C   0  0  0  0  0  0  0  0  0  0  0  0
    4.2159   -1.4444    6.8317 C   0  0  0  0  0  0  0  0  0  0  0  0
    5.2922   -2.4487    7.2221 C   0  0  2  0  0  0  0  0  0  0  0  0
    5.5410   -3.5747    6.2574 C   0  0  0  0  0  0  0  0  0  0  0  0
    4.8084   -3.9239    5.1396 C   0  0  0  0  0  0  0  0  0  0  0  0
    5.4151   -4.9879    4.4005 C   0  0  0  0  0  0  0  0  0  0  0  0
    6.5075   -5.5577    5.0025 C   0  0  0  0  0  0  0  0  0  0  0  0
    6.8864   -4.6821    6.4705 S   0  0  0  0  0  0  0  0  0  0  0  0
    4.7774   -3.0274    8.4034 O   0  0  0  0  0  0  0  0  0  0  0  0
    3.5999   -2.5263    8.7424 C   0  0  0  0  0  0  0  0  0  0  0  0
    2.9540   -2.8963    9.7235 O   0  0  0  0  0  0  0  0  0  0  0  0
    3.2229   -1.4699    7.7452 C   0  0  0  0  0  0  0  0  0  0  0  0
    1.8375   -0.7498    7.8827 C   0  0  1  0  0  0  0  0  0  0  0  0
    0.8698   -1.7397    8.2723 O   0  0  0  0  0  0  0  0  0  0  0  0
    1.7018    0.2746    9.0657 C   0  0  1  0  0  0  0  0  0  0  0  0
    2.8991    0.8279    9.3080 O   0  0  0  0  0  0  0  0  0  0  0  0
    0.4940    1.5380    8.5028 S   0  0  0  0  0  0  0  0  0  0  0  0
   -0.9378    0.8930    8.5513 O   0  0  0  0  0  0  0  0  0  0  0  0
    1.1972   -0.0767    6.6122 C   0  0  2  0  0  0  0  0  0  0  0  0
    1.3949   -0.7789    5.2849 C   0  0  1  0  0  0  0  0  0  0  0  0
    0.3996   -1.9230    4.9110 C   0  0  0  0  0  0  0  0  0  0  0  0
    1.6498   -2.1922    5.4614 O   0  0  0  0  0  0  0  0  0  0  0  0
    3.0917    4.0182    6.6810 H   0  0  0  0  0  0  0  0  0  0  0  0
    2.8250    3.3463    8.3008 H   0  0  0  0  0  0  0  0  0  0  0  0
    1.4407    3.9308    7.3049 H   0  0  0  0  0  0  0  0  0  0  0  0
   -0.8709    1.3748    5.7489 H   0  0  0  0  0  0  0  0  0  0  0  0
   -0.5526    2.8695    6.4641 H   0  0  0  0  0  0  0  0  0  0  0  0
    3.2339    5.1089    4.7357 H   0  0  0  0  0  0  0  0  0  0  0  0
    2.5548    6.4165    5.6821 H   0  0  0  0  0  0  0  0  0  0  0  0
    2.4487    6.4652    3.9155 H   0  0  0  0  0  0  0  0  0  0  0  0
   -2.0263    3.3738    4.7383 H   0  0  0  0  0  0  0  0  0  0  0  0
   -0.7802    4.6053    2.5079 H   0  0  0  0  0  0  0  0  0  0  0  0
   -1.8748    1.3237    3.5348 H   0  0  0  0  0  0  0  0  0  0  0  0
   -1.9362    2.4378    2.0876 H   0  0  0  0  0  0  0  0  0  0  0  0
    0.4214    2.9793    2.3461 H   0  0  0  0  0  0  0  0  0  0  0  0
    0.7050    1.0199    1.2152 H   0  0  0  0  0  0  0  0  0  0  0  0
    2.1452   -0.8121    2.1402 H   0  0  0  0  0  0  0  0  0  0  0  0
    3.1351    1.5080    3.5300 H   0  0  0  0  0  0  0  0  0  0  0  0
    3.6447   -1.7327    3.9410 H   0  0  0  0  0  0  0  0  0  0  0  0
    4.3327   -0.1805    3.5113 H   0  0  0  0  0  0  0  0  0  0  0  0
    5.4735   -0.9472    5.3212 H   0  0  0  0  0  0  0  0  0  0  0  0
    4.9686    3.2252    6.6115 H   0  0  0  0  0  0  0  0  0  0  0  0
    7.9564    3.2523    5.6448 H   0  0  0  0  0  0  0  0  0  0  0  0
    6.8655    4.7051    5.9773 H   0  0  0  0  0  0  0  0  0  0  0  0
    6.5766    3.9655    8.3327 H   0  0  0  0  0  0  0  0  0  0  0  0
    7.6505    2.4987    8.0252 H   0  0  0  0  0  0  0  0  0  0  0  0
    3.8846   -3.4644    4.8163 H   0  0  0  0  0  0  0  0  0  0  0  0
    5.0021   -5.3150    3.4606 H   0  0  0  0  0  0  0  0  0  0  0  0
    7.0855   -6.4119    4.6994 H   0  0  0  0  0  0  0  0  0  0  0  0
    6.1894   -1.8973    7.4416 H   0  0  0  0  0  0  0  0  0  0  0  0
    1.1956   -2.1140    9.0797 H   0  0  0  0  0  0  0  0  0  0  0  0
    1.1921   -0.1542    9.9079 H   0  0  0  0  0  0  0  0  0  0  0  0
    0.1369   -0.2950    6.7602 H   0  0  0  0  0  0  0  0  0  0  0  0
   -0.4483   -2.1206    5.5698 H   0  0  0  0  0  0  0  0  0  0  0  0
    0.3090   -2.3719    3.9145 H   0  0  0  0  0  0  0  0  0  0  0  0
  1  2  1  0
  1 48  1  0
  1 49  1  0
  1 50  1  0
  3  2  1  1
 42  3  1  6
  3 44  1  0
  3  4  1  0
  4  5  1  0
  4 51  1  0
  4 52  1  0
  5 13  1  0
  5  6  1  1
  5 10  1  0
  6  7  1  0
  7  8  1  0
  7  9  2  0
  8 53  1  0
  8 54  1  0
  8 55  1  0
 10 11  1  0
 10 12  1  0
 10 56  1  1
 11 57  1  0
 12 13  1  0
 12 58  1  0
 12 59  1  0
 13 14  1  0
 13 60  1  6
 14 16  1  0
 14 15  1  0
 14 61  1  6
 15 16  1  0
 16 17  1  0
 16 62  1  6
 17 45  1  0
 17 18  1  1
 17 19  1  0
 18 63  1  0
 19 20  1  0
 19 64  1  0
 19 65  1  0
 20 21  1  0
 20 66  1  6
 20 27  1  0
 21 22  1  0
 22 23  2  0
 22 24  1  0
 24 26  1  0
 24 25  1  0
 24 67  1  0
 25 26  1  0
 25 68  1  0
 25 69  1  0
 26 70  1  0
 26 71  1  0
 27 37  2  0
 27 28  1  0
 28 34  1  0
 28 29  1  0
 28 75  1  1
 29 33  1  0
 29 30  2  0
 30 31  1  0
 30 72  1  0
 31 32  2  0
 31 73  1  0
 32 33  1  0
 32 74  1  0
 34 35  1  0
 35 37  1  0
 35 36  2  0
 37 38  1  0
 38 39  1  1
 38 40  1  0
 38 44  1  0
 39 76  1  0
 40 41  1  0
 40 42  1  0
 40 77  1  1
 42 43  2  0
 44 45  1  0
 44 78  1  1
 45 47  1  1
 45 46  1  0
 46 47  1  0
 46 79  1  0
 46 80  1  0
M  CHG  1  41  -1
M  END
>  <i_m_ct_stereo_status>  (156) 
1

>  <s_m_source_file>  (156) 
/var/tmp/pbs.5075288.sched01/tmp4tfr24xl/130i3iej58d.sdf

>  <i_m_source_file_index>  (156) 
58

>  <i_lp_mmshare_version>  (156) 
48012

>  <i_f3d_flags>  (156) 
0

>  <s_epik_input>  (156) 
TzFbQ0gyXUMxMltDQF0zKFtPSF0pW0NAQEhdNFtDQEBIXShPNClbQ0BASF01W0NAXShbQ0BASF0oW09IXSlbQ0gyXTUpKE9DKD1PKVtDSDNdKVtDSDJdW0NAXTYoT1tDSDNdKVtDQEBIXTJbQ0BdKFtPSF0pKFtDQEBIXShbT0hdKVtTK102W08tXSljN2MoYyhvYzdbT0hdKS1jOFtjSF1bY0hdW2NIXXM4KVtDQEBIXShbQ0gyXTMpT0MoPU8pW0NIXTlbQ0gyXVtDSDJdOQ==

>  <s_epik_cmdline>  (156) 
J2VwaWtfcHl0aG9uJywgJy1waHQnLCAnMi4wJywgJy1waCcsICc3LjAnLCAnLXRuJywgJzgnLCAnLW1hJywgJzIwMCcsICctaW1hZScsICc8aW5maWxlLm1hZT4nLCAnLW9tYWUnLCAnPG91dGZpbGUubWFlPic=

>  <r_lp_tautomer_probability>  (156) 
0.999841

>  <r_epik_Ionization_Penalty>  (156) 
0.0397111

>  <r_epik_Ionization_Penalty_Charging>  (156) 
0.0389454

>  <r_epik_Ionization_Penalty_Neutral>  (156) 
0.000765736

>  <r_epik_State_Penalty>  (156) 
0.0704439

>  <r_epik_Charging_Adjusted_Penalty>  (156) 
0.109389

>  <i_epik_Tot_Q>  (156) 
-1

>  <i_epik_Tot_abs_Q>  (156) 
1

>  <s_epik_Chemistry_Notes>  (156) 
This compound has an ester and may undergo hydrolysis at high or low pH. This compound contains an acetal/aminal-like group ( X-CH(R)-Y where X, Y are N, S, or O) that may be acid/base labile, releasing an aldehyde.

>  <s_lp_Force_Field>  (156) 
OPLS3e

>  <r_lp_Energy>  (156) 
113.059

>  <b_lp_Chiralities_Consistent>  (156) 
1

>  <s_lp_Variant>  (156) 
75:0-1

>  <s_i_glide_gridfile>  (156) 
pfpi4k_grid

>  <i_i_glide_lignum>  (156) 
58

>  <i_i_glide_rotatable_bonds>  (156) 
10

>  <r_i_docking_score>  (156) 
-3.32868

>  <r_i_glide_ligand_efficiency>  (156) 
-0.070823

>  <r_i_glide_ligand_efficiency_sa>  (156) 
-0.255588

>  <r_i_glide_ligand_efficiency_ln>  (156) 
-0.686306

>  <r_i_glide_gscore>  (156) 
-3.32868

>  <r_i_glide_lipo>  (156) 
-0.145766

>  <r_i_glide_hbond>  (156) 
-0.0131075

>  <r_i_glide_metal>  (156) 
-0

>  <r_i_glide_rewards>  (156) 
-0.572444

>  <r_i_glide_evdw>  (156) 
-24.7796

>  <r_i_glide_ecoul>  (156) 
-9.25976

>  <r_i_glide_erotb>  (156) 
0.0500867

>  <r_i_glide_esite>  (156) 
-0.0195061

>  <r_i_glide_emodel>  (156) 
-45.3457

>  <r_i_glide_energy>  (156) 
-34.0394

>  <r_i_glide_einternal>  (156) 
1.38845

>  <r_i_glide_intrahb_reward>  (156) 
-0.5

>  <i_i_glide_confnum>  (156) 
3

>  <i_i_glide_posenum>  (156) 
25

>  <r_i_glide_eff_state_penalty>  (156) 
0

>  <ligand_id>  (156) 
75

>  <original_smiles>  (156) 
COC12CC3(OC(C)=O)C(O)CC3C3OC3C3(O)CC(OC(=O)C4CC4)c4c(-c5cccs5)oc(O)c4C(O)(C(O)[S+]1[O-])C2C31CO1

>  <smiles>  (156) 
[H]OC1([H])C([H])([H])C2([H])C3([H])OC3([H])C3(O[H])C([H])([H])C([H])(OC(=O)C4([H])C([H])([H])C4([H])[H])C4=C(C(=O)OC4([H])c4sc([H])c([H])c4[H])C4(O[H])C([H])([O-])S(=O)C(OC([H])([H])[H])(C([H])([H])C12OC(=O)C([H])([H])[H])C4([H])C31OC1([H])[H]

$$$$
75:0:1
     RDKit          3D

 80 88  0  0  1  0  0  0  0  0999 V2000
    1.8946    3.7939    7.5019 C   0  0  0  0  0  0  0  0  0  0  0  0
    1.8407    2.4927    6.9399 O   0  0  0  0  0  0  0  0  0  0  0  0
    0.5933    1.8230    7.0202 C   0  0  2  0  0  0  0  0  0  0  0  0
   -0.4715    2.3907    5.9887 C   0  0  0  0  0  0  0  0  0  0  0  0
   -0.1880    2.9931    4.5416 C   0  0  2  0  0  0  0  0  0  0  0  0
    0.8715    3.9762    4.5116 O   0  0  0  0  0  0  0  0  0  0  0  0
    0.7942    5.2414    4.9914 C   0  0  0  0  0  0  0  0  0  0  0  0
    2.1015    6.0013    4.8427 C   0  0  0  0  0  0  0  0  0  0  0  0
   -0.1946    5.7738    5.4841 O   0  0  0  0  0  0  0  0  0  0  0  0
   -1.5411    3.5377    3.9337 C   0  0  1  0  0  0  0  0  0  0  0  0
   -1.5756    4.7460    3.1867 O   0  0  0  0  0  0  0  0  0  0  0  0
   -1.6418    2.2818    3.0868 C   0  0  0  0  0  0  0  0  0  0  0  0
   -0.1173    2.2354    3.1503 C   0  0  2  0  0  0  0  0  0  0  0  0
    0.5711    0.9682    2.6272 C   0  0  2  0  0  0  0  0  0  0  0  0
    0.0360   -0.2098    3.1947 O   0  0  0  0  0  0  0  0  0  0  0  0
    1.4459   -0.1245    3.2964 C   0  0  2  0  0  0  0  0  0  0  0  0
    1.9930   -0.0076    4.7065 C   0  0  2  0  0  0  0  0  0  0  0  0
    2.3123    1.3812    4.6994 O   0  0  0  0  0  0  0  0  0  0  0  0
    3.3969   -0.6158    4.9376 C   0  0  0  0  0  0  0  0  0  0  0  0
    4.1025   -0.3088    6.2955 C   0  0  1  0  0  0  0  0  0  0  0  0
    4.3023    1.0610    6.6170 O   0  0  0  0  0  0  0  0  0  0  0  0
    5.5118    1.6537    6.4930 C   0  0  0  0  0  0  0  0  0  0  0  0
    6.5115    1.1470    5.9793 O   0  0  0  0  0  0  0  0  0  0  0  0
    5.5285    3.0531    7.0758 C   0  0  0  0  0  0  0  0  0  0  0  0
    5.0915    4.2083    6.1991 C   0  0  0  0  0  0  0  0  0  0  0  0
    6.5455    4.0448    6.5334 C   0  0  0  0  0  0  0  0  0  0  0  0
    3.7091   -1.0912    7.5396 C   0  0  0  0  0  0  0  0  0  0  0  0
    4.7356   -2.0609    8.0652 C   0  0  2  0  0  0  0  0  0  0  0  0
    5.0507   -3.2241    7.1618 C   0  0  0  0  0  0  0  0  0  0  0  0
    4.1802   -3.9723    6.3840 C   0  0  0  0  0  0  0  0  0  0  0  0
    4.8151   -5.0116    5.6704 C   0  0  0  0  0  0  0  0  0  0  0  0
    6.1725   -5.0693    5.9036 C   0  0  0  0  0  0  0  0  0  0  0  0
    6.6766   -3.8338    7.0146 S   0  0  0  0  0  0  0  0  0  0  0  0
    4.1516   -2.5787    9.2329 O   0  0  0  0  0  0  0  0  0  0  0  0
    2.9594   -2.0395    9.4605 C   0  0  0  0  0  0  0  0  0  0  0  0
    2.2518   -2.3353   10.4334 O   0  0  0  0  0  0  0  0  0  0  0  0
    2.6448   -1.0512    8.3851 C   0  0  0  0  0  0  0  0  0  0  0  0
    1.2650   -0.3316    8.3740 C   0  0  1  0  0  0  0  0  0  0  0  0
    0.2766   -1.2719    8.7726 O   0  0  0  0  0  0  0  0  0  0  0  0
    1.0874    0.7871    9.4598 C   0  0  1  0  0  0  0  0  0  0  0  0
    2.2640    1.3429    9.7383 O   0  0  0  0  0  0  0  0  0  0  0  0
   -0.0909    2.0142    8.7183 S   0  0  0  0  0  0  0  0  0  0  0  0
   -1.5167    1.3876    8.7243 O   0  0  0  0  0  0  0  0  0  0  0  0
    0.7194    0.2550    7.0223 C   0  0  2  0  0  0  0  0  0  0  0  0
    0.9910   -0.5751    5.7484 C   0  0  1  0  0  0  0  0  0  0  0  0
    0.0042   -1.7014    5.3890 C   0  0  0  0  0  0  0  0  0  0  0  0
    1.2192   -1.9641    6.0732 O   0  0  0  0  0  0  0  0  0  0  0  0
    2.6013    4.3227    6.8742 H   0  0  0  0  0  0  0  0  0  0  0  0
    2.2726    3.7969    8.5369 H   0  0  0  0  0  0  0  0  0  0  0  0
    0.9182    4.2897    7.4471 H   0  0  0  0  0  0  0  0  0  0  0  0
   -1.2731    1.6514    5.9070 H   0  0  0  0  0  0  0  0  0  0  0  0
   -0.9807    3.1984    6.5358 H   0  0  0  0  0  0  0  0  0  0  0  0
    2.9254    5.2965    4.8619 H   0  0  0  0  0  0  0  0  0  0  0  0
    2.2168    6.6712    5.6894 H   0  0  0  0  0  0  0  0  0  0  0  0
    2.1799    6.5910    3.9164 H   0  0  0  0  0  0  0  0  0  0  0  0
   -2.3296    3.5683    4.6820 H   0  0  0  0  0  0  0  0  0  0  0  0
   -0.9376    4.6640    2.4748 H   0  0  0  0  0  0  0  0  0  0  0  0
   -2.1388    1.4594    3.6032 H   0  0  0  0  0  0  0  0  0  0  0  0
   -2.0461    2.4514    2.0926 H   0  0  0  0  0  0  0  0  0  0  0  0
    0.2569    3.0045    2.4728 H   0  0  0  0  0  0  0  0  0  0  0  0
    0.5990    0.9503    1.5370 H   0  0  0  0  0  0  0  0  0  0  0  0
    1.9654   -0.8184    2.6538 H   0  0  0  0  0  0  0  0  0  0  0  0
    2.8766    1.5591    3.9614 H   0  0  0  0  0  0  0  0  0  0  0  0
    3.3489   -1.6917    4.7905 H   0  0  0  0  0  0  0  0  0  0  0  0
    4.0551   -0.2674    4.1402 H   0  0  0  0  0  0  0  0  0  0  0  0
    5.0862   -0.7231    6.1052 H   0  0  0  0  0  0  0  0  0  0  0  0
    5.2867    3.1153    8.1352 H   0  0  0  0  0  0  0  0  0  0  0  0
    4.7453    3.9582    5.1968 H   0  0  0  0  0  0  0  0  0  0  0  0
    4.6160    5.0606    6.6699 H   0  0  0  0  0  0  0  0  0  0  0  0
    6.9352    4.7840    7.2238 H   0  0  0  0  0  0  0  0  0  0  0  0
    7.2069    3.7726    5.7066 H   0  0  0  0  0  0  0  0  0  0  0  0
    3.1186   -3.7974    6.3273 H   0  0  0  0  0  0  0  0  0  0  0  0
    4.2841   -5.6819    5.0162 H   0  0  0  0  0  0  0  0  0  0  0  0
    6.8959   -5.7619    5.4913 H   0  0  0  0  0  0  0  0  0  0  0  0
    5.6429   -1.5151    8.2954 H   0  0  0  0  0  0  0  0  0  0  0  0
    0.5283   -1.5591    9.6347 H   0  0  0  0  0  0  0  0  0  0  0  0
    0.5079    0.4211   10.3104 H   0  0  0  0  0  0  0  0  0  0  0  0
   -0.3422    0.0527    7.0970 H   0  0  0  0  0  0  0  0  0  0  0  0
   -0.8888   -1.8366    6.0033 H   0  0  0  0  0  0  0  0  0  0  0  0
   -0.0079   -2.2146    4.4284 H   0  0  0  0  0  0  0  0  0  0  0  0
  1  2  1  0
  1 48  1  0
  1 49  1  0
  1 50  1  0
  3  2  1  1
 42  3  1  6
  3 44  1  0
  3  4  1  0
  4  5  1  0
  4 51  1  0
  4 52  1  0
  5 13  1  0
  5  6  1  1
  5 10  1  0
  6  7  1  0
  7  8  1  0
  7  9  2  0
  8 53  1  0
  8 54  1  0
  8 55  1  0
 10 11  1  0
 10 12  1  0
 10 56  1  1
 11 57  1  0
 12 13  1  0
 12 58  1  0
 12 59  1  0
 13 14  1  0
 13 60  1  6
 14 16  1  0
 14 15  1  0
 14 61  1  6
 15 16  1  0
 16 17  1  0
 16 62  1  6
 17 45  1  0
 17 18  1  1
 17 19  1  0
 18 63  1  0
 19 20  1  0
 19 64  1  0
 19 65  1  0
 20 21  1  0
 20 66  1  6
 20 27  1  0
 21 22  1  0
 22 23  2  0
 22 24  1  0
 24 26  1  0
 24 25  1  0
 24 67  1  0
 25 26  1  0
 25 68  1  0
 25 69  1  0
 26 70  1  0
 26 71  1  0
 27 37  2  0
 27 28  1  0
 28 34  1  0
 28 29  1  0
 28 75  1  1
 29 33  1  0
 29 30  2  0
 30 31  1  0
 30 72  1  0
 31 32  2  0
 31 73  1  0
 32 33  1  0
 32 74  1  0
 34 35  1  0
 35 37  1  0
 35 36  2  0
 37 38  1  0
 38 39  1  1
 38 40  1  0
 38 44  1  0
 39 76  1  0
 40 41  1  0
 40 42  1  0
 40 77  1  1
 42 43  2  0
 44 45  1  0
 44 78  1  1
 45 47  1  1
 45 46  1  0
 46 47  1  0
 46 79  1  0
 46 80  1  0
M  CHG  1  41  -1
M  END
>  <i_m_ct_stereo_status>  (157) 
1

>  <s_m_source_file>  (157) 
/var/tmp/pbs.5075288.sched01/tmp4tfr24xl/130i3iej58d.sdf

>  <i_m_source_file_index>  (157) 
58

>  <i_lp_mmshare_version>  (157) 
48012

>  <i_f3d_flags>  (157) 
0

>  <s_epik_input>  (157) 
TzFbQ0gyXUMxMltDQF0zKFtPSF0pW0NAQEhdNFtDQEBIXShPNClbQ0BASF01W0NAXShbQ0BASF0oW09IXSlbQ0gyXTUpKE9DKD1PKVtDSDNdKVtDSDJdW0NAXTYoT1tDSDNdKVtDQEBIXTJbQ0BdKFtPSF0pKFtDQEBIXShbT0hdKVtTK102W08tXSljN2MoYyhvYzdbT0hdKS1jOFtjSF1bY0hdW2NIXXM4KVtDQEBIXShbQ0gyXTMpT0MoPU8pW0NIXTlbQ0gyXVtDSDJdOQ==

>  <s_epik_cmdline>  (157) 
J2VwaWtfcHl0aG9uJywgJy1waHQnLCAnMi4wJywgJy1waCcsICc3LjAnLCAnLXRuJywgJzgnLCAnLW1hJywgJzIwMCcsICctaW1hZScsICc8aW5maWxlLm1hZT4nLCAnLW9tYWUnLCAnPG91dGZpbGUubWFlPic=

>  <r_lp_tautomer_probability>  (157) 
0.999841

>  <r_epik_Ionization_Penalty>  (157) 
0.0397111

>  <r_epik_Ionization_Penalty_Charging>  (157) 
0.0389454

>  <r_epik_Ionization_Penalty_Neutral>  (157) 
0.000765736

>  <r_epik_State_Penalty>  (157) 
0.0704439

>  <r_epik_Charging_Adjusted_Penalty>  (157) 
0.109389

>  <i_epik_Tot_Q>  (157) 
-1

>  <i_epik_Tot_abs_Q>  (157) 
1

>  <s_epik_Chemistry_Notes>  (157) 
This compound has an ester and may undergo hydrolysis at high or low pH. This compound contains an acetal/aminal-like group ( X-CH(R)-Y where X, Y are N, S, or O) that may be acid/base labile, releasing an aldehyde.

>  <s_lp_Force_Field>  (157) 
OPLS3e

>  <r_lp_Energy>  (157) 
113.059

>  <b_lp_Chiralities_Consistent>  (157) 
1

>  <s_lp_Variant>  (157) 
75:0-1

>  <s_i_glide_gridfile>  (157) 
pfpi4k_grid

>  <i_i_glide_lignum>  (157) 
58

>  <i_i_glide_rotatable_bonds>  (157) 
10

>  <r_i_docking_score>  (157) 
-3.24485

>  <r_i_glide_ligand_efficiency>  (157) 
-0.0690394

>  <r_i_glide_ligand_efficiency_sa>  (157) 
-0.249151

>  <r_i_glide_ligand_efficiency_ln>  (157) 
-0.669021

>  <r_i_glide_gscore>  (157) 
-3.24485

>  <r_i_glide_lipo>  (157) 
-0.0702445

>  <r_i_glide_hbond>  (157) 
-0.00291982

>  <r_i_glide_metal>  (157) 
-0

>  <r_i_glide_rewards>  (157) 
-0.533865

>  <r_i_glide_evdw>  (157) 
-23.5125

>  <r_i_glide_ecoul>  (157) 
-9.88286

>  <r_i_glide_erotb>  (157) 
0.0500867

>  <r_i_glide_esite>  (157) 
-0.0298542

>  <r_i_glide_emodel>  (157) 
-45.2797

>  <r_i_glide_energy>  (157) 
-33.3954

>  <r_i_glide_einternal>  (157) 
1.87526

>  <r_i_glide_intrahb_reward>  (157) 
-0.5

>  <i_i_glide_confnum>  (157) 
1

>  <i_i_glide_posenum>  (157) 
19

>  <r_i_glide_eff_state_penalty>  (157) 
0

>  <ligand_id>  (157) 
75

>  <original_smiles>  (157) 
COC12CC3(OC(C)=O)C(O)CC3C3OC3C3(O)CC(OC(=O)C4CC4)c4c(-c5cccs5)oc(O)c4C(O)(C(O)[S+]1[O-])C2C31CO1

>  <smiles>  (157) 
[H]OC1([H])C([H])([H])C2([H])C3([H])OC3([H])C3(O[H])C([H])([H])C([H])(OC(=O)C4([H])C([H])([H])C4([H])[H])C4=C(C(=O)OC4([H])c4sc([H])c([H])c4[H])C4(O[H])C([H])([O-])S(=O)C(OC([H])([H])[H])(C([H])([H])C12OC(=O)C([H])([H])[H])C4([H])C31OC1([H])[H]

$$$$
75:0:2
     RDKit          3D

 80 88  0  0  1  0  0  0  0  0999 V2000
    5.6733   -8.4155    4.9448 C   0  0  0  0  0  0  0  0  0  0  0  0
    4.7607   -7.5720    4.2501 O   0  0  0  0  0  0  0  0  0  0  0  0
    4.3848   -7.9503    2.9267 C   0  0  2  0  0  0  0  0  0  0  0  0
    3.3524   -9.1714    2.9070 C   0  0  0  0  0  0  0  0  0  0  0  0
    2.2514   -9.5239    4.0031 C   0  0  2  0  0  0  0  0  0  0  0  0
    2.7696   -9.5539    5.3565 O   0  0  0  0  0  0  0  0  0  0  0  0
    3.6344  -10.4531    5.8975 C   0  0  0  0  0  0  0  0  0  0  0  0
    4.0400  -11.6763    5.0553 C   0  0  0  0  0  0  0  0  0  0  0  0
    4.0526  -10.2957    7.0466 O   0  0  0  0  0  0  0  0  0  0  0  0
    1.4963  -10.8737    3.6481 C   0  0  1  0  0  0  0  0  0  0  0  0
    1.1079  -11.8154    4.5961 O   0  0  0  0  0  0  0  0  0  0  0  0
    0.3528  -10.0568    3.0863 C   0  0  0  0  0  0  0  0  0  0  0  0
    0.7403   -9.0022    4.1150 C   0  0  2  0  0  0  0  0  0  0  0  0
    0.0275   -7.6553    4.0129 C   0  0  2  0  0  0  0  0  0  0  0  0
    0.0554   -7.1528    2.6831 O   0  0  0  0  0  0  0  0  0  0  0  0
    0.5279   -6.2215    3.6679 C   0  0  2  0  0  0  0  0  0  0  0  0
    1.9972   -5.8401    3.6024 C   0  0  2  0  0  0  0  0  0  0  0  0
    2.4495   -6.6082    4.6841 O   0  0  0  0  0  0  0  0  0  0  0  0
    2.3233   -4.4173    4.1027 C   0  0  0  0  0  0  0  0  0  0  0  0
    3.8299   -4.0449    4.2905 C   0  0  1  0  0  0  0  0  0  0  0  0
    4.5726   -4.8712    5.1796 O   0  0  0  0  0  0  0  0  0  0  0  0
    5.5143   -4.3604    6.0125 C   0  0  0  0  0  0  0  0  0  0  0  0
    5.8071   -3.1645    6.1240 O   0  0  0  0  0  0  0  0  0  0  0  0
    6.1937   -5.4433    6.8224 C   0  0  0  0  0  0  0  0  0  0  0  0
    6.5937   -5.1320    8.2575 C   0  0  0  0  0  0  0  0  0  0  0  0
    7.6583   -5.2560    7.2013 C   0  0  0  0  0  0  0  0  0  0  0  0
    4.6732   -3.6627    3.0594 C   0  0  0  0  0  0  0  0  0  0  0  0
    5.0767   -2.2139    2.9751 C   0  0  2  0  0  0  0  0  0  0  0  0
    3.9524   -1.2281    2.8025 C   0  0  0  0  0  0  0  0  0  0  0  0
    2.9706   -1.2158    1.8385 C   0  0  0  0  0  0  0  0  0  0  0  0
    2.0732   -0.1164    1.9603 C   0  0  0  0  0  0  0  0  0  0  0  0
    2.3846    0.7050    3.0096 C   0  0  0  0  0  0  0  0  0  0  0  0
    3.7834    0.1439    3.8718 S   0  0  0  0  0  0  0  0  0  0  0  0
    5.8731   -2.1569    1.8220 O   0  0  0  0  0  0  0  0  0  0  0  0
    6.0077   -3.3491    1.2446 C   0  0  0  0  0  0  0  0  0  0  0  0
    6.6821   -3.5313    0.2373 O   0  0  0  0  0  0  0  0  0  0  0  0
    5.2322   -4.3570    2.0506 C   0  0  0  0  0  0  0  0  0  0  0  0
    5.1546   -5.8539    1.5495 C   0  0  1  0  0  0  0  0  0  0  0  0
    4.9757   -5.8201    0.1350 O   0  0  0  0  0  0  0  0  0  0  0  0
    6.4805   -6.6893    1.7554 C   0  0  1  0  0  0  0  0  0  0  0  0
    7.1164   -6.2702    2.7831 O   0  0  0  0  0  0  0  0  0  0  0  0
    5.8866   -8.4565    1.9552 S   0  0  0  0  0  0  0  0  0  0  0  0
    5.4115   -8.9753    0.5962 O   0  0  0  0  0  0  0  0  0  0  0  0
    3.9437   -6.7426    2.0399 C   0  0  2  0  0  0  0  0  0  0  0  0
    2.5913   -6.0320    2.2021 C   0  0  1  0  0  0  0  0  0  0  0  0
    1.6806   -5.9535    0.9553 C   0  0  0  0  0  0  0  0  0  0  0  0
    2.4726   -4.8594    1.3573 O   0  0  0  0  0  0  0  0  0  0  0  0
    5.4308   -8.3377    5.9955 H   0  0  0  0  0  0  0  0  0  0  0  0
    6.7324   -8.1661    4.8093 H   0  0  0  0  0  0  0  0  0  0  0  0
    5.5452   -9.4442    4.6361 H   0  0  0  0  0  0  0  0  0  0  0  0
    2.8765   -9.1967    1.9214 H   0  0  0  0  0  0  0  0  0  0  0  0
    3.9907  -10.0597    2.8516 H   0  0  0  0  0  0  0  0  0  0  0  0
    3.2432  -12.0440    4.3827 H   0  0  0  0  0  0  0  0  0  0  0  0
    4.3151  -12.5091    5.7062 H   0  0  0  0  0  0  0  0  0  0  0  0
    4.9137  -11.4150    4.4596 H   0  0  0  0  0  0  0  0  0  0  0  0
    1.9947  -11.4080    2.8338 H   0  0  0  0  0  0  0  0  0  0  0  0
    0.9934  -11.3565    5.4666 H   0  0  0  0  0  0  0  0  0  0  0  0
    0.4817   -9.7723    2.0540 H   0  0  0  0  0  0  0  0  0  0  0  0
   -0.6135  -10.5293    3.2622 H   0  0  0  0  0  0  0  0  0  0  0  0
    0.4247   -9.3550    5.1005 H   0  0  0  0  0  0  0  0  0  0  0  0
   -0.9882   -7.7167    4.4008 H   0  0  0  0  0  0  0  0  0  0  0  0
   -0.1744   -5.4185    3.8608 H   0  0  0  0  0  0  0  0  0  0  0  0
    2.4542   -7.5145    4.4305 H   0  0  0  0  0  0  0  0  0  0  0  0
    1.8562   -3.6746    3.4588 H   0  0  0  0  0  0  0  0  0  0  0  0
    1.8341   -4.2745    5.0684 H   0  0  0  0  0  0  0  0  0  0  0  0
    3.7438   -3.0943    4.8145 H   0  0  0  0  0  0  0  0  0  0  0  0
    5.8668   -6.4590    6.6268 H   0  0  0  0  0  0  0  0  0  0  0  0
    6.3825   -4.1397    8.6485 H   0  0  0  0  0  0  0  0  0  0  0  0
    6.5148   -5.9458    8.9718 H   0  0  0  0  0  0  0  0  0  0  0  0
    8.2749   -6.1495    7.2277 H   0  0  0  0  0  0  0  0  0  0  0  0
    8.1632   -4.3465    6.8839 H   0  0  0  0  0  0  0  0  0  0  0  0
    2.8703   -1.9515    1.0531 H   0  0  0  0  0  0  0  0  0  0  0  0
    1.2488    0.0352    1.2804 H   0  0  0  0  0  0  0  0  0  0  0  0
    1.8742    1.6108    3.3182 H   0  0  0  0  0  0  0  0  0  0  0  0
    5.6610   -1.9552    3.8502 H   0  0  0  0  0  0  0  0  0  0  0  0
    4.8127   -6.6940   -0.1680 H   0  0  0  0  0  0  0  0  0  0  0  0
    7.0337   -6.7197    0.7910 H   0  0  0  0  0  0  0  0  0  0  0  0
    3.7074   -7.3320    1.1516 H   0  0  0  0  0  0  0  0  0  0  0  0
    2.0169   -6.4255    0.0447 H   0  0  0  0  0  0  0  0  0  0  0  0
    0.6196   -5.7588    1.0166 H   0  0  0  0  0  0  0  0  0  0  0  0
  1  2  1  0
  1 48  1  0
  1 49  1  0
  1 50  1  0
  3  2  1  1
 42  3  1  1
  3 44  1  0
  3  4  1  0
  4  5  1  0
  4 51  1  0
  4 52  1  0
  5 13  1  0
  5  6  1  1
  5 10  1  0
  6  7  1  0
  7  8  1  0
  7  9  2  0
  8 53  1  0
  8 54  1  0
  8 55  1  0
 10 11  1  0
 10 12  1  0
 10 56  1  6
 11 57  1  0
 12 13  1  0
 12 58  1  0
 12 59  1  0
 13 14  1  0
 13 60  1  1
 14 16  1  0
 14 15  1  0
 14 61  1  1
 15 16  1  0
 16 17  1  0
 16 62  1  1
 17 45  1  0
 17 18  1  1
 17 19  1  0
 18 63  1  0
 19 20  1  0
 19 64  1  0
 19 65  1  0
 20 21  1  0
 20 66  1  1
 20 27  1  0
 21 22  1  0
 22 23  2  0
 22 24  1  0
 24 26  1  0
 24 25  1  0
 24 67  1  0
 25 26  1  0
 25 68  1  0
 25 69  1  0
 26 70  1  0
 26 71  1  0
 27 37  2  0
 27 28  1  0
 28 34  1  0
 28 29  1  0
 28 75  1  1
 29 33  1  0
 29 30  2  0
 30 31  1  0
 30 72  1  0
 31 32  2  0
 31 73  1  0
 32 33  1  0
 32 74  1  0
 34 35  1  0
 35 37  1  0
 35 36  2  0
 37 38  1  0
 38 39  1  6
 38 40  1  0
 38 44  1  0
 39 76  1  0
 40 41  1  0
 40 42  1  0
 40 77  1  6
 42 43  2  0
 44 45  1  0
 44 78  1  6
 45 47  1  6
 45 46  1  0
 46 47  1  0
 46 79  1  0
 46 80  1  0
M  CHG  1  41  -1
M  END
>  <i_m_ct_stereo_status>  (158) 
1

>  <s_m_source_file>  (158) 
/var/tmp/pbs.5075288.sched01/tmp4tfr24xl/130i3iej58d.sdf

>  <i_m_source_file_index>  (158) 
58

>  <i_lp_mmshare_version>  (158) 
48012

>  <i_f3d_flags>  (158) 
0

>  <s_epik_input>  (158) 
TzFbQ0gyXUMxMltDQF0zKFtPSF0pW0NAQEhdNFtDQEBIXShPNClbQ0BASF01W0NAXShbQ0BASF0oW09IXSlbQ0gyXTUpKE9DKD1PKVtDSDNdKVtDSDJdW0NAXTYoT1tDSDNdKVtDQEBIXTJbQ0BdKFtPSF0pKFtDQEBIXShbT0hdKVtTK102W08tXSljN2MoYyhvYzdbT0hdKS1jOFtjSF1bY0hdW2NIXXM4KVtDQEBIXShbQ0gyXTMpT0MoPU8pW0NIXTlbQ0gyXVtDSDJdOQ==

>  <s_epik_cmdline>  (158) 
J2VwaWtfcHl0aG9uJywgJy1waHQnLCAnMi4wJywgJy1waCcsICc3LjAnLCAnLXRuJywgJzgnLCAnLW1hJywgJzIwMCcsICctaW1hZScsICc8aW5maWxlLm1hZT4nLCAnLW9tYWUnLCAnPG91dGZpbGUubWFlPic=

>  <r_lp_tautomer_probability>  (158) 
0.999841

>  <r_epik_Ionization_Penalty>  (158) 
0.0397111

>  <r_epik_Ionization_Penalty_Charging>  (158) 
0.0389454

>  <r_epik_Ionization_Penalty_Neutral>  (158) 
0.000765736

>  <r_epik_State_Penalty>  (158) 
0.0704439

>  <r_epik_Charging_Adjusted_Penalty>  (158) 
0.109389

>  <i_epik_Tot_Q>  (158) 
-1

>  <i_epik_Tot_abs_Q>  (158) 
1

>  <s_epik_Chemistry_Notes>  (158) 
This compound has an ester and may undergo hydrolysis at high or low pH. This compound contains an acetal/aminal-like group ( X-CH(R)-Y where X, Y are N, S, or O) that may be acid/base labile, releasing an aldehyde.

>  <s_lp_Force_Field>  (158) 
OPLS3e

>  <r_lp_Energy>  (158) 
113.059

>  <b_lp_Chiralities_Consistent>  (158) 
1

>  <s_lp_Variant>  (158) 
75:0-1

>  <s_i_glide_gridfile>  (158) 
pfpi4k_grid

>  <i_i_glide_lignum>  (158) 
58

>  <i_i_glide_rotatable_bonds>  (158) 
10

>  <r_i_docking_score>  (158) 
-2.97874

>  <r_i_glide_ligand_efficiency>  (158) 
-0.0633774

>  <r_i_glide_ligand_efficiency_sa>  (158) 
-0.228718

>  <r_i_glide_ligand_efficiency_ln>  (158) 
-0.614154

>  <r_i_glide_gscore>  (158) 
-2.97874

>  <r_i_glide_lipo>  (158) 
-0.394839

>  <r_i_glide_hbond>  (158) 
0

>  <r_i_glide_metal>  (158) 
-0

>  <r_i_glide_rewards>  (158) 
-0.696951

>  <r_i_glide_evdw>  (158) 
-35.5072

>  <r_i_glide_ecoul>  (158) 
-0.788226

>  <r_i_glide_erotb>  (158) 
0.0500867

>  <r_i_glide_esite>  (158) 
-0.0434405

>  <r_i_glide_emodel>  (158) 
-44.5743

>  <r_i_glide_energy>  (158) 
-36.2954

>  <r_i_glide_einternal>  (158) 
5.89024

>  <r_i_glide_intrahb_reward>  (158) 
-0.5

>  <i_i_glide_confnum>  (158) 
1

>  <i_i_glide_posenum>  (158) 
5

>  <r_i_glide_eff_state_penalty>  (158) 
0

>  <ligand_id>  (158) 
75

>  <original_smiles>  (158) 
COC12CC3(OC(C)=O)C(O)CC3C3OC3C3(O)CC(OC(=O)C4CC4)c4c(-c5cccs5)oc(O)c4C(O)(C(O)[S+]1[O-])C2C31CO1

>  <smiles>  (158) 
[H]OC1([H])C([H])([H])C2([H])C3([H])OC3([H])C3(O[H])C([H])([H])C([H])(OC(=O)C4([H])C([H])([H])C4([H])[H])C4=C(C(=O)OC4([H])c4sc([H])c([H])c4[H])C4(O[H])C([H])([O-])S(=O)C(OC([H])([H])[H])(C([H])([H])C12OC(=O)C([H])([H])[H])C4([H])C31OC1([H])[H]

$$$$
75:1:0
     RDKit          3D

 80 88  0  0  1  0  0  0  0  0999 V2000
    3.9618   -2.5916    6.0732 C   0  0  0  0  0  0  0  0  0  0  0  0
    3.7091   -3.9220    5.6664 O   0  0  0  0  0  0  0  0  0  0  0  0
    3.7155   -4.9599    6.6532 C   0  0  2  0  0  0  0  0  0  0  0  0
    2.4126   -5.0249    7.5671 C   0  0  0  0  0  0  0  0  0  0  0  0
    0.9555   -4.5799    7.1624 C   0  0  2  0  0  0  0  0  0  0  0  0
    0.8897   -3.2842    6.5368 O   0  0  0  0  0  0  0  0  0  0  0  0
    1.1543   -2.0699    7.0900 C   0  0  0  0  0  0  0  0  0  0  0  0
    1.6322   -2.0492    8.5690 C   0  0  0  0  0  0  0  0  0  0  0  0
    1.0125   -1.0381    6.4644 O   0  0  0  0  0  0  0  0  0  0  0  0
   -0.0112   -4.6488    8.4012 C   0  0  1  0  0  0  0  0  0  0  0  0
   -0.9939   -3.6529    8.6077 O   0  0  0  0  0  0  0  0  0  0  0  0
   -0.5560   -5.9511    7.8896 C   0  0  0  0  0  0  0  0  0  0  0  0
   -0.2142   -5.4623    6.4921 C   0  0  2  0  0  0  0  0  0  0  0  0
   -0.2853   -6.4889    5.3676 C   0  0  2  0  0  0  0  0  0  0  0  0
    0.4394   -7.6701    5.6638 O   0  0  0  0  0  0  0  0  0  0  0  0
    0.7778   -7.0695    4.3928 C   0  0  2  0  0  0  0  0  0  0  0  0
    2.1867   -6.5194    4.2701 C   0  0  2  0  0  0  0  0  0  0  0  0
    1.9006   -5.1509    4.3968 O   0  0  0  0  0  0  0  0  0  0  0  0
    2.7759   -6.5338    2.8449 C   0  0  0  0  0  0  0  0  0  0  0  0
    4.0904   -5.7090    2.6226 C   0  0  1  0  0  0  0  0  0  0  0  0
    4.0390   -4.3228    2.9366 O   0  0  0  0  0  0  0  0  0  0  0  0
    3.4173   -3.4239    2.1384 C   0  0  0  0  0  0  0  0  0  0  0  0
    2.7721   -3.7010    1.1255 O   0  0  0  0  0  0  0  0  0  0  0  0
    3.6148   -2.0188    2.6345 C   0  0  0  0  0  0  0  0  0  0  0  0
    2.4821   -1.0281    2.4260 C   0  0  0  0  0  0  0  0  0  0  0  0
    3.7527   -0.8986    1.6194 C   0  0  0  0  0  0  0  0  0  0  0  0
    5.4572   -6.2931    3.0284 C   0  0  0  0  0  0  0  0  0  0  0  0
    6.3954   -6.6099    1.8835 C   0  0  1  0  0  0  0  0  0  0  0  0
    6.9070   -5.4018    1.1260 C   0  0  0  0  0  0  0  0  0  0  0  0
    6.1855   -4.4349    0.4627 C   0  0  0  0  0  0  0  0  0  0  0  0
    6.9787   -3.4157   -0.1429 C   0  0  0  0  0  0  0  0  0  0  0  0
    8.3233   -3.6304    0.0089 C   0  0  0  0  0  0  0  0  0  0  0  0
    8.6130   -5.0749    0.9469 S   0  0  0  0  0  0  0  0  0  0  0  0
    7.4855   -7.2290    2.5371 O   0  0  0  0  0  0  0  0  0  0  0  0
    7.3858   -7.1613    3.8561 C   0  0  0  0  0  0  0  0  0  0  0  0
    8.2616   -7.5712    4.6205 O   0  0  0  0  0  0  0  0  0  0  0  0
    6.0637   -6.5581    4.2183 C   0  0  0  0  0  0  0  0  0  0  0  0
    5.6407   -6.4585    5.7244 C   0  0  1  0  0  0  0  0  0  0  0  0
    6.0462   -7.6591    6.4006 O   0  0  0  0  0  0  0  0  0  0  0  0
    6.3878   -5.3196    6.5366 C   0  0  1  0  0  0  0  0  0  0  0  0
    6.6893   -4.3365    5.7417 O   0  0  0  0  0  0  0  0  0  0  0  0
    5.1601   -4.7558    7.8132 S   0  0  0  0  0  0  0  0  0  0  0  0
    5.1002   -5.8228    8.9092 O   0  0  0  0  0  0  0  0  0  0  0  0
    4.1168   -6.3634    6.0777 C   0  0  2  0  0  0  0  0  0  0  0  0
    3.1626   -7.2160    5.2300 C   0  0  1  0  0  0  0  0  0  0  0  0
    2.9533   -8.6976    5.6615 C   0  0  0  0  0  0  0  0  0  0  0  0
    3.8335   -8.3573    4.6146 O   0  0  0  0  0  0  0  0  0  0  0  0
    3.3990   -1.9330    5.4208 H   0  0  0  0  0  0  0  0  0  0  0  0
    5.0013   -2.3062    6.0122 H   0  0  0  0  0  0  0  0  0  0  0  0
    3.6272   -2.4690    7.0770 H   0  0  0  0  0  0  0  0  0  0  0  0
    2.3465   -6.0185    8.0151 H   0  0  0  0  0  0  0  0  0  0  0  0
    2.6568   -4.4168    8.4367 H   0  0  0  0  0  0  0  0  0  0  0  0
    1.1206   -2.7846    9.1925 H   0  0  0  0  0  0  0  0  0  0  0  0
    1.4350   -1.0742    9.0090 H   0  0  0  0  0  0  0  0  0  0  0  0
    2.6961   -2.2523    8.6279 H   0  0  0  0  0  0  0  0  0  0  0  0
    0.5339   -4.8109    9.3388 H   0  0  0  0  0  0  0  0  0  0  0  0
   -1.7689   -3.9354    8.1477 H   0  0  0  0  0  0  0  0  0  0  0  0
    0.0151   -6.8177    8.2241 H   0  0  0  0  0  0  0  0  0  0  0  0
   -1.6287   -6.0549    8.0463 H   0  0  0  0  0  0  0  0  0  0  0  0
   -0.9843   -4.7384    6.2078 H   0  0  0  0  0  0  0  0  0  0  0  0
   -1.3121   -6.7113    5.0742 H   0  0  0  0  0  0  0  0  0  0  0  0
    0.4105   -7.6253    3.5377 H   0  0  0  0  0  0  0  0  0  0  0  0
    2.7339   -4.6904    4.4660 H   0  0  0  0  0  0  0  0  0  0  0  0
    2.9186   -7.5560    2.4932 H   0  0  0  0  0  0  0  0  0  0  0  0
    2.0233   -6.1291    2.1671 H   0  0  0  0  0  0  0  0  0  0  0  0
    4.1549   -5.7661    1.5416 H   0  0  0  0  0  0  0  0  0  0  0  0
    4.2305   -1.9062    3.5224 H   0  0  0  0  0  0  0  0  0  0  0  0
    1.5911   -1.3735    1.9031 H   0  0  0  0  0  0  0  0  0  0  0  0
    2.3099   -0.2995    3.2143 H   0  0  0  0  0  0  0  0  0  0  0  0
    4.4150   -0.0758    1.8761 H   0  0  0  0  0  0  0  0  0  0  0  0
    3.7102   -1.1535    0.5620 H   0  0  0  0  0  0  0  0  0  0  0  0
    5.1176   -4.4007    0.3741 H   0  0  0  0  0  0  0  0  0  0  0  0
    6.5252   -2.5972   -0.6752 H   0  0  0  0  0  0  0  0  0  0  0  0
    9.1373   -3.0349   -0.3846 H   0  0  0  0  0  0  0  0  0  0  0  0
    5.9383   -7.3195    1.2077 H   0  0  0  0  0  0  0  0  0  0  0  0
    5.8058   -7.5761    7.2990 H   0  0  0  0  0  0  0  0  0  0  0  0
    7.1960   -5.7507    7.1249 H   0  0  0  0  0  0  0  0  0  0  0  0
    4.0286   -6.9264    7.0113 H   0  0  0  0  0  0  0  0  0  0  0  0
    3.4623   -9.0742    6.5442 H   0  0  0  0  0  0  0  0  0  0  0  0
    2.1132   -9.2830    5.3065 H   0  0  0  0  0  0  0  0  0  0  0  0
  1  2  1  0
  1 48  1  0
  1 49  1  0
  1 50  1  0
  3  2  1  6
 42  3  1  6
  3 44  1  0
  3  4  1  0
  4  5  1  0
  4 51  1  0
  4 52  1  0
  5 13  1  0
  5  6  1  6
  5 10  1  0
  6  7  1  0
  7  8  1  0
  7  9  2  0
  8 53  1  0
  8 54  1  0
  8 55  1  0
 10 11  1  0
 10 12  1  0
 10 56  1  1
 11 57  1  0
 12 13  1  0
 12 58  1  0
 12 59  1  0
 13 14  1  0
 13 60  1  6
 14 16  1  0
 14 15  1  0
 14 61  1  6
 15 16  1  0
 16 17  1  0
 16 62  1  6
 17 45  1  0
 17 18  1  1
 17 19  1  0
 18 63  1  0
 19 20  1  0
 19 64  1  0
 19 65  1  0
 20 21  1  0
 20 66  1  6
 20 27  1  0
 21 22  1  0
 22 23  2  0
 22 24  1  0
 24 26  1  0
 24 25  1  0
 24 67  1  0
 25 26  1  0
 25 68  1  0
 25 69  1  0
 26 70  1  0
 26 71  1  0
 27 37  2  0
 27 28  1  0
 28 34  1  0
 28 29  1  0
 28 75  1  6
 29 33  1  0
 29 30  2  0
 30 31  1  0
 30 72  1  0
 31 32  2  0
 31 73  1  0
 32 33  1  0
 32 74  1  0
 34 35  1  0
 35 37  1  0
 35 36  2  0
 37 38  1  0
 38 39  1  1
 38 40  1  0
 38 44  1  0
 39 76  1  0
 40 41  1  0
 40 42  1  0
 40 77  1  1
 42 43  2  0
 44 45  1  0
 44 78  1  1
 45 47  1  6
 45 46  1  0
 46 47  1  0
 46 79  1  0
 46 80  1  0
M  CHG  1  41  -1
M  END
>  <i_m_ct_stereo_status>  (159) 
1

>  <s_m_source_file>  (159) 
/var/tmp/pbs.5075288.sched01/tmp4tfr24xl/130i3iej58d.sdf

>  <i_m_source_file_index>  (159) 
59

>  <i_lp_mmshare_version>  (159) 
48012

>  <i_f3d_flags>  (159) 
0

>  <s_epik_input>  (159) 
TzFbQ0gyXUMxMltDQF0zKFtPSF0pW0NAQEhdNFtDQEBIXShPNClbQ0BASF01W0NAXShbQ0BASF0oW09IXSlbQ0gyXTUpKE9DKD1PKVtDSDNdKVtDSDJdW0NAXTYoT1tDSDNdKVtDQEBIXTJbQ0BdKFtPSF0pKFtDQEBIXShbT0hdKVtTK102W08tXSljN2MoYyhvYzdbT0hdKS1jOFtjSF1bY0hdW2NIXXM4KVtDQEBIXShbQ0gyXTMpT0MoPU8pW0NIXTlbQ0gyXVtDSDJdOQ==

>  <s_epik_cmdline>  (159) 
J2VwaWtfcHl0aG9uJywgJy1waHQnLCAnMi4wJywgJy1waCcsICc3LjAnLCAnLXRuJywgJzgnLCAnLW1hJywgJzIwMCcsICctaW1hZScsICc8aW5maWxlLm1hZT4nLCAnLW9tYWUnLCAnPG91dGZpbGUubWFlPic=

>  <r_lp_tautomer_probability>  (159) 
0.999841

>  <r_epik_Ionization_Penalty>  (159) 
0.0397111

>  <r_epik_Ionization_Penalty_Charging>  (159) 
0.0389454

>  <r_epik_Ionization_Penalty_Neutral>  (159) 
0.000765736

>  <r_epik_State_Penalty>  (159) 
0.0704439

>  <r_epik_Charging_Adjusted_Penalty>  (159) 
0.109389

>  <i_epik_Tot_Q>  (159) 
-1

>  <i_epik_Tot_abs_Q>  (159) 
1

>  <s_epik_Chemistry_Notes>  (159) 
This compound has an ester and may undergo hydrolysis at high or low pH. This compound contains an acetal/aminal-like group ( X-CH(R)-Y where X, Y are N, S, or O) that may be acid/base labile, releasing an aldehyde.

>  <s_lp_Force_Field>  (159) 
OPLS3e

>  <r_lp_Energy>  (159) 
110.306

>  <b_lp_Chiralities_Consistent>  (159) 
1

>  <s_lp_Variant>  (159) 
75:0-2

>  <s_i_glide_gridfile>  (159) 
pfpi4k_grid

>  <i_i_glide_lignum>  (159) 
59

>  <i_i_glide_rotatable_bonds>  (159) 
10

>  <r_i_docking_score>  (159) 
-3.32363

>  <r_i_glide_ligand_efficiency>  (159) 
-0.0707155

>  <r_i_glide_ligand_efficiency_sa>  (159) 
-0.2552

>  <r_i_glide_ligand_efficiency_ln>  (159) 
-0.685264

>  <r_i_glide_gscore>  (159) 
-3.32363

>  <r_i_glide_lipo>  (159) 
-0.593321

>  <r_i_glide_hbond>  (159) 
0

>  <r_i_glide_metal>  (159) 
-0

>  <r_i_glide_rewards>  (159) 
-1.50205

>  <r_i_glide_evdw>  (159) 
-25.6507

>  <r_i_glide_ecoul>  (159) 
0.0670213

>  <r_i_glide_erotb>  (159) 
0.0500867

>  <r_i_glide_esite>  (159) 
-0.00586512

>  <r_i_glide_emodel>  (159) 
-43.7902

>  <r_i_glide_energy>  (159) 
-25.5837

>  <r_i_glide_einternal>  (159) 
6.24805

>  <r_i_glide_intrahb_reward>  (159) 
-1.5

>  <i_i_glide_confnum>  (159) 
5

>  <i_i_glide_posenum>  (159) 
4

>  <r_i_glide_eff_state_penalty>  (159) 
0

>  <ligand_id>  (159) 
75

>  <original_smiles>  (159) 
COC12CC3(OC(C)=O)C(O)CC3C3OC3C3(O)CC(OC(=O)C4CC4)c4c(-c5cccs5)oc(O)c4C(O)(C(O)[S+]1[O-])C2C31CO1

>  <smiles>  (159) 
[H]OC1([H])C([H])([H])C2([H])C3([H])OC3([H])C3(O[H])C([H])([H])C([H])(OC(=O)C4([H])C([H])([H])C4([H])[H])C4=C(C(=O)OC4([H])c4sc([H])c([H])c4[H])C4(O[H])C([H])([O-])S(=O)C(OC([H])([H])[H])(C([H])([H])C12OC(=O)C([H])([H])[H])C4([H])C31OC1([H])[H]

$$$$
75:1:1
     RDKit          3D

 80 88  0  0  1  0  0  0  0  0999 V2000
    3.6431   -4.2183    2.7301 C   0  0  0  0  0  0  0  0  0  0  0  0
    2.9153   -4.3545    3.9463 O   0  0  0  0  0  0  0  0  0  0  0  0
    3.3376   -3.5952    5.0871 C   0  0  2  0  0  0  0  0  0  0  0  0
    2.9206   -2.0513    5.0434 C   0  0  0  0  0  0  0  0  0  0  0  0
    1.6476   -1.4255    4.3387 C   0  0  2  0  0  0  0  0  0  0  0  0
    1.4571   -1.8804    3.0050 O   0  0  0  0  0  0  0  0  0  0  0  0
    2.2702   -1.7153    1.9172 C   0  0  0  0  0  0  0  0  0  0  0  0
    3.4151   -0.6783    2.0395 C   0  0  0  0  0  0  0  0  0  0  0  0
    2.1711   -2.4252    0.9712 O   0  0  0  0  0  0  0  0  0  0  0  0
    1.6669    0.1593    4.3845 C   0  0  1  0  0  0  0  0  0  0  0  0
    1.2085    0.9309    3.3093 O   0  0  0  0  0  0  0  0  0  0  0  0
    0.7156    0.1065    5.5642 C   0  0  0  0  0  0  0  0  0  0  0  0
    0.1821   -1.1835    4.9430 C   0  0  2  0  0  0  0  0  0  0  0  0
   -0.7865   -2.0068    5.7847 C   0  0  2  0  0  0  0  0  0  0  0  0
   -0.3008   -2.2328    7.0964 O   0  0  0  0  0  0  0  0  0  0  0  0
   -0.7156   -3.4255    6.3989 C   0  0  2  0  0  0  0  0  0  0  0  0
    0.3795   -4.4305    6.0687 C   0  0  2  0  0  0  0  0  0  0  0  0
    0.5243   -4.1512    4.7035 O   0  0  0  0  0  0  0  0  0  0  0  0
   -0.0888   -5.8991    6.0132 C   0  0  0  0  0  0  0  0  0  0  0  0
    0.9049   -6.9456    5.3999 C   0  0  1  0  0  0  0  0  0  0  0  0
    1.3025   -6.6611    4.0589 O   0  0  0  0  0  0  0  0  0  0  0  0
    0.5711   -7.0223    2.9663 C   0  0  0  0  0  0  0  0  0  0  0  0
    0.6933   -6.4761    1.8761 O   0  0  0  0  0  0  0  0  0  0  0  0
   -0.4300   -8.1335    3.2061 C   0  0  0  0  0  0  0  0  0  0  0  0
   -1.2298   -8.6680    2.0397 C   0  0  0  0  0  0  0  0  0  0  0  0
   -1.8915   -7.7727    3.0633 C   0  0  0  0  0  0  0  0  0  0  0  0
    2.0729   -7.4930    6.2213 C   0  0  0  0  0  0  0  0  0  0  0  0
    1.9902   -8.9679    6.5242 C   0  0  1  0  0  0  0  0  0  0  0  0
    2.1306   -9.8541    5.3206 C   0  0  0  0  0  0  0  0  0  0  0  0
    1.2013  -10.7443    4.8171 C   0  0  0  0  0  0  0  0  0  0  0  0
    1.6556  -11.4469    3.6602 C   0  0  0  0  0  0  0  0  0  0  0  0
    2.9484  -11.0913    3.2948 C   0  0  0  0  0  0  0  0  0  0  0  0
    3.5856   -9.8768    4.3607 S   0  0  0  0  0  0  0  0  0  0  0  0
    3.1123   -9.1829    7.3565 O   0  0  0  0  0  0  0  0  0  0  0  0
    3.8766   -8.1069    7.4604 C   0  0  0  0  0  0  0  0  0  0  0  0
    4.9262   -8.0846    8.1156 O   0  0  0  0  0  0  0  0  0  0  0  0
    3.2370   -6.9693    6.7221 C   0  0  0  0  0  0  0  0  0  0  0  0
    3.8930   -5.5524    6.7284 C   0  0  1  0  0  0  0  0  0  0  0  0
    4.3860   -5.2944    8.0587 O   0  0  0  0  0  0  0  0  0  0  0  0
    5.1873   -5.4145    5.8452 C   0  0  1  0  0  0  0  0  0  0  0  0
    5.1214   -6.2652    4.8284 O   0  0  0  0  0  0  0  0  0  0  0  0
    5.1867   -3.6693    5.2441 S   0  0  0  0  0  0  0  0  0  0  0  0
    5.6448   -2.7445    6.4027 O   0  0  0  0  0  0  0  0  0  0  0  0
    2.9912   -4.2923    6.4467 C   0  0  2  0  0  0  0  0  0  0  0  0
    1.5759   -4.3154    7.0311 C   0  0  1  0  0  0  0  0  0  0  0  0
    1.3904   -3.8433    8.4950 C   0  0  0  0  0  0  0  0  0  0  0  0
    1.4641   -5.2107    8.1778 O   0  0  0  0  0  0  0  0  0  0  0  0
    2.9447   -4.3545    1.9025 H   0  0  0  0  0  0  0  0  0  0  0  0
    4.4849   -4.9054    2.6541 H   0  0  0  0  0  0  0  0  0  0  0  0
    4.0131   -3.2097    2.6495 H   0  0  0  0  0  0  0  0  0  0  0  0
    2.9577   -1.6534    6.0560 H   0  0  0  0  0  0  0  0  0  0  0  0
    3.7715   -1.5547    4.5795 H   0  0  0  0  0  0  0  0  0  0  0  0
    3.1062    0.2588    2.4900 H   0  0  0  0  0  0  0  0  0  0  0  0
    3.8017   -0.4680    1.0377 H   0  0  0  0  0  0  0  0  0  0  0  0
    4.2192   -1.1516    2.5909 H   0  0  0  0  0  0  0  0  0  0  0  0
    2.6466    0.5265    4.6850 H   0  0  0  0  0  0  0  0  0  0  0  0
    1.5921    1.8076    3.4327 H   0  0  0  0  0  0  0  0  0  0  0  0
    1.2078   -0.0177    6.5284 H   0  0  0  0  0  0  0  0  0  0  0  0
   -0.0046    0.9291    5.5756 H   0  0  0  0  0  0  0  0  0  0  0  0
   -0.4254   -0.9090    4.0723 H   0  0  0  0  0  0  0  0  0  0  0  0
   -1.7818   -1.5598    5.7954 H   0  0  0  0  0  0  0  0  0  0  0  0
   -1.6460   -3.8452    6.7730 H   0  0  0  0  0  0  0  0  0  0  0  0
    1.3012   -4.6121    4.3908 H   0  0  0  0  0  0  0  0  0  0  0  0
   -0.4176   -6.2441    6.9939 H   0  0  0  0  0  0  0  0  0  0  0  0
   -0.9885   -5.9376    5.3975 H   0  0  0  0  0  0  0  0  0  0  0  0
    0.2716   -7.8245    5.3720 H   0  0  0  0  0  0  0  0  0  0  0  0
   -0.1700   -8.8663    3.9704 H   0  0  0  0  0  0  0  0  0  0  0  0
   -1.0120   -8.2821    1.0424 H   0  0  0  0  0  0  0  0  0  0  0  0
   -1.4475   -9.7307    2.0658 H   0  0  0  0  0  0  0  0  0  0  0  0
   -2.5817   -8.2384    3.7645 H   0  0  0  0  0  0  0  0  0  0  0  0
   -2.1503   -6.7599    2.7550 H   0  0  0  0  0  0  0  0  0  0  0  0
    0.2193  -10.9173    5.2206 H   0  0  0  0  0  0  0  0  0  0  0  0
    1.0650  -12.1742    3.1432 H   0  0  0  0  0  0  0  0  0  0  0  0
    3.5331  -11.4820    2.4833 H   0  0  0  0  0  0  0  0  0  0  0  0
    1.0836   -9.1851    7.0684 H   0  0  0  0  0  0  0  0  0  0  0  0
    3.6440   -5.2914    8.6202 H   0  0  0  0  0  0  0  0  0  0  0  0
    6.0666   -5.4780    6.4619 H   0  0  0  0  0  0  0  0  0  0  0  0
    3.4098   -3.5269    7.1032 H   0  0  0  0  0  0  0  0  0  0  0  0
    2.2527   -3.4828    9.0526 H   0  0  0  0  0  0  0  0  0  0  0  0
    0.4159   -3.5751    8.8957 H   0  0  0  0  0  0  0  0  0  0  0  0
  1  2  1  0
  1 48  1  0
  1 49  1  0
  1 50  1  0
  3  2  1  6
 42  3  1  1
  3 44  1  0
  3  4  1  0
  4  5  1  0
  4 51  1  0
  4 52  1  0
  5 13  1  0
  5  6  1  6
  5 10  1  0
  6  7  1  0
  7  8  1  0
  7  9  2  0
  8 53  1  0
  8 54  1  0
  8 55  1  0
 10 11  1  0
 10 12  1  0
 10 56  1  1
 11 57  1  0
 12 13  1  0
 12 58  1  0
 12 59  1  0
 13 14  1  0
 13 60  1  6
 14 16  1  0
 14 15  1  0
 14 61  1  1
 15 16  1  0
 16 17  1  0
 16 62  1  1
 17 45  1  0
 17 18  1  6
 17 19  1  0
 18 63  1  0
 19 20  1  0
 19 64  1  0
 19 65  1  0
 20 21  1  0
 20 66  1  6
 20 27  1  0
 21 22  1  0
 22 23  2  0
 22 24  1  0
 24 26  1  0
 24 25  1  0
 24 67  1  0
 25 26  1  0
 25 68  1  0
 25 69  1  0
 26 70  1  0
 26 71  1  0
 27 37  2  0
 27 28  1  0
 28 34  1  0
 28 29  1  0
 28 75  1  1
 29 33  1  0
 29 30  2  0
 30 31  1  0
 30 72  1  0
 31 32  2  0
 31 73  1  0
 32 33  1  0
 32 74  1  0
 34 35  1  0
 35 37  1  0
 35 36  2  0
 37 38  1  0
 38 39  1  1
 38 40  1  0
 38 44  1  0
 39 76  1  0
 40 41  1  0
 40 42  1  0
 40 77  1  1
 42 43  2  0
 44 45  1  0
 44 78  1  1
 45 47  1  1
 45 46  1  0
 46 47  1  0
 46 79  1  0
 46 80  1  0
M  CHG  1  41  -1
M  END
>  <i_m_ct_stereo_status>  (160) 
1

>  <s_m_source_file>  (160) 
/var/tmp/pbs.5075288.sched01/tmp4tfr24xl/130i3iej58d.sdf

>  <i_m_source_file_index>  (160) 
59

>  <i_lp_mmshare_version>  (160) 
48012

>  <i_f3d_flags>  (160) 
0

>  <s_epik_input>  (160) 
TzFbQ0gyXUMxMltDQF0zKFtPSF0pW0NAQEhdNFtDQEBIXShPNClbQ0BASF01W0NAXShbQ0BASF0oW09IXSlbQ0gyXTUpKE9DKD1PKVtDSDNdKVtDSDJdW0NAXTYoT1tDSDNdKVtDQEBIXTJbQ0BdKFtPSF0pKFtDQEBIXShbT0hdKVtTK102W08tXSljN2MoYyhvYzdbT0hdKS1jOFtjSF1bY0hdW2NIXXM4KVtDQEBIXShbQ0gyXTMpT0MoPU8pW0NIXTlbQ0gyXVtDSDJdOQ==

>  <s_epik_cmdline>  (160) 
J2VwaWtfcHl0aG9uJywgJy1waHQnLCAnMi4wJywgJy1waCcsICc3LjAnLCAnLXRuJywgJzgnLCAnLW1hJywgJzIwMCcsICctaW1hZScsICc8aW5maWxlLm1hZT4nLCAnLW9tYWUnLCAnPG91dGZpbGUubWFlPic=

>  <r_lp_tautomer_probability>  (160) 
0.999841

>  <r_epik_Ionization_Penalty>  (160) 
0.0397111

>  <r_epik_Ionization_Penalty_Charging>  (160) 
0.0389454

>  <r_epik_Ionization_Penalty_Neutral>  (160) 
0.000765736

>  <r_epik_State_Penalty>  (160) 
0.0704439

>  <r_epik_Charging_Adjusted_Penalty>  (160) 
0.109389

>  <i_epik_Tot_Q>  (160) 
-1

>  <i_epik_Tot_abs_Q>  (160) 
1

>  <s_epik_Chemistry_Notes>  (160) 
This compound has an ester and may undergo hydrolysis at high or low pH. This compound contains an acetal/aminal-like group ( X-CH(R)-Y where X, Y are N, S, or O) that may be acid/base labile, releasing an aldehyde.

>  <s_lp_Force_Field>  (160) 
OPLS3e

>  <r_lp_Energy>  (160) 
110.306

>  <b_lp_Chiralities_Consistent>  (160) 
1

>  <s_lp_Variant>  (160) 
75:0-2

>  <s_i_glide_gridfile>  (160) 
pfpi4k_grid

>  <i_i_glide_lignum>  (160) 
59

>  <i_i_glide_rotatable_bonds>  (160) 
10

>  <r_i_docking_score>  (160) 
-3.07763

>  <r_i_glide_ligand_efficiency>  (160) 
-0.0654815

>  <r_i_glide_ligand_efficiency_sa>  (160) 
-0.236311

>  <r_i_glide_ligand_efficiency_ln>  (160) 
-0.634544

>  <r_i_glide_gscore>  (160) 
-3.07763

>  <r_i_glide_lipo>  (160) 
-0.113665

>  <r_i_glide_hbond>  (160) 
-0.0658462

>  <r_i_glide_metal>  (160) 
-0

>  <r_i_glide_rewards>  (160) 
-1.51613

>  <r_i_glide_evdw>  (160) 
-30.4664

>  <r_i_glide_ecoul>  (160) 
1.20794

>  <r_i_glide_erotb>  (160) 
0.0500867

>  <r_i_glide_esite>  (160) 
-0.089952

>  <r_i_glide_emodel>  (160) 
-41.5826

>  <r_i_glide_energy>  (160) 
-29.2584

>  <r_i_glide_einternal>  (160) 
13.9197

>  <r_i_glide_intrahb_reward>  (160) 
-1.5

>  <i_i_glide_confnum>  (160) 
3

>  <i_i_glide_posenum>  (160) 
3

>  <r_i_glide_eff_state_penalty>  (160) 
0

>  <ligand_id>  (160) 
75

>  <original_smiles>  (160) 
COC12CC3(OC(C)=O)C(O)CC3C3OC3C3(O)CC(OC(=O)C4CC4)c4c(-c5cccs5)oc(O)c4C(O)(C(O)[S+]1[O-])C2C31CO1

>  <smiles>  (160) 
[H]OC1([H])C([H])([H])C2([H])C3([H])OC3([H])C3(O[H])C([H])([H])C([H])(OC(=O)C4([H])C([H])([H])C4([H])[H])C4=C(C(=O)OC4([H])c4sc([H])c([H])c4[H])C4(O[H])C([H])([O-])S(=O)C(OC([H])([H])[H])(C([H])([H])C12OC(=O)C([H])([H])[H])C4([H])C31OC1([H])[H]

$$$$
75:1:2
     RDKit          3D

 80 88  0  0  1  0  0  0  0  0999 V2000
    3.8011   -4.2962    2.6550 C   0  0  0  0  0  0  0  0  0  0  0  0
    3.0279   -4.4012    3.8470 O   0  0  0  0  0  0  0  0  0  0  0  0
    3.4280   -3.6345    4.9863 C   0  0  2  0  0  0  0  0  0  0  0  0
    3.0593   -2.0833    4.8918 C   0  0  0  0  0  0  0  0  0  0  0  0
    1.8334   -1.4196    4.1187 C   0  0  2  0  0  0  0  0  0  0  0  0
    1.6854   -1.9077    2.7702 O   0  0  0  0  0  0  0  0  0  0  0  0
    2.5206   -1.7307    1.7224 C   0  0  0  0  0  0  0  0  0  0  0  0
    3.7138   -0.7945    1.8948 C   0  0  0  0  0  0  0  0  0  0  0  0
    2.4385   -2.4312    0.6991 O   0  0  0  0  0  0  0  0  0  0  0  0
    1.9184    0.1553    4.1682 C   0  0  1  0  0  0  0  0  0  0  0  0
    1.5293    0.9630    3.0621 O   0  0  0  0  0  0  0  0  0  0  0  0
    0.9026    0.1531    5.2939 C   0  0  0  0  0  0  0  0  0  0  0  0
    0.3593   -1.1290    4.6701 C   0  0  2  0  0  0  0  0  0  0  0  0
   -0.6741   -1.9020    5.5049 C   0  0  2  0  0  0  0  0  0  0  0  0
   -0.2516   -2.1250    6.8293 O   0  0  0  0  0  0  0  0  0  0  0  0
   -0.6726   -3.3103    6.1377 C   0  0  2  0  0  0  0  0  0  0  0  0
    0.4003   -4.3598    5.8622 C   0  0  2  0  0  0  0  0  0  0  0  0
    0.6131   -4.1099    4.4953 O   0  0  0  0  0  0  0  0  0  0  0  0
   -0.1056   -5.8167    5.8085 C   0  0  0  0  0  0  0  0  0  0  0  0
    0.8818   -6.8963    5.2578 C   0  0  1  0  0  0  0  0  0  0  0  0
    1.3407   -6.6714    3.9190 O   0  0  0  0  0  0  0  0  0  0  0  0
    0.6690   -7.0939    2.8207 C   0  0  0  0  0  0  0  0  0  0  0  0
    0.8920   -6.6415    1.6840 O   0  0  0  0  0  0  0  0  0  0  0  0
   -0.3869   -8.1415    3.0673 C   0  0  0  0  0  0  0  0  0  0  0  0
   -1.2344   -8.6352    1.9227 C   0  0  0  0  0  0  0  0  0  0  0  0
   -1.8257   -7.7034    2.9537 C   0  0  0  0  0  0  0  0  0  0  0  0
    1.9954   -7.4683    6.1359 C   0  0  0  0  0  0  0  0  0  0  0  0
    1.8646   -8.9327    6.4615 C   0  0  1  0  0  0  0  0  0  0  0  0
    2.0135   -9.8524    5.2665 C   0  0  0  0  0  0  0  0  0  0  0  0
    1.1084  -10.7424    4.7753 C   0  0  0  0  0  0  0  0  0  0  0  0
    1.5838  -11.4594    3.6249 C   0  0  0  0  0  0  0  0  0  0  0  0
    2.8461  -11.1192    3.2860 C   0  0  0  0  0  0  0  0  0  0  0  0
    3.4904   -9.8823    4.3340 S   0  0  0  0  0  0  0  0  0  0  0  0
    2.9325   -9.1747    7.3343 O   0  0  0  0  0  0  0  0  0  0  0  0
    3.7284   -8.1158    7.4508 C   0  0  0  0  0  0  0  0  0  0  0  0
    4.7530   -8.1215    8.1415 O   0  0  0  0  0  0  0  0  0  0  0  0
    3.1481   -6.9830    6.6727 C   0  0  0  0  0  0  0  0  0  0  0  0
    3.8550   -5.5727    6.6874 C   0  0  1  0  0  0  0  0  0  0  0  0
    4.3072   -5.3133    8.0194 O   0  0  0  0  0  0  0  0  0  0  0  0
    5.1805   -5.5173    5.8253 C   0  0  1  0  0  0  0  0  0  0  0  0
    5.1422   -6.3562    4.8482 O   0  0  0  0  0  0  0  0  0  0  0  0
    5.2786   -3.7448    5.2306 S   0  0  0  0  0  0  0  0  0  0  0  0
    5.7057   -2.8415    6.3665 O   0  0  0  0  0  0  0  0  0  0  0  0
    3.0085   -4.2961    6.3400 C   0  0  2  0  0  0  0  0  0  0  0  0
    1.5669   -4.2707    6.8709 C   0  0  1  0  0  0  0  0  0  0  0  0
    1.3410   -3.7691    8.3180 C   0  0  0  0  0  0  0  0  0  0  0  0
    1.3818   -5.1341    8.0220 O   0  0  0  0  0  0  0  0  0  0  0  0
    3.1302   -4.4686    1.8170 H   0  0  0  0  0  0  0  0  0  0  0  0
    4.6264   -5.0119    2.6049 H   0  0  0  0  0  0  0  0  0  0  0  0
    4.2200   -3.3094    2.5771 H   0  0  0  0  0  0  0  0  0  0  0  0
    3.0692   -1.6672    5.9009 H   0  0  0  0  0  0  0  0  0  0  0  0
    3.9439   -1.6166    4.4524 H   0  0  0  0  0  0  0  0  0  0  0  0
    3.4412    0.1499    2.3640 H   0  0  0  0  0  0  0  0  0  0  0  0
    4.1430   -0.5618    0.9175 H   0  0  0  0  0  0  0  0  0  0  0  0
    4.4923   -1.2788    2.4731 H   0  0  0  0  0  0  0  0  0  0  0  0
    2.8890    0.5008    4.5191 H   0  0  0  0  0  0  0  0  0  0  0  0
    0.7812    0.5655    2.6373 H   0  0  0  0  0  0  0  0  0  0  0  0
    1.3478    0.0341    6.2821 H   0  0  0  0  0  0  0  0  0  0  0  0
    0.2100    0.9990    5.2744 H   0  0  0  0  0  0  0  0  0  0  0  0
   -0.2200   -0.8595    3.7812 H   0  0  0  0  0  0  0  0  0  0  0  0
   -1.6496   -1.4255    5.4601 H   0  0  0  0  0  0  0  0  0  0  0  0
   -1.6255   -3.7011    6.4857 H   0  0  0  0  0  0  0  0  0  0  0  0
    1.3941   -4.5900    4.2258 H   0  0  0  0  0  0  0  0  0  0  0  0
   -0.4811   -6.1328    6.7846 H   0  0  0  0  0  0  0  0  0  0  0  0
   -0.9840   -5.8479    5.1605 H   0  0  0  0  0  0  0  0  0  0  0  0
    0.2131   -7.7556    5.2373 H   0  0  0  0  0  0  0  0  0  0  0  0
   -0.1563   -8.8939    3.8195 H   0  0  0  0  0  0  0  0  0  0  0  0
   -1.0110   -8.2542    0.9245 H   0  0  0  0  0  0  0  0  0  0  0  0
   -1.5157   -9.6823    1.9585 H   0  0  0  0  0  0  0  0  0  0  0  0
   -2.5230   -8.1191    3.6800 H   0  0  0  0  0  0  0  0  0  0  0  0
   -2.0254   -6.6723    2.6501 H   0  0  0  0  0  0  0  0  0  0  0  0
    0.1232  -10.9213    5.1760 H   0  0  0  0  0  0  0  0  0  0  0  0
    0.9796  -12.2031    3.1193 H   0  0  0  0  0  0  0  0  0  0  0  0
    3.4586  -11.5240    2.4753 H   0  0  0  0  0  0  0  0  0  0  0  0
    0.9230   -9.1211    6.9635 H   0  0  0  0  0  0  0  0  0  0  0  0
    3.5373   -5.2661    8.5615 H   0  0  0  0  0  0  0  0  0  0  0  0
    6.0516   -5.5954    6.4853 H   0  0  0  0  0  0  0  0  0  0  0  0
    3.4169   -3.5303    7.0005 H   0  0  0  0  0  0  0  0  0  0  0  0
    2.1920   -3.4223    8.8994 H   0  0  0  0  0  0  0  0  0  0  0  0
    0.3599   -3.4548    8.6660 H   0  0  0  0  0  0  0  0  0  0  0  0
  1  2  1  0
  1 48  1  0
  1 49  1  0
  1 50  1  0
  3  2  1  6
 42  3  1  1
  3 44  1  0
  3  4  1  0
  4  5  1  0
  4 51  1  0
  4 52  1  0
  5 13  1  0
  5  6  1  6
  5 10  1  0
  6  7  1  0
  7  8  1  0
  7  9  2  0
  8 53  1  0
  8 54  1  0
  8 55  1  0
 10 11  1  0
 10 12  1  0
 10 56  1  1
 11 57  1  0
 12 13  1  0
 12 58  1  0
 12 59  1  0
 13 14  1  0
 13 60  1  6
 14 16  1  0
 14 15  1  0
 14 61  1  1
 15 16  1  0
 16 17  1  0
 16 62  1  1
 17 45  1  0
 17 18  1  6
 17 19  1  0
 18 63  1  0
 19 20  1  0
 19 64  1  0
 19 65  1  0
 20 21  1  0
 20 66  1  6
 20 27  1  0
 21 22  1  0
 22 23  2  0
 22 24  1  0
 24 26  1  0
 24 25  1  0
 24 67  1  0
 25 26  1  0
 25 68  1  0
 25 69  1  0
 26 70  1  0
 26 71  1  0
 27 37  2  0
 27 28  1  0
 28 34  1  0
 28 29  1  0
 28 75  1  1
 29 33  1  0
 29 30  2  0
 30 31  1  0
 30 72  1  0
 31 32  2  0
 31 73  1  0
 32 33  1  0
 32 74  1  0
 34 35  1  0
 35 37  1  0
 35 36  2  0
 37 38  1  0
 38 39  1  1
 38 40  1  0
 38 44  1  0
 39 76  1  0
 40 41  1  0
 40 42  1  0
 40 77  1  1
 42 43  2  0
 44 45  1  0
 44 78  1  1
 45 47  1  1
 45 46  1  0
 46 47  1  0
 46 79  1  0
 46 80  1  0
M  CHG  1  41  -1
M  END
>  <i_m_ct_stereo_status>  (161) 
1

>  <s_m_source_file>  (161) 
/var/tmp/pbs.5075288.sched01/tmp4tfr24xl/130i3iej58d.sdf

>  <i_m_source_file_index>  (161) 
59

>  <i_lp_mmshare_version>  (161) 
48012

>  <i_f3d_flags>  (161) 
0

>  <s_epik_input>  (161) 
TzFbQ0gyXUMxMltDQF0zKFtPSF0pW0NAQEhdNFtDQEBIXShPNClbQ0BASF01W0NAXShbQ0BASF0oW09IXSlbQ0gyXTUpKE9DKD1PKVtDSDNdKVtDSDJdW0NAXTYoT1tDSDNdKVtDQEBIXTJbQ0BdKFtPSF0pKFtDQEBIXShbT0hdKVtTK102W08tXSljN2MoYyhvYzdbT0hdKS1jOFtjSF1bY0hdW2NIXXM4KVtDQEBIXShbQ0gyXTMpT0MoPU8pW0NIXTlbQ0gyXVtDSDJdOQ==

>  <s_epik_cmdline>  (161) 
J2VwaWtfcHl0aG9uJywgJy1waHQnLCAnMi4wJywgJy1waCcsICc3LjAnLCAnLXRuJywgJzgnLCAnLW1hJywgJzIwMCcsICctaW1hZScsICc8aW5maWxlLm1hZT4nLCAnLW9tYWUnLCAnPG91dGZpbGUubWFlPic=

>  <r_lp_tautomer_probability>  (161) 
0.999841

>  <r_epik_Ionization_Penalty>  (161) 
0.0397111

>  <r_epik_Ionization_Penalty_Charging>  (161) 
0.0389454

>  <r_epik_Ionization_Penalty_Neutral>  (161) 
0.000765736

>  <r_epik_State_Penalty>  (161) 
0.0704439

>  <r_epik_Charging_Adjusted_Penalty>  (161) 
0.109389

>  <i_epik_Tot_Q>  (161) 
-1

>  <i_epik_Tot_abs_Q>  (161) 
1

>  <s_epik_Chemistry_Notes>  (161) 
This compound has an ester and may undergo hydrolysis at high or low pH. This compound contains an acetal/aminal-like group ( X-CH(R)-Y where X, Y are N, S, or O) that may be acid/base labile, releasing an aldehyde.

>  <s_lp_Force_Field>  (161) 
OPLS3e

>  <r_lp_Energy>  (161) 
110.306

>  <b_lp_Chiralities_Consistent>  (161) 
1

>  <s_lp_Variant>  (161) 
75:0-2

>  <s_i_glide_gridfile>  (161) 
pfpi4k_grid

>  <i_i_glide_lignum>  (161) 
59

>  <i_i_glide_rotatable_bonds>  (161) 
10

>  <r_i_docking_score>  (161) 
-3.07266

>  <r_i_glide_ligand_efficiency>  (161) 
-0.0653757

>  <r_i_glide_ligand_efficiency_sa>  (161) 
-0.23593

>  <r_i_glide_ligand_efficiency_ln>  (161) 
-0.633519

>  <r_i_glide_gscore>  (161) 
-3.07266

>  <r_i_glide_lipo>  (161) 
-0.126493

>  <r_i_glide_hbond>  (161) 
-0.008554

>  <r_i_glide_metal>  (161) 
-0

>  <r_i_glide_rewards>  (161) 
-1.51366

>  <r_i_glide_evdw>  (161) 
-31.4686

>  <r_i_glide_ecoul>  (161) 
1.25706

>  <r_i_glide_erotb>  (161) 
0.0500867

>  <r_i_glide_esite>  (161) 
-0.0891676

>  <r_i_glide_emodel>  (161) 
-43.4286

>  <r_i_glide_energy>  (161) 
-30.2116

>  <r_i_glide_einternal>  (161) 
12.1063

>  <r_i_glide_intrahb_reward>  (161) 
-1.5

>  <i_i_glide_confnum>  (161) 
3

>  <i_i_glide_posenum>  (161) 
7

>  <r_i_glide_eff_state_penalty>  (161) 
0

>  <ligand_id>  (161) 
75

>  <original_smiles>  (161) 
COC12CC3(OC(C)=O)C(O)CC3C3OC3C3(O)CC(OC(=O)C4CC4)c4c(-c5cccs5)oc(O)c4C(O)(C(O)[S+]1[O-])C2C31CO1

>  <smiles>  (161) 
[H]OC1([H])C([H])([H])C2([H])C3([H])OC3([H])C3(O[H])C([H])([H])C([H])(OC(=O)C4([H])C([H])([H])C4([H])[H])C4=C(C(=O)OC4([H])c4sc([H])c([H])c4[H])C4(O[H])C([H])([O-])S(=O)C(OC([H])([H])[H])(C([H])([H])C12OC(=O)C([H])([H])[H])C4([H])C31OC1([H])[H]

$$$$
75:2:0
     RDKit          3D

 80 88  0  0  1  0  0  0  0  0999 V2000
    5.3867   -8.3839    5.1479 C   0  0  0  0  0  0  0  0  0  0  0  0
    4.6216   -7.4502    4.3925 O   0  0  0  0  0  0  0  0  0  0  0  0
    4.3010   -7.8262    3.0462 C   0  0  2  0  0  0  0  0  0  0  0  0
    3.1671   -8.9453    2.9743 C   0  0  0  0  0  0  0  0  0  0  0  0
    1.9443   -9.1610    3.9906 C   0  0  2  0  0  0  0  0  0  0  0  0
    2.3631   -9.2425    5.3741 O   0  0  0  0  0  0  0  0  0  0  0  0
    3.1127  -10.2336    5.9685 C   0  0  0  0  0  0  0  0  0  0  0  0
    3.3990  -11.5159    5.1485 C   0  0  0  0  0  0  0  0  0  0  0  0
    3.5298  -10.0980    7.1286 O   0  0  0  0  0  0  0  0  0  0  0  0
    1.0843  -10.3975    3.5107 C   0  0  1  0  0  0  0  0  0  0  0  0
    0.5092  -11.3331    4.4019 O   0  0  0  0  0  0  0  0  0  0  0  0
    0.0677   -9.4549    2.9006 C   0  0  0  0  0  0  0  0  0  0  0  0
    0.5061   -8.4768    3.9884 C   0  0  2  0  0  0  0  0  0  0  0  0
   -0.0673   -7.0475    3.9764 C   0  0  2  0  0  0  0  0  0  0  0  0
   -0.0957   -6.4757    2.6675 O   0  0  0  0  0  0  0  0  0  0  0  0
    0.5759   -5.6793    3.6411 C   0  0  2  0  0  0  0  0  0  0  0  0
    2.0887   -5.4774    3.5493 C   0  0  2  0  0  0  0  0  0  0  0  0
    2.4693   -6.2162    4.6760 O   0  0  0  0  0  0  0  0  0  0  0  0
    2.5262   -4.0589    3.9850 C   0  0  0  0  0  0  0  0  0  0  0  0
    4.0491   -3.8010    4.1839 C   0  0  1  0  0  0  0  0  0  0  0  0
    4.7144   -4.6787    5.0864 O   0  0  0  0  0  0  0  0  0  0  0  0
    5.6138   -4.2221    5.9948 C   0  0  0  0  0  0  0  0  0  0  0  0
    5.9231   -3.0400    6.1628 O   0  0  0  0  0  0  0  0  0  0  0  0
    6.2170   -5.3380    6.8140 C   0  0  0  0  0  0  0  0  0  0  0  0
    6.5354   -5.0700    8.2743 C   0  0  0  0  0  0  0  0  0  0  0  0
    7.6565   -5.2038    7.2811 C   0  0  0  0  0  0  0  0  0  0  0  0
    4.8969   -3.5220    2.9486 C   0  0  0  0  0  0  0  0  0  0  0  0
    5.3860   -2.1063    2.7894 C   0  0  2  0  0  0  0  0  0  0  0  0
    4.3283   -1.0667    2.5298 C   0  0  0  0  0  0  0  0  0  0  0  0
    3.9594   -0.0144    3.3312 C   0  0  0  0  0  0  0  0  0  0  0  0
    2.9279    0.7913    2.7582 C   0  0  0  0  0  0  0  0  0  0  0  0
    2.5228    0.3391    1.5343 C   0  0  0  0  0  0  0  0  0  0  0  0
    3.4163   -1.0664    1.0391 S   0  0  0  0  0  0  0  0  0  0  0  0
    6.2069   -2.1665    1.6433 O   0  0  0  0  0  0  0  0  0  0  0  0
    6.2769   -3.4025    1.1491 C   0  0  0  0  0  0  0  0  0  0  0  0
    6.9486   -3.6850    0.1543 O   0  0  0  0  0  0  0  0  0  0  0  0
    5.4457   -4.3170    1.9885 C   0  0  0  0  0  0  0  0  0  0  0  0
    5.3054   -5.8383    1.6229 C   0  0  1  0  0  0  0  0  0  0  0  0
    5.2708   -5.9371    0.1998 O   0  0  0  0  0  0  0  0  0  0  0  0
    6.5554   -6.7308    1.9896 C   0  0  1  0  0  0  0  0  0  0  0  0
    7.0726   -6.2831    3.0882 O   0  0  0  0  0  0  0  0  0  0  0  0
    5.8441   -8.4493    2.2011 S   0  0  0  0  0  0  0  0  0  0  0  0
    5.4543   -9.0002    0.8066 O   0  0  0  0  0  0  0  0  0  0  0  0
    4.0143   -6.6104    2.1058 C   0  0  2  0  0  0  0  0  0  0  0  0
    2.6974   -5.8378    2.1712 C   0  0  2  0  0  0  0  0  0  0  0  0
    2.4268   -4.8840    1.0123 C   0  0  0  0  0  0  0  0  0  0  0  0
    1.7725   -6.1461    1.1030 O   0  0  0  0  0  0  0  0  0  0  0  0
    5.0984   -8.2542    6.1900 H   0  0  0  0  0  0  0  0  0  0  0  0
    6.4708   -8.2898    5.0786 H   0  0  0  0  0  0  0  0  0  0  0  0
    5.1760   -9.4034    4.8453 H   0  0  0  0  0  0  0  0  0  0  0  0
    2.7747   -8.9578    1.9552 H   0  0  0  0  0  0  0  0  0  0  0  0
    3.7411   -9.8672    2.9765 H   0  0  0  0  0  0  0  0  0  0  0  0
    2.5211  -11.8743    4.5971 H   0  0  0  0  0  0  0  0  0  0  0  0
    3.6510  -12.3530    5.8099 H   0  0  0  0  0  0  0  0  0  0  0  0
    4.1872  -11.3214    4.4170 H   0  0  0  0  0  0  0  0  0  0  0  0
    1.6172  -10.9494    2.7510 H   0  0  0  0  0  0  0  0  0  0  0  0
   -0.1754  -10.8880    4.8984 H   0  0  0  0  0  0  0  0  0  0  0  0
    0.3292   -9.1359    1.8868 H   0  0  0  0  0  0  0  0  0  0  0  0
   -0.9560   -9.8199    3.0004 H   0  0  0  0  0  0  0  0  0  0  0  0
    0.1054   -8.8402    4.9421 H   0  0  0  0  0  0  0  0  0  0  0  0
   -1.0579   -7.0118    4.4403 H   0  0  0  0  0  0  0  0  0  0  0  0
    0.0089   -4.8174    3.9701 H   0  0  0  0  0  0  0  0  0  0  0  0
    3.4206   -6.3011    4.6830 H   0  0  0  0  0  0  0  0  0  0  0  0
    2.1377   -3.3128    3.2966 H   0  0  0  0  0  0  0  0  0  0  0  0
    2.0354   -3.8170    4.9292 H   0  0  0  0  0  0  0  0  0  0  0  0
    4.0399   -2.8328    4.6876 H   0  0  0  0  0  0  0  0  0  0  0  0
    5.8850   -6.3395    6.5726 H   0  0  0  0  0  0  0  0  0  0  0  0
    6.3359   -4.0803    8.6778 H   0  0  0  0  0  0  0  0  0  0  0  0
    6.3975   -5.8908    8.9744 H   0  0  0  0  0  0  0  0  0  0  0  0
    8.2519   -6.1126    7.3315 H   0  0  0  0  0  0  0  0  0  0  0  0
    8.2086   -4.3048    7.0188 H   0  0  0  0  0  0  0  0  0  0  0  0
    4.3936    0.2096    4.2938 H   0  0  0  0  0  0  0  0  0  0  0  0
    2.5330    1.6603    3.2580 H   0  0  0  0  0  0  0  0  0  0  0  0
    1.7626    0.7467    0.8825 H   0  0  0  0  0  0  0  0  0  0  0  0
    5.9678   -1.8188    3.6636 H   0  0  0  0  0  0  0  0  0  0  0  0
    4.4394   -5.6347   -0.1238 H   0  0  0  0  0  0  0  0  0  0  0  0
    7.2028   -6.8065    1.0915 H   0  0  0  0  0  0  0  0  0  0  0  0
    3.7686   -7.2036    1.2195 H   0  0  0  0  0  0  0  0  0  0  0  0
    1.8250   -3.9980    1.2138 H   0  0  0  0  0  0  0  0  0  0  0  0
    3.0743   -4.8028    0.1412 H   0  0  0  0  0  0  0  0  0  0  0  0
  1  2  1  0
  1 48  1  0
  1 49  1  0
  1 50  1  0
  3  2  1  1
 42  3  1  1
  3 44  1  0
  3  4  1  0
  4  5  1  0
  4 51  1  0
  4 52  1  0
  5 13  1  0
  5  6  1  1
  5 10  1  0
  6  7  1  0
  7  8  1  0
  7  9  2  0
  8 53  1  0
  8 54  1  0
  8 55  1  0
 10 11  1  0
 10 12  1  0
 10 56  1  6
 11 57  1  0
 12 13  1  0
 12 58  1  0
 12 59  1  0
 13 14  1  0
 13 60  1  1
 14 16  1  0
 14 15  1  0
 14 61  1  1
 15 16  1  0
 16 17  1  0
 16 62  1  1
 17 45  1  0
 17 18  1  1
 17 19  1  0
 18 63  1  0
 19 20  1  0
 19 64  1  0
 19 65  1  0
 20 21  1  0
 20 66  1  1
 20 27  1  0
 21 22  1  0
 22 23  2  0
 22 24  1  0
 24 26  1  0
 24 25  1  0
 24 67  1  0
 25 26  1  0
 25 68  1  0
 25 69  1  0
 26 70  1  0
 26 71  1  0
 27 37  2  0
 27 28  1  0
 28 34  1  0
 28 29  1  0
 28 75  1  1
 29 33  1  0
 29 30  2  0
 30 31  1  0
 30 72  1  0
 31 32  2  0
 31 73  1  0
 32 33  1  0
 32 74  1  0
 34 35  1  0
 35 37  1  0
 35 36  2  0
 37 38  1  0
 38 39  1  6
 38 40  1  0
 38 44  1  0
 39 76  1  0
 40 41  1  0
 40 42  1  0
 40 77  1  6
 42 43  2  0
 44 45  1  0
 44 78  1  6
 45 47  1  6
 45 46  1  0
 46 47  1  0
 46 79  1  0
 46 80  1  0
M  CHG  1  41  -1
M  END
>  <i_m_ct_stereo_status>  (162) 
1

>  <s_m_source_file>  (162) 
/var/tmp/pbs.5075288.sched01/tmp4tfr24xl/130i3iej58d.sdf

>  <i_m_source_file_index>  (162) 
60

>  <i_lp_mmshare_version>  (162) 
48012

>  <i_f3d_flags>  (162) 
0

>  <s_epik_input>  (162) 
TzFbQ0gyXUMxMltDQF0zKFtPSF0pW0NAQEhdNFtDQEBIXShPNClbQ0BASF01W0NAXShbQ0BASF0oW09IXSlbQ0gyXTUpKE9DKD1PKVtDSDNdKVtDSDJdW0NAXTYoT1tDSDNdKVtDQEBIXTJbQ0BdKFtPSF0pKFtDQEBIXShbT0hdKVtTK102W08tXSljN2MoYyhvYzdbT0hdKS1jOFtjSF1bY0hdW2NIXXM4KVtDQEBIXShbQ0gyXTMpT0MoPU8pW0NIXTlbQ0gyXVtDSDJdOQ==

>  <s_epik_cmdline>  (162) 
J2VwaWtfcHl0aG9uJywgJy1waHQnLCAnMi4wJywgJy1waCcsICc3LjAnLCAnLXRuJywgJzgnLCAnLW1hJywgJzIwMCcsICctaW1hZScsICc8aW5maWxlLm1hZT4nLCAnLW9tYWUnLCAnPG91dGZpbGUubWFlPic=

>  <r_lp_tautomer_probability>  (162) 
0.999841

>  <r_epik_Ionization_Penalty>  (162) 
0.0397111

>  <r_epik_Ionization_Penalty_Charging>  (162) 
0.0389454

>  <r_epik_Ionization_Penalty_Neutral>  (162) 
0.000765736

>  <r_epik_State_Penalty>  (162) 
0.0704439

>  <r_epik_Charging_Adjusted_Penalty>  (162) 
0.109389

>  <i_epik_Tot_Q>  (162) 
-1

>  <i_epik_Tot_abs_Q>  (162) 
1

>  <s_epik_Chemistry_Notes>  (162) 
This compound has an ester and may undergo hydrolysis at high or low pH. This compound contains an acetal/aminal-like group ( X-CH(R)-Y where X, Y are N, S, or O) that may be acid/base labile, releasing an aldehyde.

>  <s_lp_Force_Field>  (162) 
OPLS3e

>  <r_lp_Energy>  (162) 
110.764

>  <b_lp_Chiralities_Consistent>  (162) 
1

>  <s_lp_Variant>  (162) 
75:0-3

>  <s_i_glide_gridfile>  (162) 
pfpi4k_grid

>  <i_i_glide_lignum>  (162) 
60

>  <i_i_glide_rotatable_bonds>  (162) 
10

>  <r_i_docking_score>  (162) 
-4.52131

>  <r_i_glide_ligand_efficiency>  (162) 
-0.0961981

>  <r_i_glide_ligand_efficiency_sa>  (162) 
-0.347162

>  <r_i_glide_ligand_efficiency_ln>  (162) 
-0.932201

>  <r_i_glide_gscore>  (162) 
-4.52131

>  <r_i_glide_lipo>  (162) 
-0.434054

>  <r_i_glide_hbond>  (162) 
-0.170089

>  <r_i_glide_metal>  (162) 
-0

>  <r_i_glide_rewards>  (162) 
-1.16348

>  <r_i_glide_evdw>  (162) 
-34.9205

>  <r_i_glide_ecoul>  (162) 
-6.67954

>  <r_i_glide_erotb>  (162) 
0.0500867

>  <r_i_glide_esite>  (162) 
-0.055822

>  <r_i_glide_emodel>  (162) 
-59.4059

>  <r_i_glide_energy>  (162) 
-41.6

>  <r_i_glide_einternal>  (162) 
5.91755

>  <r_i_glide_intrahb_reward>  (162) 
-1

>  <i_i_glide_confnum>  (162) 
3

>  <i_i_glide_posenum>  (162) 
2

>  <r_i_glide_eff_state_penalty>  (162) 
0

>  <ligand_id>  (162) 
75

>  <original_smiles>  (162) 
COC12CC3(OC(C)=O)C(O)CC3C3OC3C3(O)CC(OC(=O)C4CC4)c4c(-c5cccs5)oc(O)c4C(O)(C(O)[S+]1[O-])C2C31CO1

>  <smiles>  (162) 
[H]OC1([H])C([H])([H])C2([H])C3([H])OC3([H])C3(O[H])C([H])([H])C([H])(OC(=O)C4([H])C([H])([H])C4([H])[H])C4=C(C(=O)OC4([H])c4sc([H])c([H])c4[H])C4(O[H])C([H])([O-])S(=O)C(OC([H])([H])[H])(C([H])([H])C12OC(=O)C([H])([H])[H])C4([H])C31OC1([H])[H]

$$$$
75:2:1
     RDKit          3D

 80 88  0  0  1  0  0  0  0  0999 V2000
    5.2636   -8.3829    5.1975 C   0  0  0  0  0  0  0  0  0  0  0  0
    4.5276   -7.4271    4.4445 O   0  0  0  0  0  0  0  0  0  0  0  0
    4.2665   -7.7588    3.0875 C   0  0  2  0  0  0  0  0  0  0  0  0
    3.1387   -8.8726    3.0081 C   0  0  0  0  0  0  0  0  0  0  0  0
    1.8824   -9.0344    3.9981 C   0  0  2  0  0  0  0  0  0  0  0  0
    2.3843   -9.1703    5.3706 O   0  0  0  0  0  0  0  0  0  0  0  0
    1.6776   -9.4549    6.5316 C   0  0  0  0  0  0  0  0  0  0  0  0
    2.5637   -9.5378    7.7711 C   0  0  0  0  0  0  0  0  0  0  0  0
    0.4674   -9.6624    6.6556 O   0  0  0  0  0  0  0  0  0  0  0  0
    1.1088  -10.2997    3.4773 C   0  0  1  0  0  0  0  0  0  0  0  0
    0.6160  -11.3049    4.3462 O   0  0  0  0  0  0  0  0  0  0  0  0
    0.0598   -9.3852    2.8289 C   0  0  0  0  0  0  0  0  0  0  0  0
    0.4420   -8.3477    3.8710 C   0  0  2  0  0  0  0  0  0  0  0  0
   -0.0958   -6.8961    3.8629 C   0  0  2  0  0  0  0  0  0  0  0  0
   -0.1077   -6.2750    2.5770 O   0  0  0  0  0  0  0  0  0  0  0  0
    0.5779   -5.5345    3.5903 C   0  0  2  0  0  0  0  0  0  0  0  0
    2.0891   -5.3750    3.5351 C   0  0  2  0  0  0  0  0  0  0  0  0
    2.3635   -6.1282    4.6869 O   0  0  0  0  0  0  0  0  0  0  0  0
    2.5391   -3.9654    3.9687 C   0  0  0  0  0  0  0  0  0  0  0  0
    4.0644   -3.7279    4.1798 C   0  0  1  0  0  0  0  0  0  0  0  0
    4.7192   -4.6145    5.0772 O   0  0  0  0  0  0  0  0  0  0  0  0
    4.7057   -4.4079    6.4121 C   0  0  0  0  0  0  0  0  0  0  0  0
    4.1259   -3.4848    6.9879 O   0  0  0  0  0  0  0  0  0  0  0  0
    5.4956   -5.4593    7.1489 C   0  0  0  0  0  0  0  0  0  0  0  0
    4.9881   -5.9184    8.5043 C   0  0  0  0  0  0  0  0  0  0  0  0
    6.2268   -5.0714    8.4198 C   0  0  0  0  0  0  0  0  0  0  0  0
    4.9131   -3.4475    2.9498 C   0  0  0  0  0  0  0  0  0  0  0  0
    5.3990   -2.0332    2.7895 C   0  0  2  0  0  0  0  0  0  0  0  0
    4.3540   -1.0026    2.5237 C   0  0  0  0  0  0  0  0  0  0  0  0
    4.0382    0.0846    3.2967 C   0  0  0  0  0  0  0  0  0  0  0  0
    3.0088    0.8906    2.7297 C   0  0  0  0  0  0  0  0  0  0  0  0
    2.5470    0.4013    1.5360 C   0  0  0  0  0  0  0  0  0  0  0  0
    3.4124   -1.0298    1.0573 S   0  0  0  0  0  0  0  0  0  0  0  0
    6.2080   -2.0997    1.6418 O   0  0  0  0  0  0  0  0  0  0  0  0
    6.2961   -3.3401    1.1605 C   0  0  0  0  0  0  0  0  0  0  0  0
    6.9856   -3.6267    0.1746 O   0  0  0  0  0  0  0  0  0  0  0  0
    5.4686   -4.2532    2.0040 C   0  0  0  0  0  0  0  0  0  0  0  0
    5.3106   -5.7732    1.6551 C   0  0  1  0  0  0  0  0  0  0  0  0
    5.3040   -5.8645    0.2263 O   0  0  0  0  0  0  0  0  0  0  0  0
    6.5342   -6.6764    2.0112 C   0  0  1  0  0  0  0  0  0  0  0  0
    7.0549   -6.1960    3.1191 O   0  0  0  0  0  0  0  0  0  0  0  0
    5.8184   -8.3748    2.2560 S   0  0  0  0  0  0  0  0  0  0  0  0
    5.4172   -8.9090    0.8615 O   0  0  0  0  0  0  0  0  0  0  0  0
    4.0172   -6.5354    2.1342 C   0  0  2  0  0  0  0  0  0  0  0  0
    2.7241   -5.7385    2.1593 C   0  0  2  0  0  0  0  0  0  0  0  0
    2.4585   -4.7757    0.9928 C   0  0  0  0  0  0  0  0  0  0  0  0
    1.8358   -6.0409    1.0582 O   0  0  0  0  0  0  0  0  0  0  0  0
    5.0180   -8.2078    6.2404 H   0  0  0  0  0  0  0  0  0  0  0  0
    6.3484   -8.2906    5.0789 H   0  0  0  0  0  0  0  0  0  0  0  0
    4.9662   -9.4042    4.9671 H   0  0  0  0  0  0  0  0  0  0  0  0
    2.7802   -8.8858    1.9801 H   0  0  0  0  0  0  0  0  0  0  0  0
    3.6832   -9.8165    3.0616 H   0  0  0  0  0  0  0  0  0  0  0  0
    3.5358   -9.9863    7.5421 H   0  0  0  0  0  0  0  0  0  0  0  0
    2.0535  -10.1802    8.4857 H   0  0  0  0  0  0  0  0  0  0  0  0
    2.6718   -8.5458    8.2158 H   0  0  0  0  0  0  0  0  0  0  0  0
    1.6925  -10.8067    2.7158 H   0  0  0  0  0  0  0  0  0  0  0  0
   -0.0403  -10.9228    4.9200 H   0  0  0  0  0  0  0  0  0  0  0  0
    0.3133   -9.0979    1.8058 H   0  0  0  0  0  0  0  0  0  0  0  0
   -0.9579   -9.7548    2.9725 H   0  0  0  0  0  0  0  0  0  0  0  0
   -0.1169   -8.7241    4.7023 H   0  0  0  0  0  0  0  0  0  0  0  0
   -1.0489   -6.8349    4.3819 H   0  0  0  0  0  0  0  0  0  0  0  0
    0.0399   -4.6699    3.9773 H   0  0  0  0  0  0  0  0  0  0  0  0
    2.3349   -7.0488    4.4728 H   0  0  0  0  0  0  0  0  0  0  0  0
    2.1592   -3.2158    3.2771 H   0  0  0  0  0  0  0  0  0  0  0  0
    2.0456   -3.7249    4.9118 H   0  0  0  0  0  0  0  0  0  0  0  0
    4.0871   -2.7573    4.6741 H   0  0  0  0  0  0  0  0  0  0  0  0
    6.0013   -6.2021    6.5359 H   0  0  0  0  0  0  0  0  0  0  0  0
    4.0940   -5.4557    8.9205 H   0  0  0  0  0  0  0  0  0  0  0  0
    5.1265   -6.9668    8.7572 H   0  0  0  0  0  0  0  0  0  0  0  0
    7.1715   -5.5728    8.6165 H   0  0  0  0  0  0  0  0  0  0  0  0
    6.1643   -4.0440    8.7753 H   0  0  0  0  0  0  0  0  0  0  0  0
    4.5128    0.3441    4.2337 H   0  0  0  0  0  0  0  0  0  0  0  0
    2.6484    1.7912    3.2034 H   0  0  0  0  0  0  0  0  0  0  0  0
    1.7698    0.7962    0.8991 H   0  0  0  0  0  0  0  0  0  0  0  0
    5.9799   -1.7607    3.6654 H   0  0  0  0  0  0  0  0  0  0  0  0
    4.4828   -5.5509   -0.1012 H   0  0  0  0  0  0  0  0  0  0  0  0
    7.1520   -6.7823    1.1191 H   0  0  0  0  0  0  0  0  0  0  0  0
    3.7963   -7.1236    1.2416 H   0  0  0  0  0  0  0  0  0  0  0  0
    1.8248   -3.9271    1.1880 H   0  0  0  0  0  0  0  0  0  0  0  0
    3.0889   -4.6756    0.1115 H   0  0  0  0  0  0  0  0  0  0  0  0
  1  2  1  0
  1 48  1  0
  1 49  1  0
  1 50  1  0
  3  2  1  1
 42  3  1  1
  3 44  1  0
  3  4  1  0
  4  5  1  0
  4 51  1  0
  4 52  1  0
  5 13  1  0
  5  6  1  1
  5 10  1  0
  6  7  1  0
  7  8  1  0
  7  9  2  0
  8 53  1  0
  8 54  1  0
  8 55  1  0
 10 11  1  0
 10 12  1  0
 10 56  1  6
 11 57  1  0
 12 13  1  0
 12 58  1  0
 12 59  1  0
 13 14  1  0
 13 60  1  1
 14 16  1  0
 14 15  1  0
 14 61  1  1
 15 16  1  0
 16 17  1  0
 16 62  1  1
 17 45  1  0
 17 18  1  1
 17 19  1  0
 18 63  1  0
 19 20  1  0
 19 64  1  0
 19 65  1  0
 20 21  1  0
 20 66  1  1
 20 27  1  0
 21 22  1  0
 22 23  2  0
 22 24  1  0
 24 26  1  0
 24 25  1  0
 24 67  1  0
 25 26  1  0
 25 68  1  0
 25 69  1  0
 26 70  1  0
 26 71  1  0
 27 37  2  0
 27 28  1  0
 28 34  1  0
 28 29  1  0
 28 75  1  1
 29 33  1  0
 29 30  2  0
 30 31  1  0
 30 72  1  0
 31 32  2  0
 31 73  1  0
 32 33  1  0
 32 74  1  0
 34 35  1  0
 35 37  1  0
 35 36  2  0
 37 38  1  0
 38 39  1  6
 38 40  1  0
 38 44  1  0
 39 76  1  0
 40 41  1  0
 40 42  1  0
 40 77  1  6
 42 43  2  0
 44 45  1  0
 44 78  1  6
 45 47  1  6
 45 46  1  0
 46 47  1  0
 46 79  1  0
 46 80  1  0
M  CHG  1  41  -1
M  END
>  <i_m_ct_stereo_status>  (163) 
1

>  <s_m_source_file>  (163) 
/var/tmp/pbs.5075288.sched01/tmp4tfr24xl/130i3iej58d.sdf

>  <i_m_source_file_index>  (163) 
60

>  <i_lp_mmshare_version>  (163) 
48012

>  <i_f3d_flags>  (163) 
0

>  <s_epik_input>  (163) 
TzFbQ0gyXUMxMltDQF0zKFtPSF0pW0NAQEhdNFtDQEBIXShPNClbQ0BASF01W0NAXShbQ0BASF0oW09IXSlbQ0gyXTUpKE9DKD1PKVtDSDNdKVtDSDJdW0NAXTYoT1tDSDNdKVtDQEBIXTJbQ0BdKFtPSF0pKFtDQEBIXShbT0hdKVtTK102W08tXSljN2MoYyhvYzdbT0hdKS1jOFtjSF1bY0hdW2NIXXM4KVtDQEBIXShbQ0gyXTMpT0MoPU8pW0NIXTlbQ0gyXVtDSDJdOQ==

>  <s_epik_cmdline>  (163) 
J2VwaWtfcHl0aG9uJywgJy1waHQnLCAnMi4wJywgJy1waCcsICc3LjAnLCAnLXRuJywgJzgnLCAnLW1hJywgJzIwMCcsICctaW1hZScsICc8aW5maWxlLm1hZT4nLCAnLW9tYWUnLCAnPG91dGZpbGUubWFlPic=

>  <r_lp_tautomer_probability>  (163) 
0.999841

>  <r_epik_Ionization_Penalty>  (163) 
0.0397111

>  <r_epik_Ionization_Penalty_Charging>  (163) 
0.0389454

>  <r_epik_Ionization_Penalty_Neutral>  (163) 
0.000765736

>  <r_epik_State_Penalty>  (163) 
0.0704439

>  <r_epik_Charging_Adjusted_Penalty>  (163) 
0.109389

>  <i_epik_Tot_Q>  (163) 
-1

>  <i_epik_Tot_abs_Q>  (163) 
1

>  <s_epik_Chemistry_Notes>  (163) 
This compound has an ester and may undergo hydrolysis at high or low pH. This compound contains an acetal/aminal-like group ( X-CH(R)-Y where X, Y are N, S, or O) that may be acid/base labile, releasing an aldehyde.

>  <s_lp_Force_Field>  (163) 
OPLS3e

>  <r_lp_Energy>  (163) 
110.764

>  <b_lp_Chiralities_Consistent>  (163) 
1

>  <s_lp_Variant>  (163) 
75:0-3

>  <s_i_glide_gridfile>  (163) 
pfpi4k_grid

>  <i_i_glide_lignum>  (163) 
60

>  <i_i_glide_rotatable_bonds>  (163) 
10

>  <r_i_docking_score>  (163) 
-4.02136

>  <r_i_glide_ligand_efficiency>  (163) 
-0.0855609

>  <r_i_glide_ligand_efficiency_sa>  (163) 
-0.308774

>  <r_i_glide_ligand_efficiency_ln>  (163) 
-0.829122

>  <r_i_glide_gscore>  (163) 
-4.02136

>  <r_i_glide_lipo>  (163) 
-0.424705

>  <r_i_glide_hbond>  (163) 
-0.173851

>  <r_i_glide_metal>  (163) 
-0

>  <r_i_glide_rewards>  (163) 
-0.655769

>  <r_i_glide_evdw>  (163) 
-34.9816

>  <r_i_glide_ecoul>  (163) 
-6.65715

>  <r_i_glide_erotb>  (163) 
0.0500867

>  <r_i_glide_esite>  (163) 
-0.0694712

>  <r_i_glide_emodel>  (163) 
-46.3534

>  <r_i_glide_energy>  (163) 
-41.6388

>  <r_i_glide_einternal>  (163) 
19.434

>  <r_i_glide_intrahb_reward>  (163) 
-0.5

>  <i_i_glide_confnum>  (163) 
1

>  <i_i_glide_posenum>  (163) 
27

>  <r_i_glide_eff_state_penalty>  (163) 
0

>  <ligand_id>  (163) 
75

>  <original_smiles>  (163) 
COC12CC3(OC(C)=O)C(O)CC3C3OC3C3(O)CC(OC(=O)C4CC4)c4c(-c5cccs5)oc(O)c4C(O)(C(O)[S+]1[O-])C2C31CO1

>  <smiles>  (163) 
[H]OC1([H])C([H])([H])C2([H])C3([H])OC3([H])C3(O[H])C([H])([H])C([H])(OC(=O)C4([H])C([H])([H])C4([H])[H])C4=C(C(=O)OC4([H])c4sc([H])c([H])c4[H])C4(O[H])C([H])([O-])S(=O)C(OC([H])([H])[H])(C([H])([H])C12OC(=O)C([H])([H])[H])C4([H])C31OC1([H])[H]

$$$$
75:2:2
     RDKit          3D

 80 88  0  0  1  0  0  0  0  0999 V2000
    3.3111    2.1552    6.9436 C   0  0  0  0  0  0  0  0  0  0  0  0
    2.6367    1.1477    6.2031 O   0  0  0  0  0  0  0  0  0  0  0  0
    1.3129    0.8289    6.6140 C   0  0  2  0  0  0  0  0  0  0  0  0
    0.3148    2.0028    6.2444 C   0  0  0  0  0  0  0  0  0  0  0  0
    0.3889    2.9483    4.9638 C   0  0  2  0  0  0  0  0  0  0  0  0
    1.7109    3.5657    4.8734 O   0  0  0  0  0  0  0  0  0  0  0  0
    2.1022    4.5852    4.0319 C   0  0  0  0  0  0  0  0  0  0  0  0
    3.6250    4.6366    3.8349 C   0  0  0  0  0  0  0  0  0  0  0  0
    1.3962    5.4032    3.4768 O   0  0  0  0  0  0  0  0  0  0  0  0
   -0.8129    3.9499    5.1259 C   0  0  1  0  0  0  0  0  0  0  0  0
   -0.6344    5.3277    4.9192 O   0  0  0  0  0  0  0  0  0  0  0  0
   -1.6088    3.1577    4.0724 C   0  0  0  0  0  0  0  0  0  0  0  0
   -0.2530    2.7362    3.5232 C   0  0  2  0  0  0  0  0  0  0  0  0
   -0.1324    1.6662    2.4065 C   0  0  2  0  0  0  0  0  0  0  0  0
   -0.9664    0.5450    2.6311 O   0  0  0  0  0  0  0  0  0  0  0  0
    0.3875    0.2111    2.4070 C   0  0  2  0  0  0  0  0  0  0  0  0
    1.2049   -0.3573    3.5615 C   0  0  2  0  0  0  0  0  0  0  0  0
    2.0407    0.7616    3.7825 O   0  0  0  0  0  0  0  0  0  0  0  0
    2.2196   -1.4386    3.1113 C   0  0  0  0  0  0  0  0  0  0  0  0
    3.2746   -1.9250    4.1505 C   0  0  1  0  0  0  0  0  0  0  0  0
    4.0735   -0.9280    4.7713 O   0  0  0  0  0  0  0  0  0  0  0  0
    5.1288   -0.3742    4.1325 C   0  0  0  0  0  0  0  0  0  0  0  0
    5.4649   -0.6097    2.9671 O   0  0  0  0  0  0  0  0  0  0  0  0
    5.8541    0.6385    4.9876 C   0  0  0  0  0  0  0  0  0  0  0  0
    7.3598    0.7712    4.8631 C   0  0  0  0  0  0  0  0  0  0  0  0
    6.7601    0.1322    6.0906 C   0  0  0  0  0  0  0  0  0  0  0  0
    2.8377   -2.9761    5.1654 C   0  0  0  0  0  0  0  0  0  0  0  0
    3.4116   -4.3625    4.9721 C   0  0  2  0  0  0  0  0  0  0  0  0
    2.9282   -5.0979    3.7309 C   0  0  0  0  0  0  0  0  0  0  0  0
    3.5238   -5.1417    2.4964 C   0  0  0  0  0  0  0  0  0  0  0  0
    2.8273   -5.9612    1.5580 C   0  0  0  0  0  0  0  0  0  0  0  0
    1.7108   -6.5381    2.0842 C   0  0  0  0  0  0  0  0  0  0  0  0
    1.4666   -6.0674    3.7436 S   0  0  0  0  0  0  0  0  0  0  0  0
    2.9627   -5.0591    6.1038 O   0  0  0  0  0  0  0  0  0  0  0  0
    2.2109   -4.2876    6.9012 C   0  0  0  0  0  0  0  0  0  0  0  0
    1.6683   -4.6877    7.9259 O   0  0  0  0  0  0  0  0  0  0  0  0
    2.1541   -2.9117    6.3137 C   0  0  0  0  0  0  0  0  0  0  0  0
    1.3168   -1.7951    7.0399 C   0  0  1  0  0  0  0  0  0  0  0  0
    0.1564   -2.4114    7.5825 O   0  0  0  0  0  0  0  0  0  0  0  0
    1.9879   -1.1852    8.3058 C   0  0  1  0  0  0  0  0  0  0  0  0
    3.2903   -1.1628    8.1366 O   0  0  0  0  0  0  0  0  0  0  0  0
    1.2389    0.5353    8.4635 S   0  0  0  0  0  0  0  0  0  0  0  0
   -0.2025    0.3328    8.8565 O   0  0  0  0  0  0  0  0  0  0  0  0
    0.7953   -0.5935    6.1839 C   0  0  2  0  0  0  0  0  0  0  0  0
    0.3523   -0.8984    4.7447 C   0  0  2  0  0  0  0  0  0  0  0  0
   -0.4200   -2.1871    4.5125 C   0  0  0  0  0  0  0  0  0  0  0  0
   -1.0862   -0.9255    4.5859 O   0  0  0  0  0  0  0  0  0  0  0  0
    4.0321    2.6216    6.2835 H   0  0  0  0  0  0  0  0  0  0  0  0
    3.8395    1.7372    7.8064 H   0  0  0  0  0  0  0  0  0  0  0  0
    2.6353    2.9430    7.2733 H   0  0  0  0  0  0  0  0  0  0  0  0
   -0.6995    1.6073    6.3281 H   0  0  0  0  0  0  0  0  0  0  0  0
    0.3604    2.6769    7.1051 H   0  0  0  0  0  0  0  0  0  0  0  0
    4.2029    4.3813    4.7288 H   0  0  0  0  0  0  0  0  0  0  0  0
    3.9013    5.6383    3.4995 H   0  0  0  0  0  0  0  0  0  0  0  0
    3.8388    3.9489    3.0201 H   0  0  0  0  0  0  0  0  0  0  0  0
   -1.3101    3.8268    6.0967 H   0  0  0  0  0  0  0  0  0  0  0  0
   -0.0545    5.4191    4.1133 H   0  0  0  0  0  0  0  0  0  0  0  0
   -2.1942    2.3337    4.4808 H   0  0  0  0  0  0  0  0  0  0  0  0
   -2.1695    3.7872    3.3734 H   0  0  0  0  0  0  0  0  0  0  0  0
    0.0434    3.6159    2.9544 H   0  0  0  0  0  0  0  0  0  0  0  0
   -0.2345    2.0978    1.4117 H   0  0  0  0  0  0  0  0  0  0  0  0
    0.6026   -0.2114    1.4333 H   0  0  0  0  0  0  0  0  0  0  0  0
    2.4605    1.0102    2.9703 H   0  0  0  0  0  0  0  0  0  0  0  0
    1.6905   -2.3015    2.7132 H   0  0  0  0  0  0  0  0  0  0  0  0
    2.7642   -1.0525    2.2475 H   0  0  0  0  0  0  0  0  0  0  0  0
    3.9722   -2.4844    3.5388 H   0  0  0  0  0  0  0  0  0  0  0  0
    5.3272    1.5815    5.1274 H   0  0  0  0  0  0  0  0  0  0  0  0
    7.8808    0.1437    4.1414 H   0  0  0  0  0  0  0  0  0  0  0  0
    7.7778    1.7646    4.9925 H   0  0  0  0  0  0  0  0  0  0  0  0
    6.7764    0.7136    7.0073 H   0  0  0  0  0  0  0  0  0  0  0  0
    6.8735   -0.9443    6.2163 H   0  0  0  0  0  0  0  0  0  0  0  0
    4.4399   -4.6344    2.2419 H   0  0  0  0  0  0  0  0  0  0  0  0
    3.1886   -6.1098    0.5528 H   0  0  0  0  0  0  0  0  0  0  0  0
    1.0171   -7.2381    1.6068 H   0  0  0  0  0  0  0  0  0  0  0  0
    4.4992   -4.3039    4.9776 H   0  0  0  0  0  0  0  0  0  0  0  0
    0.4637   -3.1220    8.1342 H   0  0  0  0  0  0  0  0  0  0  0  0
    1.5970   -1.6874    9.2124 H   0  0  0  0  0  0  0  0  0  0  0  0
   -0.2072   -0.4759    6.5960 H   0  0  0  0  0  0  0  0  0  0  0  0
   -0.3692   -2.6165    3.5240 H   0  0  0  0  0  0  0  0  0  0  0  0
   -0.7212   -2.8793    5.3059 H   0  0  0  0  0  0  0  0  0  0  0  0
  1  2  1  0
  1 48  1  0
  1 49  1  0
  1 50  1  0
  3  2  1  6
 42  3  1  6
  3 44  1  0
  3  4  1  0
  4  5  1  0
  4 51  1  0
  4 52  1  0
  5 13  1  0
  5  6  1  6
  5 10  1  0
  6  7  1  0
  7  8  1  0
  7  9  2  0
  8 53  1  0
  8 54  1  0
  8 55  1  0
 10 11  1  0
 10 12  1  0
 10 56  1  1
 11 57  1  0
 12 13  1  0
 12 58  1  0
 12 59  1  0
 13 14  1  0
 13 60  1  6
 14 16  1  0
 14 15  1  0
 14 61  1  6
 15 16  1  0
 16 17  1  0
 16 62  1  6
 17 45  1  0
 17 18  1  1
 17 19  1  0
 18 63  1  0
 19 20  1  0
 19 64  1  0
 19 65  1  0
 20 21  1  0
 20 66  1  6
 20 27  1  0
 21 22  1  0
 22 23  2  0
 22 24  1  0
 24 26  1  0
 24 25  1  0
 24 67  1  0
 25 26  1  0
 25 68  1  0
 25 69  1  0
 26 70  1  0
 26 71  1  0
 27 37  2  0
 27 28  1  0
 28 34  1  0
 28 29  1  0
 28 75  1  6
 29 33  1  0
 29 30  2  0
 30 31  1  0
 30 72  1  0
 31 32  2  0
 31 73  1  0
 32 33  1  0
 32 74  1  0
 34 35  1  0
 35 37  1  0
 35 36  2  0
 37 38  1  0
 38 39  1  1
 38 40  1  0
 38 44  1  0
 39 76  1  0
 40 41  1  0
 40 42  1  0
 40 77  1  1
 42 43  2  0
 44 45  1  0
 44 78  1  1
 45 47  1  6
 45 46  1  0
 46 47  1  0
 46 79  1  0
 46 80  1  0
M  CHG  1  41  -1
M  END
>  <i_m_ct_stereo_status>  (164) 
1

>  <s_m_source_file>  (164) 
/var/tmp/pbs.5075288.sched01/tmp4tfr24xl/130i3iej58d.sdf

>  <i_m_source_file_index>  (164) 
60

>  <i_lp_mmshare_version>  (164) 
48012

>  <i_f3d_flags>  (164) 
0

>  <s_epik_input>  (164) 
TzFbQ0gyXUMxMltDQF0zKFtPSF0pW0NAQEhdNFtDQEBIXShPNClbQ0BASF01W0NAXShbQ0BASF0oW09IXSlbQ0gyXTUpKE9DKD1PKVtDSDNdKVtDSDJdW0NAXTYoT1tDSDNdKVtDQEBIXTJbQ0BdKFtPSF0pKFtDQEBIXShbT0hdKVtTK102W08tXSljN2MoYyhvYzdbT0hdKS1jOFtjSF1bY0hdW2NIXXM4KVtDQEBIXShbQ0gyXTMpT0MoPU8pW0NIXTlbQ0gyXVtDSDJdOQ==

>  <s_epik_cmdline>  (164) 
J2VwaWtfcHl0aG9uJywgJy1waHQnLCAnMi4wJywgJy1waCcsICc3LjAnLCAnLXRuJywgJzgnLCAnLW1hJywgJzIwMCcsICctaW1hZScsICc8aW5maWxlLm1hZT4nLCAnLW9tYWUnLCAnPG91dGZpbGUubWFlPic=

>  <r_lp_tautomer_probability>  (164) 
0.999841

>  <r_epik_Ionization_Penalty>  (164) 
0.0397111

>  <r_epik_Ionization_Penalty_Charging>  (164) 
0.0389454

>  <r_epik_Ionization_Penalty_Neutral>  (164) 
0.000765736

>  <r_epik_State_Penalty>  (164) 
0.0704439

>  <r_epik_Charging_Adjusted_Penalty>  (164) 
0.109389

>  <i_epik_Tot_Q>  (164) 
-1

>  <i_epik_Tot_abs_Q>  (164) 
1

>  <s_epik_Chemistry_Notes>  (164) 
This compound has an ester and may undergo hydrolysis at high or low pH. This compound contains an acetal/aminal-like group ( X-CH(R)-Y where X, Y are N, S, or O) that may be acid/base labile, releasing an aldehyde.

>  <s_lp_Force_Field>  (164) 
OPLS3e

>  <r_lp_Energy>  (164) 
110.764

>  <b_lp_Chiralities_Consistent>  (164) 
1

>  <s_lp_Variant>  (164) 
75:0-3

>  <s_i_glide_gridfile>  (164) 
pfpi4k_grid

>  <i_i_glide_lignum>  (164) 
60

>  <i_i_glide_rotatable_bonds>  (164) 
10

>  <r_i_docking_score>  (164) 
-3.98464

>  <r_i_glide_ligand_efficiency>  (164) 
-0.0847796

>  <r_i_glide_ligand_efficiency_sa>  (164) 
-0.305955

>  <r_i_glide_ligand_efficiency_ln>  (164) 
-0.821551

>  <r_i_glide_gscore>  (164) 
-3.98464

>  <r_i_glide_lipo>  (164) 
-0.440072

>  <r_i_glide_hbond>  (164) 
0

>  <r_i_glide_metal>  (164) 
-0

>  <r_i_glide_rewards>  (164) 
-1.13848

>  <r_i_glide_evdw>  (164) 
-29.5581

>  <r_i_glide_ecoul>  (164) 
-6.33833

>  <r_i_glide_erotb>  (164) 
0.0500867

>  <r_i_glide_esite>  (164) 
-0.0275265

>  <r_i_glide_emodel>  (164) 
-44.5532

>  <r_i_glide_energy>  (164) 
-35.8964

>  <r_i_glide_einternal>  (164) 
20.9498

>  <r_i_glide_intrahb_reward>  (164) 
-1

>  <i_i_glide_confnum>  (164) 
1

>  <i_i_glide_posenum>  (164) 
23

>  <r_i_glide_eff_state_penalty>  (164) 
0

>  <ligand_id>  (164) 
75

>  <original_smiles>  (164) 
COC12CC3(OC(C)=O)C(O)CC3C3OC3C3(O)CC(OC(=O)C4CC4)c4c(-c5cccs5)oc(O)c4C(O)(C(O)[S+]1[O-])C2C31CO1

>  <smiles>  (164) 
[H]OC1([H])C([H])([H])C2([H])C3([H])OC3([H])C3(O[H])C([H])([H])C([H])(OC(=O)C4([H])C([H])([H])C4([H])[H])C4=C(C(=O)OC4([H])c4sc([H])c([H])c4[H])C4(O[H])C([H])([O-])S(=O)C(OC([H])([H])[H])(C([H])([H])C12OC(=O)C([H])([H])[H])C4([H])C31OC1([H])[H]

$$$$
75:3:0
     RDKit          3D

 80 88  0  0  1  0  0  0  0  0999 V2000
   -0.2161   -4.6098    5.9260 C   0  0  0  0  0  0  0  0  0  0  0  0
    0.9070   -3.8427    6.3012 O   0  0  0  0  0  0  0  0  0  0  0  0
    1.7906   -4.4392    7.2326 C   0  0  2  0  0  0  0  0  0  0  0  0
    2.6909   -5.5956    6.5879 C   0  0  0  0  0  0  0  0  0  0  0  0
    3.2069   -5.6671    5.0907 C   0  0  2  0  0  0  0  0  0  0  0  0
    2.1528   -5.5321    4.1378 O   0  0  0  0  0  0  0  0  0  0  0  0
    1.1550   -6.3697    3.7992 C   0  0  0  0  0  0  0  0  0  0  0  0
    1.0007   -7.6637    4.6241 C   0  0  0  0  0  0  0  0  0  0  0  0
    0.4167   -6.1343    2.8595 O   0  0  0  0  0  0  0  0  0  0  0  0
    4.0210   -6.9757    4.8430 C   0  0  1  0  0  0  0  0  0  0  0  0
    3.8972   -7.6720    3.6079 O   0  0  0  0  0  0  0  0  0  0  0  0
    5.3199   -6.1759    4.9821 C   0  0  0  0  0  0  0  0  0  0  0  0
    4.5190   -5.0032    4.4488 C   0  0  2  0  0  0  0  0  0  0  0  0
    5.1744   -3.6146    4.4300 C   0  0  2  0  0  0  0  0  0  0  0  0
    5.8766   -3.3426    5.6225 O   0  0  0  0  0  0  0  0  0  0  0  0
    4.9654   -2.3201    5.2571 C   0  0  2  0  0  0  0  0  0  0  0  0
    3.7229   -2.0983    6.0896 C   0  0  2  0  0  0  0  0  0  0  0  0
    2.7866   -2.6155    5.1653 O   0  0  0  0  0  0  0  0  0  0  0  0
    3.2900   -0.6219    6.1679 C   0  0  0  0  0  0  0  0  0  0  0  0
    1.8815   -0.3386    6.7740 C   0  0  1  0  0  0  0  0  0  0  0  0
    0.7932   -1.0448    6.2045 O   0  0  0  0  0  0  0  0  0  0  0  0
    0.2642   -0.6954    5.0165 C   0  0  0  0  0  0  0  0  0  0  0  0
    0.7309    0.1476    4.2472 O   0  0  0  0  0  0  0  0  0  0  0  0
   -0.9954   -1.4562    4.7039 C   0  0  0  0  0  0  0  0  0  0  0  0
   -2.3031   -0.7895    5.0835 C   0  0  0  0  0  0  0  0  0  0  0  0
   -1.8213   -1.9842    5.8536 C   0  0  0  0  0  0  0  0  0  0  0  0
    1.7410   -0.2779    8.3029 C   0  0  0  0  0  0  0  0  0  0  0  0
    1.5742    1.1012    8.8985 C   0  0  1  0  0  0  0  0  0  0  0  0
    0.2908    1.8114    8.5015 C   0  0  0  0  0  0  0  0  0  0  0  0
   -0.9060    1.8327    9.1554 C   0  0  0  0  0  0  0  0  0  0  0  0
   -1.9059    2.6160    8.4968 C   0  0  0  0  0  0  0  0  0  0  0  0
   -1.4510    3.1673    7.3419 C   0  0  0  0  0  0  0  0  0  0  0  0
    0.2227    2.7837    7.0451 S   0  0  0  0  0  0  0  0  0  0  0  0
    1.5079    0.8467   10.2795 O   0  0  0  0  0  0  0  0  0  0  0  0
    1.5150   -0.4651   10.5548 C   0  0  0  0  0  0  0  0  0  0  0  0
    1.4503   -0.9134   11.6850 O   0  0  0  0  0  0  0  0  0  0  0  0
    1.6722   -1.2025    9.2573 C   0  0  0  0  0  0  0  0  0  0  0  0
    1.8365   -2.7702    9.2780 C   0  0  1  0  0  0  0  0  0  0  0  0
    2.5386   -3.1554   10.4527 O   0  0  0  0  0  0  0  0  0  0  0  0
    0.4736   -3.5388    9.4301 C   0  0  1  0  0  0  0  0  0  0  0  0
   -0.5029   -2.9059    8.9681 O   0  0  0  0  0  0  0  0  0  0  0  0
    0.8078   -5.2111    8.6163 S   0  0  0  0  0  0  0  0  0  0  0  0
    1.7488   -5.9862    9.5015 O   0  0  0  0  0  0  0  0  0  0  0  0
    2.6146   -3.4368    8.1041 C   0  0  2  0  0  0  0  0  0  0  0  0
    3.8102   -2.6727    7.5299 C   0  0  2  0  0  0  0  0  0  0  0  0
    4.7683   -1.9268    8.4784 C   0  0  0  0  0  0  0  0  0  0  0  0
    5.0596   -3.2119    7.9832 O   0  0  0  0  0  0  0  0  0  0  0  0
   -0.4992   -4.2458    4.9520 H   0  0  0  0  0  0  0  0  0  0  0  0
   -1.0506   -4.3882    6.5976 H   0  0  0  0  0  0  0  0  0  0  0  0
    0.0363   -5.6543    5.8978 H   0  0  0  0  0  0  0  0  0  0  0  0
    3.5586   -5.7462    7.2451 H   0  0  0  0  0  0  0  0  0  0  0  0
    2.1089   -6.5246    6.7121 H   0  0  0  0  0  0  0  0  0  0  0  0
    1.9746   -8.1745    4.7743 H   0  0  0  0  0  0  0  0  0  0  0  0
    0.3085   -8.3401    4.0937 H   0  0  0  0  0  0  0  0  0  0  0  0
    0.4924   -7.4051    5.5627 H   0  0  0  0  0  0  0  0  0  0  0  0
    3.9408   -7.6688    5.6729 H   0  0  0  0  0  0  0  0  0  0  0  0
    4.0006   -7.0548    2.8995 H   0  0  0  0  0  0  0  0  0  0  0  0
    5.6561   -6.0772    6.0180 H   0  0  0  0  0  0  0  0  0  0  0  0
    6.1383   -6.5285    4.3373 H   0  0  0  0  0  0  0  0  0  0  0  0
    4.3965   -5.1629    3.3790 H   0  0  0  0  0  0  0  0  0  0  0  0
    5.7604   -3.4481    3.5371 H   0  0  0  0  0  0  0  0  0  0  0  0
    5.4046   -1.4253    4.8395 H   0  0  0  0  0  0  0  0  0  0  0  0
    1.9454   -2.7101    5.6068 H   0  0  0  0  0  0  0  0  0  0  0  0
    4.0477   -0.0233    6.6713 H   0  0  0  0  0  0  0  0  0  0  0  0
    3.2802   -0.2398    5.1474 H   0  0  0  0  0  0  0  0  0  0  0  0
    1.7409    0.6932    6.4754 H   0  0  0  0  0  0  0  0  0  0  0  0
   -0.9541   -2.0683    3.8030 H   0  0  0  0  0  0  0  0  0  0  0  0
   -2.3017    0.1446    5.6399 H   0  0  0  0  0  0  0  0  0  0  0  0
   -3.1703   -0.9811    4.4709 H   0  0  0  0  0  0  0  0  0  0  0  0
   -2.4084   -2.8878    5.7137 H   0  0  0  0  0  0  0  0  0  0  0  0
   -1.4011   -1.8371    6.8476 H   0  0  0  0  0  0  0  0  0  0  0  0
   -1.1114    1.3413   10.0904 H   0  0  0  0  0  0  0  0  0  0  0  0
   -2.8946    2.7484    8.9062 H   0  0  0  0  0  0  0  0  0  0  0  0
   -1.9837    3.8091    6.6376 H   0  0  0  0  0  0  0  0  0  0  0  0
    2.4366    1.7131    8.6761 H   0  0  0  0  0  0  0  0  0  0  0  0
    3.4322   -2.8801   10.3473 H   0  0  0  0  0  0  0  0  0  0  0  0
    0.3847   -3.8646   10.4952 H   0  0  0  0  0  0  0  0  0  0  0  0
    3.1847   -4.2024    8.6310 H   0  0  0  0  0  0  0  0  0  0  0  0
    5.4084   -1.1567    8.0681 H   0  0  0  0  0  0  0  0  0  0  0  0
    4.5938   -1.8998    9.5441 H   0  0  0  0  0  0  0  0  0  0  0  0
  1  2  1  0
  1 48  1  0
  1 49  1  0
  1 50  1  0
  3  2  1  6
 42  3  1  6
  3 44  1  0
  3  4  1  0
  4  5  1  0
  4 51  1  0
  4 52  1  0
  5 13  1  0
  5  6  1  6
  5 10  1  0
  6  7  1  0
  7  8  1  0
  7  9  2  0
  8 53  1  0
  8 54  1  0
  8 55  1  0
 10 11  1  0
 10 12  1  0
 10 56  1  1
 11 57  1  0
 12 13  1  0
 12 58  1  0
 12 59  1  0
 13 14  1  0
 13 60  1  6
 14 16  1  0
 14 15  1  0
 14 61  1  6
 15 16  1  0
 16 17  1  0
 16 62  1  6
 17 45  1  0
 17 18  1  6
 17 19  1  0
 18 63  1  0
 19 20  1  0
 19 64  1  0
 19 65  1  0
 20 21  1  0
 20 66  1  6
 20 27  1  0
 21 22  1  0
 22 23  2  0
 22 24  1  0
 24 26  1  0
 24 25  1  0
 24 67  1  0
 25 26  1  0
 25 68  1  0
 25 69  1  0
 26 70  1  0
 26 71  1  0
 27 37  2  0
 27 28  1  0
 28 34  1  0
 28 29  1  0
 28 75  1  1
 29 33  1  0
 29 30  2  0
 30 31  1  0
 30 72  1  0
 31 32  2  0
 31 73  1  0
 32 33  1  0
 32 74  1  0
 34 35  1  0
 35 37  1  0
 35 36  2  0
 37 38  1  0
 38 39  1  1
 38 40  1  0
 38 44  1  0
 39 76  1  0
 40 41  1  0
 40 42  1  0
 40 77  1  1
 42 43  2  0
 44 45  1  0
 44 78  1  1
 45 47  1  6
 45 46  1  0
 46 47  1  0
 46 79  1  0
 46 80  1  0
M  CHG  1  41  -1
M  END
>  <i_m_ct_stereo_status>  (165) 
1

>  <s_m_source_file>  (165) 
/var/tmp/pbs.5075288.sched01/tmp4tfr24xl/130i3iej58d.sdf

>  <i_m_source_file_index>  (165) 
61

>  <i_lp_mmshare_version>  (165) 
48012

>  <i_f3d_flags>  (165) 
0

>  <s_epik_input>  (165) 
TzFbQ0gyXUMxMltDQF0zKFtPSF0pW0NAQEhdNFtDQEBIXShPNClbQ0BASF01W0NAXShbQ0BASF0oW09IXSlbQ0gyXTUpKE9DKD1PKVtDSDNdKVtDSDJdW0NAXTYoT1tDSDNdKVtDQEBIXTJbQ0BdKFtPSF0pKFtDQEBIXShbT0hdKVtTK102W08tXSljN2MoYyhvYzdbT0hdKS1jOFtjSF1bY0hdW2NIXXM4KVtDQEBIXShbQ0gyXTMpT0MoPU8pW0NIXTlbQ0gyXVtDSDJdOQ==

>  <s_epik_cmdline>  (165) 
J2VwaWtfcHl0aG9uJywgJy1waHQnLCAnMi4wJywgJy1waCcsICc3LjAnLCAnLXRuJywgJzgnLCAnLW1hJywgJzIwMCcsICctaW1hZScsICc8aW5maWxlLm1hZT4nLCAnLW9tYWUnLCAnPG91dGZpbGUubWFlPic=

>  <r_lp_tautomer_probability>  (165) 
0.999841

>  <r_epik_Ionization_Penalty>  (165) 
0.0397111

>  <r_epik_Ionization_Penalty_Charging>  (165) 
0.0389454

>  <r_epik_Ionization_Penalty_Neutral>  (165) 
0.000765736

>  <r_epik_State_Penalty>  (165) 
0.0704439

>  <r_epik_Charging_Adjusted_Penalty>  (165) 
0.109389

>  <i_epik_Tot_Q>  (165) 
-1

>  <i_epik_Tot_abs_Q>  (165) 
1

>  <s_epik_Chemistry_Notes>  (165) 
This compound has an ester and may undergo hydrolysis at high or low pH. This compound contains an acetal/aminal-like group ( X-CH(R)-Y where X, Y are N, S, or O) that may be acid/base labile, releasing an aldehyde.

>  <s_lp_Force_Field>  (165) 
OPLS3e

>  <r_lp_Energy>  (165) 
107.321

>  <b_lp_Chiralities_Consistent>  (165) 
1

>  <s_lp_Variant>  (165) 
75:0-4

>  <s_i_glide_gridfile>  (165) 
pfpi4k_grid

>  <i_i_glide_lignum>  (165) 
61

>  <i_i_glide_rotatable_bonds>  (165) 
10

>  <r_i_docking_score>  (165) 
-2.82524

>  <r_i_glide_ligand_efficiency>  (165) 
-0.0601114

>  <r_i_glide_ligand_efficiency_sa>  (165) 
-0.216932

>  <r_i_glide_ligand_efficiency_ln>  (165) 
-0.582505

>  <r_i_glide_gscore>  (165) 
-2.82524

>  <r_i_glide_lipo>  (165) 
-0.0815338

>  <r_i_glide_hbond>  (165) 
-0.281947

>  <r_i_glide_metal>  (165) 
-0

>  <r_i_glide_rewards>  (165) 
-1

>  <r_i_glide_evdw>  (165) 
-20.5877

>  <r_i_glide_ecoul>  (165) 
-3.02434

>  <r_i_glide_erotb>  (165) 
0.0500867

>  <r_i_glide_esite>  (165) 
-0.0288057

>  <r_i_glide_emodel>  (165) 
-35.4192

>  <r_i_glide_energy>  (165) 
-23.612

>  <r_i_glide_einternal>  (165) 
7.4598

>  <r_i_glide_intrahb_reward>  (165) 
-1

>  <i_i_glide_confnum>  (165) 
1

>  <i_i_glide_posenum>  (165) 
32

>  <r_i_glide_eff_state_penalty>  (165) 
0

>  <ligand_id>  (165) 
75

>  <original_smiles>  (165) 
COC12CC3(OC(C)=O)C(O)CC3C3OC3C3(O)CC(OC(=O)C4CC4)c4c(-c5cccs5)oc(O)c4C(O)(C(O)[S+]1[O-])C2C31CO1

>  <smiles>  (165) 
[H]OC1([H])C([H])([H])C2([H])C3([H])OC3([H])C3(O[H])C([H])([H])C([H])(OC(=O)C4([H])C([H])([H])C4([H])[H])C4=C(C(=O)OC4([H])c4sc([H])c([H])c4[H])C4(O[H])C([H])([O-])S(=O)C(OC([H])([H])[H])(C([H])([H])C12OC(=O)C([H])([H])[H])C4([H])C31OC1([H])[H]

$$$$
75:3:1
     RDKit          3D

 80 88  0  0  1  0  0  0  0  0999 V2000
   -0.2139   -2.3694    6.0471 C   0  0  0  0  0  0  0  0  0  0  0  0
    0.9831   -1.6638    6.3556 O   0  0  0  0  0  0  0  0  0  0  0  0
    1.5794   -1.8508    7.6532 C   0  0  2  0  0  0  0  0  0  0  0  0
    2.2597   -3.2801    7.8601 C   0  0  0  0  0  0  0  0  0  0  0  0
    2.9834   -4.1546    6.7385 C   0  0  2  0  0  0  0  0  0  0  0  0
    2.1903   -4.3755    5.5493 O   0  0  0  0  0  0  0  0  0  0  0  0
    1.0018   -5.0526    5.4590 C   0  0  0  0  0  0  0  0  0  0  0  0
    0.4995   -5.7891    6.7353 C   0  0  0  0  0  0  0  0  0  0  0  0
    0.4498   -5.1850    4.3658 O   0  0  0  0  0  0  0  0  0  0  0  0
    3.4933   -5.5006    7.3638 C   0  0  1  0  0  0  0  0  0  0  0  0
    3.3923   -6.7324    6.6370 O   0  0  0  0  0  0  0  0  0  0  0  0
    4.8871   -4.9458    7.4587 C   0  0  0  0  0  0  0  0  0  0  0  0
    4.5078   -4.1033    6.2485 C   0  0  2  0  0  0  0  0  0  0  0  0
    5.4870   -3.0292    5.7502 C   0  0  2  0  0  0  0  0  0  0  0  0
    6.0521   -2.2594    6.8110 O   0  0  0  0  0  0  0  0  0  0  0  0
    5.4450   -1.4791    5.7704 C   0  0  2  0  0  0  0  0  0  0  0  0
    4.1642   -0.7062    6.0660 C   0  0  2  0  0  0  0  0  0  0  0  0
    3.2885   -1.5141    5.3270 O   0  0  0  0  0  0  0  0  0  0  0  0
    4.0763    0.6447    5.3139 C   0  0  0  0  0  0  0  0  0  0  0  0
    2.7063    1.4086    5.3469 C   0  0  1  0  0  0  0  0  0  0  0  0
    1.5287    0.7209    4.9210 O   0  0  0  0  0  0  0  0  0  0  0  0
    1.2679    0.5077    3.6101 C   0  0  0  0  0  0  0  0  0  0  0  0
    2.0898    0.6409    2.6977 O   0  0  0  0  0  0  0  0  0  0  0  0
   -0.1689    0.0672    3.3756 C   0  0  0  0  0  0  0  0  0  0  0  0
   -1.0061    0.9648    2.4477 C   0  0  0  0  0  0  0  0  0  0  0  0
   -1.2669    0.9612    3.9347 C   0  0  0  0  0  0  0  0  0  0  0  0
    2.3886    2.2750    6.5760 C   0  0  0  0  0  0  0  0  0  0  0  0
    2.4722    3.7769    6.4030 C   0  0  1  0  0  0  0  0  0  0  0  0
    1.4691    4.3783    5.4319 C   0  0  0  0  0  0  0  0  0  0  0  0
    1.6761    5.4516    4.5795 C   0  0  0  0  0  0  0  0  0  0  0  0
    0.5479    5.6910    3.7302 C   0  0  0  0  0  0  0  0  0  0  0  0
   -0.4762    4.8024    3.9624 C   0  0  0  0  0  0  0  0  0  0  0  0
   -0.2029    3.8911    5.4055 S   0  0  0  0  0  0  0  0  0  0  0  0
    2.1060    4.2481    7.6796 O   0  0  0  0  0  0  0  0  0  0  0  0
    1.7609    3.2684    8.5137 C   0  0  0  0  0  0  0  0  0  0  0  0
    1.3930    3.4626    9.6663 O   0  0  0  0  0  0  0  0  0  0  0  0
    1.9539    1.9639    7.8171 C   0  0  0  0  0  0  0  0  0  0  0  0
    1.7178    0.6122    8.5941 C   0  0  1  0  0  0  0  0  0  0  0  0
    2.1161    0.7827    9.9598 O   0  0  0  0  0  0  0  0  0  0  0  0
    0.2145    0.1953    8.7628 C   0  0  1  0  0  0  0  0  0  0  0  0
   -0.5009    0.5404    7.7300 O   0  0  0  0  0  0  0  0  0  0  0  0
    0.2627   -1.6601    8.9543 S   0  0  0  0  0  0  0  0  0  0  0  0
    0.8138   -2.0157   10.3377 O   0  0  0  0  0  0  0  0  0  0  0  0
    2.5004   -0.6673    8.1215 C   0  0  2  0  0  0  0  0  0  0  0  0
    3.9072   -0.4718    7.5675 C   0  0  2  0  0  0  0  0  0  0  0  0
    4.8374    0.5294    8.2608 C   0  0  0  0  0  0  0  0  0  0  0  0
    4.9260   -0.8625    8.5240 O   0  0  0  0  0  0  0  0  0  0  0  0
   -0.2031   -2.5667    4.9706 H   0  0  0  0  0  0  0  0  0  0  0  0
   -1.1280   -1.8175    6.2835 H   0  0  0  0  0  0  0  0  0  0  0  0
   -0.2350   -3.3125    6.5760 H   0  0  0  0  0  0  0  0  0  0  0  0
    2.9410   -3.2137    8.7167 H   0  0  0  0  0  0  0  0  0  0  0  0
    1.4590   -3.9103    8.2489 H   0  0  0  0  0  0  0  0  0  0  0  0
    1.3199   -6.2972    7.2864 H   0  0  0  0  0  0  0  0  0  0  0  0
   -0.2651   -6.5324    6.4482 H   0  0  0  0  0  0  0  0  0  0  0  0
    0.0361   -5.0264    7.3666 H   0  0  0  0  0  0  0  0  0  0  0  0
    3.0733   -5.6547    8.3542 H   0  0  0  0  0  0  0  0  0  0  0  0
    3.7456   -6.5955    5.7890 H   0  0  0  0  0  0  0  0  0  0  0  0
    5.0645   -4.3582    8.3634 H   0  0  0  0  0  0  0  0  0  0  0  0
    5.6768   -5.6777    7.2801 H   0  0  0  0  0  0  0  0  0  0  0  0
    4.5021   -4.7702    5.3758 H   0  0  0  0  0  0  0  0  0  0  0  0
    6.2591   -3.4615    5.1141 H   0  0  0  0  0  0  0  0  0  0  0  0
    6.1577   -0.9649    5.1324 H   0  0  0  0  0  0  0  0  0  0  0  0
    3.5123   -1.4859    4.4142 H   0  0  0  0  0  0  0  0  0  0  0  0
    4.8654    1.3153    5.6577 H   0  0  0  0  0  0  0  0  0  0  0  0
    4.3383    0.4731    4.2700 H   0  0  0  0  0  0  0  0  0  0  0  0
    2.8659    2.1766    4.5888 H   0  0  0  0  0  0  0  0  0  0  0  0
   -0.3365   -1.0050    3.3493 H   0  0  0  0  0  0  0  0  0  0  0  0
   -0.5191    1.8562    2.0465 H   0  0  0  0  0  0  0  0  0  0  0  0
   -1.7507    0.5306    1.7879 H   0  0  0  0  0  0  0  0  0  0  0  0
   -2.1853    0.4244    4.2328 H   0  0  0  0  0  0  0  0  0  0  0  0
   -0.9595    1.7922    4.5370 H   0  0  0  0  0  0  0  0  0  0  0  0
    2.5687    6.0673    4.5122 H   0  0  0  0  0  0  0  0  0  0  0  0
    0.5268    6.4615    2.9678 H   0  0  0  0  0  0  0  0  0  0  0  0
   -1.3706    4.6617    3.3998 H   0  0  0  0  0  0  0  0  0  0  0  0
    3.4974    4.0669    6.1799 H   0  0  0  0  0  0  0  0  0  0  0  0
    3.0455    0.8649    9.9972 H   0  0  0  0  0  0  0  0  0  0  0  0
   -0.1440    0.5520    9.7328 H   0  0  0  0  0  0  0  0  0  0  0  0
    2.7794   -1.1272    9.0765 H   0  0  0  0  0  0  0  0  0  0  0  0
    5.6898    0.9270    7.7172 H   0  0  0  0  0  0  0  0  0  0  0  0
    4.4999    1.1129    9.1129 H   0  0  0  0  0  0  0  0  0  0  0  0
  1  2  1  0
  1 48  1  0
  1 49  1  0
  1 50  1  0
  3  2  1  6
 42  3  1  6
  3 44  1  0
  3  4  1  0
  4  5  1  0
  4 51  1  0
  4 52  1  0
  5 13  1  0
  5  6  1  6
  5 10  1  0
  6  7  1  0
  7  8  1  0
  7  9  2  0
  8 53  1  0
  8 54  1  0
  8 55  1  0
 10 11  1  0
 10 12  1  0
 10 56  1  1
 11 57  1  0
 12 13  1  0
 12 58  1  0
 12 59  1  0
 13 14  1  0
 13 60  1  6
 14 16  1  0
 14 15  1  0
 14 61  1  6
 15 16  1  0
 16 17  1  0
 16 62  1  6
 17 45  1  0
 17 18  1  6
 17 19  1  0
 18 63  1  0
 19 20  1  0
 19 64  1  0
 19 65  1  0
 20 21  1  0
 20 66  1  6
 20 27  1  0
 21 22  1  0
 22 23  2  0
 22 24  1  0
 24 26  1  0
 24 25  1  0
 24 67  1  0
 25 26  1  0
 25 68  1  0
 25 69  1  0
 26 70  1  0
 26 71  1  0
 27 37  2  0
 27 28  1  0
 28 34  1  0
 28 29  1  0
 28 75  1  6
 29 33  1  0
 29 30  2  0
 30 31  1  0
 30 72  1  0
 31 32  2  0
 31 73  1  0
 32 33  1  0
 32 74  1  0
 34 35  1  0
 35 37  1  0
 35 36  2  0
 37 38  1  0
 38 39  1  1
 38 40  1  0
 38 44  1  0
 39 76  1  0
 40 41  1  0
 40 42  1  0
 40 77  1  1
 42 43  2  0
 44 45  1  0
 44 78  1  1
 45 47  1  1
 45 46  1  0
 46 47  1  0
 46 79  1  0
 46 80  1  0
M  CHG  1  41  -1
M  END
>  <i_m_ct_stereo_status>  (166) 
1

>  <s_m_source_file>  (166) 
/var/tmp/pbs.5075288.sched01/tmp4tfr24xl/130i3iej58d.sdf

>  <i_m_source_file_index>  (166) 
61

>  <i_lp_mmshare_version>  (166) 
48012

>  <i_f3d_flags>  (166) 
0

>  <s_epik_input>  (166) 
TzFbQ0gyXUMxMltDQF0zKFtPSF0pW0NAQEhdNFtDQEBIXShPNClbQ0BASF01W0NAXShbQ0BASF0oW09IXSlbQ0gyXTUpKE9DKD1PKVtDSDNdKVtDSDJdW0NAXTYoT1tDSDNdKVtDQEBIXTJbQ0BdKFtPSF0pKFtDQEBIXShbT0hdKVtTK102W08tXSljN2MoYyhvYzdbT0hdKS1jOFtjSF1bY0hdW2NIXXM4KVtDQEBIXShbQ0gyXTMpT0MoPU8pW0NIXTlbQ0gyXVtDSDJdOQ==

>  <s_epik_cmdline>  (166) 
J2VwaWtfcHl0aG9uJywgJy1waHQnLCAnMi4wJywgJy1waCcsICc3LjAnLCAnLXRuJywgJzgnLCAnLW1hJywgJzIwMCcsICctaW1hZScsICc8aW5maWxlLm1hZT4nLCAnLW9tYWUnLCAnPG91dGZpbGUubWFlPic=

>  <r_lp_tautomer_probability>  (166) 
0.999841

>  <r_epik_Ionization_Penalty>  (166) 
0.0397111

>  <r_epik_Ionization_Penalty_Charging>  (166) 
0.0389454

>  <r_epik_Ionization_Penalty_Neutral>  (166) 
0.000765736

>  <r_epik_State_Penalty>  (166) 
0.0704439

>  <r_epik_Charging_Adjusted_Penalty>  (166) 
0.109389

>  <i_epik_Tot_Q>  (166) 
-1

>  <i_epik_Tot_abs_Q>  (166) 
1

>  <s_epik_Chemistry_Notes>  (166) 
This compound has an ester and may undergo hydrolysis at high or low pH. This compound contains an acetal/aminal-like group ( X-CH(R)-Y where X, Y are N, S, or O) that may be acid/base labile, releasing an aldehyde.

>  <s_lp_Force_Field>  (166) 
OPLS3e

>  <r_lp_Energy>  (166) 
107.321

>  <b_lp_Chiralities_Consistent>  (166) 
1

>  <s_lp_Variant>  (166) 
75:0-4

>  <s_i_glide_gridfile>  (166) 
pfpi4k_grid

>  <i_i_glide_lignum>  (166) 
61

>  <i_i_glide_rotatable_bonds>  (166) 
10

>  <r_i_docking_score>  (166) 
-0.299369

>  <r_i_glide_ligand_efficiency>  (166) 
-0.00636956

>  <r_i_glide_ligand_efficiency_sa>  (166) 
-0.0229866

>  <r_i_glide_ligand_efficiency_ln>  (166) 
-0.0617237

>  <r_i_glide_gscore>  (166) 
-0.299369

>  <r_i_glide_lipo>  (166) 
-0.0329561

>  <r_i_glide_hbond>  (166) 
-0.0152079

>  <r_i_glide_metal>  (166) 
-0

>  <r_i_glide_rewards>  (166) 
0

>  <r_i_glide_evdw>  (166) 
-21.8184

>  <r_i_glide_ecoul>  (166) 
1.56553

>  <r_i_glide_erotb>  (166) 
0.0500867

>  <r_i_glide_esite>  (166) 
-0.0735978

>  <r_i_glide_emodel>  (166) 
-13.2098

>  <r_i_glide_energy>  (166) 
-20.2529

>  <r_i_glide_einternal>  (166) 
6.62398

>  <r_i_glide_intrahb_reward>  (166) 
-0

>  <i_i_glide_confnum>  (166) 
2

>  <i_i_glide_posenum>  (166) 
9

>  <r_i_glide_eff_state_penalty>  (166) 
0

>  <ligand_id>  (166) 
75

>  <original_smiles>  (166) 
COC12CC3(OC(C)=O)C(O)CC3C3OC3C3(O)CC(OC(=O)C4CC4)c4c(-c5cccs5)oc(O)c4C(O)(C(O)[S+]1[O-])C2C31CO1

>  <smiles>  (166) 
[H]OC1([H])C([H])([H])C2([H])C3([H])OC3([H])C3(O[H])C([H])([H])C([H])(OC(=O)C4([H])C([H])([H])C4([H])[H])C4=C(C(=O)OC4([H])c4sc([H])c([H])c4[H])C4(O[H])C([H])([O-])S(=O)C(OC([H])([H])[H])(C([H])([H])C12OC(=O)C([H])([H])[H])C4([H])C31OC1([H])[H]

$$$$
75:3:2
     RDKit          3D

 80 88  0  0  1  0  0  0  0  0999 V2000
   -0.0043   -4.3125    5.5160 C   0  0  0  0  0  0  0  0  0  0  0  0
    0.9140   -3.2477    5.7044 O   0  0  0  0  0  0  0  0  0  0  0  0
    2.1244   -3.4898    6.4312 C   0  0  2  0  0  0  0  0  0  0  0  0
    3.1096   -4.4578    5.6490 C   0  0  0  0  0  0  0  0  0  0  0  0
    3.3069   -4.5793    4.0675 C   0  0  2  0  0  0  0  0  0  0  0  0
    2.0482   -4.7558    3.3533 O   0  0  0  0  0  0  0  0  0  0  0  0
    1.3042   -5.9078    3.3401 C   0  0  0  0  0  0  0  0  0  0  0  0
    1.7431   -6.9573    4.3491 C   0  0  0  0  0  0  0  0  0  0  0  0
    0.2432   -6.0551    2.7301 O   0  0  0  0  0  0  0  0  0  0  0  0
    4.3890   -5.7295    3.8008 C   0  0  1  0  0  0  0  0  0  0  0  0
    4.2234   -6.6686    2.7450 O   0  0  0  0  0  0  0  0  0  0  0  0
    5.4283   -4.6646    3.5412 C   0  0  0  0  0  0  0  0  0  0  0  0
    4.2790   -3.7736    3.0819 C   0  0  2  0  0  0  0  0  0  0  0  0
    4.5765   -2.2939    2.7680 C   0  0  2  0  0  0  0  0  0  0  0  0
    5.4021   -1.6410    3.7219 O   0  0  0  0  0  0  0  0  0  0  0  0
    4.1529   -0.9911    3.4694 C   0  0  2  0  0  0  0  0  0  0  0  0
    3.0989   -0.9595    4.5896 C   0  0  2  0  0  0  0  0  0  0  0  0
    2.1458   -1.8238    4.0367 O   0  0  0  0  0  0  0  0  0  0  0  0
    2.3308    0.3528    4.6387 C   0  0  0  0  0  0  0  0  0  0  0  0
    1.0560    0.3801    5.5780 C   0  0  1  0  0  0  0  0  0  0  0  0
    0.0279   -0.5918    5.3343 O   0  0  0  0  0  0  0  0  0  0  0  0
   -1.2007   -0.3013    4.8469 C   0  0  0  0  0  0  0  0  0  0  0  0
   -2.1676   -1.0524    4.8815 O   0  0  0  0  0  0  0  0  0  0  0  0
   -1.3807    1.0733    4.2944 C   0  0  0  0  0  0  0  0  0  0  0  0
   -1.4380    1.3878    2.8517 C   0  0  0  0  0  0  0  0  0  0  0  0
   -0.2751    1.8502    3.5428 C   0  0  0  0  0  0  0  0  0  0  0  0
    1.2114    0.6900    7.0439 C   0  0  0  0  0  0  0  0  0  0  0  0
    0.7612    2.0564    7.5283 C   0  0  1  0  0  0  0  0  0  0  0  0
   -0.7045    2.3682    7.4120 C   0  0  0  0  0  0  0  0  0  0  0  0
   -1.7140    2.3359    8.3340 C   0  0  0  0  0  0  0  0  0  0  0  0
   -2.9952    2.7135    7.8282 C   0  0  0  0  0  0  0  0  0  0  0  0
   -2.9559    3.0327    6.5068 C   0  0  0  0  0  0  0  0  0  0  0  0
   -1.2839    3.3266    6.0921 S   0  0  0  0  0  0  0  0  0  0  0  0
    1.0528    2.0065    8.8916 O   0  0  0  0  0  0  0  0  0  0  0  0
    1.4950    0.8046    9.2652 C   0  0  0  0  0  0  0  0  0  0  0  0
    1.7348    0.5138   10.4320 O   0  0  0  0  0  0  0  0  0  0  0  0
    1.6131   -0.0749    8.0735 C   0  0  0  0  0  0  0  0  0  0  0  0
    2.1488   -1.5488    8.2032 C   0  0  1  0  0  0  0  0  0  0  0  0
    3.1822   -1.5590    9.2038 O   0  0  0  0  0  0  0  0  0  0  0  0
    1.0838   -2.5957    8.7745 C   0  0  1  0  0  0  0  0  0  0  0  0
   -0.1446   -2.3423    8.3728 O   0  0  0  0  0  0  0  0  0  0  0  0
    1.7056   -4.2294    8.1045 S   0  0  0  0  0  0  0  0  0  0  0  0
    2.9793   -4.6797    8.8307 O   0  0  0  0  0  0  0  0  0  0  0  0
    2.8492   -2.1895    6.9352 C   0  0  2  0  0  0  0  0  0  0  0  0
    3.6414   -1.2532    5.9967 C   0  0  2  0  0  0  0  0  0  0  0  0
    4.4975   -0.1527    6.6166 C   0  0  0  0  0  0  0  0  0  0  0  0
    5.0763   -1.3597    6.1636 O   0  0  0  0  0  0  0  0  0  0  0  0
   -0.5308   -4.1903    4.5727 H   0  0  0  0  0  0  0  0  0  0  0  0
   -0.7206   -4.4490    6.3013 H   0  0  0  0  0  0  0  0  0  0  0  0
    0.4725   -5.2523    5.4939 H   0  0  0  0  0  0  0  0  0  0  0  0
    4.0965   -4.3798    6.0877 H   0  0  0  0  0  0  0  0  0  0  0  0
    2.8155   -5.4373    5.9856 H   0  0  0  0  0  0  0  0  0  0  0  0
    2.7846   -7.0878    4.3336 H   0  0  0  0  0  0  0  0  0  0  0  0
    1.3283   -7.9124    4.1457 H   0  0  0  0  0  0  0  0  0  0  0  0
    1.5530   -6.7258    5.3835 H   0  0  0  0  0  0  0  0  0  0  0  0
    4.6008   -6.3168    4.7138 H   0  0  0  0  0  0  0  0  0  0  0  0
    4.0634   -6.1889    1.9523 H   0  0  0  0  0  0  0  0  0  0  0  0
    5.9260   -4.3011    4.4353 H   0  0  0  0  0  0  0  0  0  0  0  0
    6.1524   -4.9005    2.7701 H   0  0  0  0  0  0  0  0  0  0  0  0
    3.9708   -4.1059    2.0793 H   0  0  0  0  0  0  0  0  0  0  0  0
    4.9646   -2.1775    1.7560 H   0  0  0  0  0  0  0  0  0  0  0  0
    4.2550   -0.0729    2.8802 H   0  0  0  0  0  0  0  0  0  0  0  0
    1.3882   -1.8490    4.6139 H   0  0  0  0  0  0  0  0  0  0  0  0
    2.9357    1.2182    4.8797 H   0  0  0  0  0  0  0  0  0  0  0  0
    2.1937    0.5327    3.5702 H   0  0  0  0  0  0  0  0  0  0  0  0
    0.6369    1.3575    5.4134 H   0  0  0  0  0  0  0  0  0  0  0  0
   -2.1500    1.5548    4.8284 H   0  0  0  0  0  0  0  0  0  0  0  0
   -1.3183    0.5328    2.2356 H   0  0  0  0  0  0  0  0  0  0  0  0
   -2.0213    2.2228    2.5444 H   0  0  0  0  0  0  0  0  0  0  0  0
    0.0245    2.8452    3.8607 H   0  0  0  0  0  0  0  0  0  0  0  0
    0.5245    1.2376    3.4255 H   0  0  0  0  0  0  0  0  0  0  0  0
   -1.5548    2.0880    9.3566 H   0  0  0  0  0  0  0  0  0  0  0  0
   -3.8789    2.7544    8.4436 H   0  0  0  0  0  0  0  0  0  0  0  0
   -3.7808    3.3069    5.8541 H   0  0  0  0  0  0  0  0  0  0  0  0
    1.3439    2.8537    7.0691 H   0  0  0  0  0  0  0  0  0  0  0  0
    3.9395   -1.0824    8.8990 H   0  0  0  0  0  0  0  0  0  0  0  0
    1.1460   -2.6575    9.8594 H   0  0  0  0  0  0  0  0  0  0  0  0
    3.7199   -2.6983    7.3665 H   0  0  0  0  0  0  0  0  0  0  0  0
    4.7578    0.7223    6.0234 H   0  0  0  0  0  0  0  0  0  0  0  0
    4.5122   -0.0287    7.6948 H   0  0  0  0  0  0  0  0  0  0  0  0
  1  2  1  0
  1 48  1  0
  1 49  1  0
  1 50  1  0
  3  2  1  6
 42  3  1  6
  3 44  1  0
  3  4  1  0
  4  5  1  0
  4 51  1  0
  4 52  1  0
  5 13  1  0
  5  6  1  6
  5 10  1  0
  6  7  1  0
  7  8  1  0
  7  9  2  0
  8 53  1  0
  8 54  1  0
  8 55  1  0
 10 11  1  0
 10 12  1  0
 10 56  1  1
 11 57  1  0
 12 13  1  0
 12 58  1  0
 12 59  1  0
 13 14  1  0
 13 60  1  6
 14 16  1  0
 14 15  1  0
 14 61  1  6
 15 16  1  0
 16 17  1  0
 16 62  1  6
 17 45  1  0
 17 18  1  6
 17 19  1  0
 18 63  1  0
 19 20  1  0
 19 64  1  0
 19 65  1  0
 20 21  1  0
 20 66  1  6
 20 27  1  0
 21 22  1  0
 22 23  2  0
 22 24  1  0
 24 26  1  0
 24 25  1  0
 24 67  1  0
 25 26  1  0
 25 68  1  0
 25 69  1  0
 26 70  1  0
 26 71  1  0
 27 37  2  0
 27 28  1  0
 28 34  1  0
 28 29  1  0
 28 75  1  6
 29 33  1  0
 29 30  2  0
 30 31  1  0
 30 72  1  0
 31 32  2  0
 31 73  1  0
 32 33  1  0
 32 74  1  0
 34 35  1  0
 35 37  1  0
 35 36  2  0
 37 38  1  0
 38 39  1  1
 38 40  1  0
 38 44  1  0
 39 76  1  0
 40 41  1  0
 40 42  1  0
 40 77  1  1
 42 43  2  0
 44 45  1  0
 44 78  1  1
 45 47  1  6
 45 46  1  0
 46 47  1  0
 46 79  1  0
 46 80  1  0
M  CHG  1  41  -1
M  END
>  <i_m_ct_stereo_status>  (167) 
1

>  <s_m_source_file>  (167) 
/var/tmp/pbs.5075288.sched01/tmp4tfr24xl/130i3iej58d.sdf

>  <i_m_source_file_index>  (167) 
61

>  <i_lp_mmshare_version>  (167) 
48012

>  <i_f3d_flags>  (167) 
0

>  <s_epik_input>  (167) 
TzFbQ0gyXUMxMltDQF0zKFtPSF0pW0NAQEhdNFtDQEBIXShPNClbQ0BASF01W0NAXShbQ0BASF0oW09IXSlbQ0gyXTUpKE9DKD1PKVtDSDNdKVtDSDJdW0NAXTYoT1tDSDNdKVtDQEBIXTJbQ0BdKFtPSF0pKFtDQEBIXShbT0hdKVtTK102W08tXSljN2MoYyhvYzdbT0hdKS1jOFtjSF1bY0hdW2NIXXM4KVtDQEBIXShbQ0gyXTMpT0MoPU8pW0NIXTlbQ0gyXVtDSDJdOQ==

>  <s_epik_cmdline>  (167) 
J2VwaWtfcHl0aG9uJywgJy1waHQnLCAnMi4wJywgJy1waCcsICc3LjAnLCAnLXRuJywgJzgnLCAnLW1hJywgJzIwMCcsICctaW1hZScsICc8aW5maWxlLm1hZT4nLCAnLW9tYWUnLCAnPG91dGZpbGUubWFlPic=

>  <r_lp_tautomer_probability>  (167) 
0.999841

>  <r_epik_Ionization_Penalty>  (167) 
0.0397111

>  <r_epik_Ionization_Penalty_Charging>  (167) 
0.0389454

>  <r_epik_Ionization_Penalty_Neutral>  (167) 
0.000765736

>  <r_epik_State_Penalty>  (167) 
0.0704439

>  <r_epik_Charging_Adjusted_Penalty>  (167) 
0.109389

>  <i_epik_Tot_Q>  (167) 
-1

>  <i_epik_Tot_abs_Q>  (167) 
1

>  <s_epik_Chemistry_Notes>  (167) 
This compound has an ester and may undergo hydrolysis at high or low pH. This compound contains an acetal/aminal-like group ( X-CH(R)-Y where X, Y are N, S, or O) that may be acid/base labile, releasing an aldehyde.

>  <s_lp_Force_Field>  (167) 
OPLS3e

>  <r_lp_Energy>  (167) 
107.321

>  <b_lp_Chiralities_Consistent>  (167) 
1

>  <s_lp_Variant>  (167) 
75:0-4

>  <s_i_glide_gridfile>  (167) 
pfpi4k_grid

>  <i_i_glide_lignum>  (167) 
61

>  <i_i_glide_rotatable_bonds>  (167) 
10

>  <r_i_docking_score>  (167) 
1.59066

>  <r_i_glide_ligand_efficiency>  (167) 
0.0338437

>  <r_i_glide_ligand_efficiency_sa>  (167) 
0.122136

>  <r_i_glide_ligand_efficiency_ln>  (167) 
0.32796

>  <r_i_glide_gscore>  (167) 
1.59066

>  <r_i_glide_lipo>  (167) 
-0.374461

>  <r_i_glide_hbond>  (167) 
-0.302873

>  <r_i_glide_metal>  (167) 
-0

>  <r_i_glide_rewards>  (167) 
-0.5

>  <r_i_glide_evdw>  (167) 
-25.7566

>  <r_i_glide_ecoul>  (167) 
-5.14613

>  <r_i_glide_erotb>  (167) 
0.0500867

>  <r_i_glide_esite>  (167) 
-0.0579873

>  <r_i_glide_emodel>  (167) 
-15.6084

>  <r_i_glide_energy>  (167) 
-30.9027

>  <r_i_glide_einternal>  (167) 
13.3674

>  <r_i_glide_intrahb_reward>  (167) 
-0.5

>  <i_i_glide_confnum>  (167) 
1

>  <i_i_glide_posenum>  (167) 
20

>  <r_i_glide_eff_state_penalty>  (167) 
0

>  <ligand_id>  (167) 
75

>  <original_smiles>  (167) 
COC12CC3(OC(C)=O)C(O)CC3C3OC3C3(O)CC(OC(=O)C4CC4)c4c(-c5cccs5)oc(O)c4C(O)(C(O)[S+]1[O-])C2C31CO1

>  <smiles>  (167) 
[H]OC1([H])C([H])([H])C2([H])C3([H])OC3([H])C3(O[H])C([H])([H])C([H])(OC(=O)C4([H])C([H])([H])C4([H])[H])C4=C(C(=O)OC4([H])c4sc([H])c([H])c4[H])C4(O[H])C([H])([O-])S(=O)C(OC([H])([H])[H])(C([H])([H])C12OC(=O)C([H])([H])[H])C4([H])C31OC1([H])[H]

$$$$
75:4:0
     RDKit          3D

 81 89  0  0  1  0  0  0  0  0999 V2000
    0.9055   -4.6569    3.7638 C   0  0  0  0  0  0  0  0  0  0  0  0
    1.6568   -3.4596    3.5525 O   0  0  0  0  0  0  0  0  0  0  0  0
    2.9499   -3.3794    4.1492 C   0  0  2  0  0  0  0  0  0  0  0  0
    4.0305   -4.0900    3.2464 C   0  0  0  0  0  0  0  0  0  0  0  0
    3.8401   -4.2929    1.6976 C   0  0  2  0  0  0  0  0  0  0  0  0
    2.7808   -5.2140    1.3878 O   0  0  0  0  0  0  0  0  0  0  0  0
    2.6817   -6.5472    1.6858 C   0  0  0  0  0  0  0  0  0  0  0  0
    3.8968   -7.2709    2.3500 C   0  0  0  0  0  0  0  0  0  0  0  0
    1.6395   -7.1290    1.3803 O   0  0  0  0  0  0  0  0  0  0  0  0
    5.1696   -4.7247    1.0000 C   0  0  1  0  0  0  0  0  0  0  0  0
    5.1563   -5.7064   -0.0163 O   0  0  0  0  0  0  0  0  0  0  0  0
    5.3913   -3.3039    0.5251 C   0  0  0  0  0  0  0  0  0  0  0  0
    3.8647   -3.2135    0.5235 C   0  0  2  0  0  0  0  0  0  0  0  0
    3.1561   -1.8716    0.2307 C   0  0  2  0  0  0  0  0  0  0  0  0
    4.0802   -0.7798    0.4494 O   0  0  0  0  0  0  0  0  0  0  0  0
    2.8184   -0.5883    1.0118 C   0  0  2  0  0  0  0  0  0  0  0  0
    2.6224   -0.4317    2.5117 C   0  0  2  0  0  0  0  0  0  0  0  0
    1.3939   -1.1026    2.5701 O   0  0  0  0  0  0  0  0  0  0  0  0
    2.2236    1.0232    2.8771 C   0  0  0  0  0  0  0  0  0  0  0  0
    1.9145    1.3182    4.3739 C   0  0  1  0  0  0  0  0  0  0  0  0
    1.3758    2.6382    4.4734 O   0  0  0  0  0  0  0  0  0  0  0  0
    2.1992    3.7109    4.6311 C   0  0  0  0  0  0  0  0  0  0  0  0
    3.4209    3.6458    4.7627 O   0  0  0  0  0  0  0  0  0  0  0  0
    1.4815    5.0432    4.6130 C   0  0  0  0  0  0  0  0  0  0  0  0
    0.2044    5.1946    3.7990 C   0  0  0  0  0  0  0  0  0  0  0  0
    1.4694    5.8141    3.3015 C   0  0  0  0  0  0  0  0  0  0  0  0
    0.9797    0.2868    5.0028 C   0  0  0  0  0  0  0  0  0  0  0  0
   -0.5151    0.3985    4.9258 C   0  0  2  0  0  0  0  0  0  0  0  0
   -1.1329    1.4262    5.8249 C   0  0  0  0  0  0  0  0  0  0  0  0
   -1.9215    2.4965    5.4784 C   0  0  0  0  0  0  0  0  0  0  0  0
   -2.3772    3.2494    6.5895 C   0  0  0  0  0  0  0  0  0  0  0  0
   -1.9462    2.7535    7.7981 C   0  0  0  0  0  0  0  0  0  0  0  0
   -0.9465    1.3495    7.5618 S   0  0  0  0  0  0  0  0  0  0  0  0
   -0.9489   -0.8672    5.4039 O   0  0  0  0  0  0  0  0  0  0  0  0
    0.0601   -1.6141    5.8185 C   0  0  0  0  0  0  0  0  0  0  0  0
   -0.0924   -2.7426    6.2847 O   0  0  0  0  0  0  0  0  0  0  0  0
    1.3149   -0.8928    5.5810 C   0  0  0  0  0  0  0  0  0  0  0  0
    2.7292   -1.4287    5.8408 C   0  0  1  0  0  0  0  0  0  0  0  0
    3.5198   -0.4126    6.4168 O   0  0  0  0  0  0  0  0  0  0  0  0
    2.9371   -2.6038    6.8451 C   0  0  1  0  0  0  0  0  0  0  0  0
    2.1316   -2.6055    7.9980 O   0  0  0  0  0  0  0  0  0  0  0  0
    2.9610   -4.1662    5.8415 S   0  0  0  0  0  0  0  0  0  0  0  0
    4.3241   -4.8152    6.0526 O   0  0  0  0  0  0  0  0  0  0  0  0
    3.4216   -1.9479    4.5493 C   0  0  2  0  0  0  0  0  0  0  0  0
    3.7744   -0.9641    3.4145 C   0  0  1  0  0  0  0  0  0  0  0  0
    5.2591   -0.8109    3.0023 C   0  0  0  0  0  0  0  0  0  0  0  0
    4.6173    0.1066    3.8735 O   0  0  0  0  0  0  0  0  0  0  0  0
    0.2380   -4.7827    2.9103 H   0  0  0  0  0  0  0  0  0  0  0  0
    0.2996   -4.6351    4.6748 H   0  0  0  0  0  0  0  0  0  0  0  0
    1.5476   -5.5340    3.8141 H   0  0  0  0  0  0  0  0  0  0  0  0
    4.9722   -3.5471    3.3985 H   0  0  0  0  0  0  0  0  0  0  0  0
    4.1904   -5.0630    3.6546 H   0  0  0  0  0  0  0  0  0  0  0  0
    4.8320   -7.0331    1.8264 H   0  0  0  0  0  0  0  0  0  0  0  0
    3.6973   -8.3612    2.2919 H   0  0  0  0  0  0  0  0  0  0  0  0
    3.9078   -6.9830    3.4141 H   0  0  0  0  0  0  0  0  0  0  0  0
    5.9330   -4.9967    1.7340 H   0  0  0  0  0  0  0  0  0  0  0  0
    4.4747   -5.4995   -0.6361 H   0  0  0  0  0  0  0  0  0  0  0  0
    5.9013   -2.6852    1.2658 H   0  0  0  0  0  0  0  0  0  0  0  0
    5.8617   -3.2286   -0.4590 H   0  0  0  0  0  0  0  0  0  0  0  0
    3.5339   -3.7797   -0.3600 H   0  0  0  0  0  0  0  0  0  0  0  0
    2.6845   -1.8992   -0.7618 H   0  0  0  0  0  0  0  0  0  0  0  0
    2.2015    0.1405    0.4644 H   0  0  0  0  0  0  0  0  0  0  0  0
    0.8923   -0.8987    1.7855 H   0  0  0  0  0  0  0  0  0  0  0  0
    3.0206    1.6881    2.5493 H   0  0  0  0  0  0  0  0  0  0  0  0
    1.3589    1.3251    2.2755 H   0  0  0  0  0  0  0  0  0  0  0  0
    2.8403    1.3084    4.9394 H   0  0  0  0  0  0  0  0  0  0  0  0
    1.5727    5.6421    5.5244 H   0  0  0  0  0  0  0  0  0  0  0  0
   -0.1767    4.3321    3.2543 H   0  0  0  0  0  0  0  0  0  0  0  0
   -0.5440    5.8652    4.2107 H   0  0  0  0  0  0  0  0  0  0  0  0
    1.5333    6.8976    3.3654 H   0  0  0  0  0  0  0  0  0  0  0  0
    1.9336    5.3631    2.4266 H   0  0  0  0  0  0  0  0  0  0  0  0
   -2.1862    2.7361    4.4572 H   0  0  0  0  0  0  0  0  0  0  0  0
   -2.9935    4.1206    6.4725 H   0  0  0  0  0  0  0  0  0  0  0  0
   -2.1428    3.1388    8.7793 H   0  0  0  0  0  0  0  0  0  0  0  0
   -0.8151    0.5352    3.8956 H   0  0  0  0  0  0  0  0  0  0  0  0
    3.7515    0.2298    5.7585 H   0  0  0  0  0  0  0  0  0  0  0  0
    3.9590   -2.5895    7.2407 H   0  0  0  0  0  0  0  0  0  0  0  0
    2.6301   -2.2023    8.6940 H   0  0  0  0  0  0  0  0  0  0  0  0
    4.4208   -2.1699    4.9251 H   0  0  0  0  0  0  0  0  0  0  0  0
    5.9988   -1.4496    3.5047 H   0  0  0  0  0  0  0  0  0  0  0  0
    5.6086   -0.3170    2.0846 H   0  0  0  0  0  0  0  0  0  0  0  0
  1  2  1  0
  1 48  1  0
  1 49  1  0
  1 50  1  0
  3  2  1  6
 42  3  1  6
  3 44  1  0
  3  4  1  0
  4  5  1  0
  4 51  1  0
  4 52  1  0
  5 13  1  0
  5  6  1  1
  5 10  1  0
  6  7  1  0
  7  8  1  0
  7  9  2  0
  8 53  1  0
  8 54  1  0
  8 55  1  0
 10 11  1  0
 10 12  1  0
 10 56  1  1
 11 57  1  0
 12 13  1  0
 12 58  1  0
 12 59  1  0
 13 14  1  0
 13 60  1  6
 14 16  1  0
 14 15  1  0
 14 61  1  6
 15 16  1  0
 16 17  1  0
 16 62  1  6
 17 45  1  0
 17 18  1  1
 17 19  1  0
 18 63  1  0
 19 20  1  0
 19 64  1  0
 19 65  1  0
 20 21  1  0
 20 66  1  1
 20 27  1  0
 21 22  1  0
 22 23  2  0
 22 24  1  0
 24 26  1  0
 24 25  1  0
 24 67  1  0
 25 26  1  0
 25 68  1  0
 25 69  1  0
 26 70  1  0
 26 71  1  0
 27 37  2  0
 27 28  1  0
 28 34  1  0
 28 29  1  0
 28 75  1  6
 29 33  1  0
 29 30  2  0
 30 31  1  0
 30 72  1  0
 31 32  2  0
 31 73  1  0
 32 33  1  0
 32 74  1  0
 34 35  1  0
 35 37  1  0
 35 36  2  0
 37 38  1  0
 38 39  1  1
 38 40  1  0
 38 44  1  0
 39 76  1  0
 40 41  1  0
 40 42  1  0
 40 77  1  1
 41 78  1  0
 42 43  2  0
 44 45  1  0
 44 79  1  1
 45 47  1  1
 45 46  1  0
 46 47  1  0
 46 80  1  0
 46 81  1  0
M  END
>  <i_m_ct_stereo_status>  (168) 
1

>  <s_m_source_file>  (168) 
/var/tmp/pbs.5075288.sched01/tmp4tfr24xl/130i3iej58d.sdf

>  <i_m_source_file_index>  (168) 
62

>  <i_lp_mmshare_version>  (168) 
48012

>  <i_f3d_flags>  (168) 
0

>  <s_epik_input>  (168) 
TzFbQ0gyXUMxMltDQF0zKFtPSF0pW0NAQEhdNFtDQEBIXShPNClbQ0BASF01W0NAXShbQ0BASF0oW09IXSlbQ0gyXTUpKE9DKD1PKVtDSDNdKVtDSDJdW0NAXTYoT1tDSDNdKVtDQEBIXTJbQ0BdKFtPSF0pKFtDQEBIXShbT0hdKVtTK102W08tXSljN2MoYyhvYzdbT0hdKS1jOFtjSF1bY0hdW2NIXXM4KVtDQEBIXShbQ0gyXTMpT0MoPU8pW0NIXTlbQ0gyXVtDSDJdOQ==

>  <s_epik_cmdline>  (168) 
J2VwaWtfcHl0aG9uJywgJy1waHQnLCAnMi4wJywgJy1waCcsICc3LjAnLCAnLXRuJywgJzgnLCAnLW1hJywgJzIwMCcsICctaW1hZScsICc8aW5maWxlLm1hZT4nLCAnLW9tYWUnLCAnPG91dGZpbGUubWFlPic=

>  <r_lp_tautomer_probability>  (168) 
0.999841

>  <r_epik_Ionization_Penalty>  (168) 
1.81277

>  <r_epik_Ionization_Penalty_Charging>  (168) 
0

>  <r_epik_Ionization_Penalty_Neutral>  (168) 
1.81277

>  <r_epik_State_Penalty>  (168) 
1.53677

>  <r_epik_Charging_Adjusted_Penalty>  (168) 
1.53677

>  <i_epik_Tot_Q>  (168) 
0

>  <i_epik_Tot_abs_Q>  (168) 
0

>  <s_epik_Chemistry_Notes>  (168) 
This compound has an ester and may undergo hydrolysis at high or low pH. This compound contains an acetal/aminal-like group ( X-CH(R)-Y where X, Y are N, S, or O) that may be acid/base labile, releasing an aldehyde.

>  <s_lp_Force_Field>  (168) 
OPLS3e

>  <r_lp_Energy>  (168) 
99.6468

>  <b_lp_Chiralities_Consistent>  (168) 
1

>  <s_lp_Variant>  (168) 
75:0-5

>  <s_i_glide_gridfile>  (168) 
pfpi4k_grid

>  <i_i_glide_lignum>  (168) 
62

>  <i_i_glide_rotatable_bonds>  (168) 
11

>  <r_i_docking_score>  (168) 
-3.26277

>  <r_i_glide_ligand_efficiency>  (168) 
-0.0694206

>  <r_i_glide_ligand_efficiency_sa>  (168) 
-0.250527

>  <r_i_glide_ligand_efficiency_ln>  (168) 
-0.672715

>  <r_i_glide_gscore>  (168) 
-3.26277

>  <r_i_glide_lipo>  (168) 
-0.391406

>  <r_i_glide_hbond>  (168) 
0

>  <r_i_glide_metal>  (168) 
-0

>  <r_i_glide_rewards>  (168) 
-0.5

>  <r_i_glide_evdw>  (168) 
-33.6817

>  <r_i_glide_ecoul>  (168) 
-4.69993

>  <r_i_glide_erotb>  (168) 
0.0490561

>  <r_i_glide_esite>  (168) 
-0.0313457

>  <r_i_glide_emodel>  (168) 
-48.1752

>  <r_i_glide_energy>  (168) 
-38.3816

>  <r_i_glide_einternal>  (168) 
5.29726

>  <r_i_glide_intrahb_reward>  (168) 
-0.5

>  <i_i_glide_confnum>  (168) 
1

>  <i_i_glide_posenum>  (168) 
6

>  <r_i_glide_eff_state_penalty>  (168) 
0

>  <ligand_id>  (168) 
75

>  <original_smiles>  (168) 
COC12CC3(OC(C)=O)C(O)CC3C3OC3C3(O)CC(OC(=O)C4CC4)c4c(-c5cccs5)oc(O)c4C(O)(C(O)[S+]1[O-])C2C31CO1

>  <smiles>  (168) 
[H]OC1([H])S(=O)C2(OC([H])([H])[H])C([H])([H])C3(OC(=O)C([H])([H])[H])C([H])(O[H])C([H])([H])C3([H])C3([H])OC3([H])C3(O[H])C([H])([H])C([H])(OC(=O)C4([H])C([H])([H])C4([H])[H])C4=C(C(=O)OC4([H])c4sc([H])c([H])c4[H])C1(O[H])C2([H])C31OC1([H])[H]

$$$$
75:4:1
     RDKit          3D

 81 89  0  0  1  0  0  0  0  0999 V2000
    3.2823    1.7140    3.2981 C   0  0  0  0  0  0  0  0  0  0  0  0
    2.3770    1.0221    4.1459 O   0  0  0  0  0  0  0  0  0  0  0  0
    2.6519    1.0869    5.5358 C   0  0  2  0  0  0  0  0  0  0  0  0
    2.0163    2.3905    6.1202 C   0  0  0  0  0  0  0  0  0  0  0  0
    0.7957    3.1160    5.4401 C   0  0  2  0  0  0  0  0  0  0  0  0
    1.1495    3.6947    4.1699 O   0  0  0  0  0  0  0  0  0  0  0  0
    2.0109    4.7273    3.9975 C   0  0  0  0  0  0  0  0  0  0  0  0
    2.2525    5.0537    2.5263 C   0  0  0  0  0  0  0  0  0  0  0  0
    2.5848    5.3371    4.8979 O   0  0  0  0  0  0  0  0  0  0  0  0
    0.2006    4.1937    6.4241 C   0  0  1  0  0  0  0  0  0  0  0  0
   -0.1959    5.4641    5.9310 O   0  0  0  0  0  0  0  0  0  0  0  0
   -0.9466    3.2389    6.7323 C   0  0  0  0  0  0  0  0  0  0  0  0
   -0.7118    2.6654    5.3321 C   0  0  2  0  0  0  0  0  0  0  0  0
   -1.4529    1.4340    4.7913 C   0  0  2  0  0  0  0  0  0  0  0  0
   -1.9563    0.6357    5.8972 O   0  0  0  0  0  0  0  0  0  0  0  0
   -1.3312   -0.0990    4.8803 C   0  0  2  0  0  0  0  0  0  0  0  0
   -0.0846   -0.9019    5.1817 C   0  0  2  0  0  0  0  0  0  0  0  0
    0.5188   -0.7033    3.9092 O   0  0  0  0  0  0  0  0  0  0  0  0
   -0.3521   -2.4415    5.1603 C   0  0  0  0  0  0  0  0  0  0  0  0
    0.8731   -3.3942    5.3787 C   0  0  1  0  0  0  0  0  0  0  0  0
    0.5026   -4.7432    5.1258 O   0  0  0  0  0  0  0  0  0  0  0  0
   -0.1298   -5.4689    6.0686 C   0  0  0  0  0  0  0  0  0  0  0  0
   -0.4962   -5.0407    7.1683 O   0  0  0  0  0  0  0  0  0  0  0  0
   -0.4156   -6.8858    5.6339 C   0  0  0  0  0  0  0  0  0  0  0  0
    0.2022   -7.9962    6.4697 C   0  0  0  0  0  0  0  0  0  0  0  0
    0.7158   -7.7128    5.0851 C   0  0  0  0  0  0  0  0  0  0  0  0
    2.0968   -3.0073    4.5344 C   0  0  0  0  0  0  0  0  0  0  0  0
    2.2598   -3.4873    3.1180 C   0  0  2  0  0  0  0  0  0  0  0  0
    2.6636   -4.9165    2.9311 C   0  0  0  0  0  0  0  0  0  0  0  0
    3.4454   -5.6917    3.7527 C   0  0  0  0  0  0  0  0  0  0  0  0
    3.6581   -7.0072    3.2462 C   0  0  0  0  0  0  0  0  0  0  0  0
    3.0352   -7.2221    2.0473 C   0  0  0  0  0  0  0  0  0  0  0  0
    2.1961   -5.7931    1.4991 S   0  0  0  0  0  0  0  0  0  0  0  0
    3.3653   -2.7381    2.6669 O   0  0  0  0  0  0  0  0  0  0  0  0
    3.8732   -1.9373    3.6253 C   0  0  0  0  0  0  0  0  0  0  0  0
    4.8152   -1.1687    3.4543 O   0  0  0  0  0  0  0  0  0  0  0  0
    3.0447   -2.1051    4.8349 C   0  0  0  0  0  0  0  0  0  0  0  0
    3.2289   -1.3438    6.1585 C   0  0  1  0  0  0  0  0  0  0  0  0
    3.1121   -2.2834    7.2385 O   0  0  0  0  0  0  0  0  0  0  0  0
    4.6075   -0.6810    6.4712 C   0  0  1  0  0  0  0  0  0  0  0  0
    5.7674   -1.3845    6.0953 O   0  0  0  0  0  0  0  0  0  0  0  0
    4.4870    1.0904    5.9352 S   0  0  0  0  0  0  0  0  0  0  0  0
    4.6639    1.9395    7.1878 O   0  0  0  0  0  0  0  0  0  0  0  0
    2.2208   -0.1615    6.3314 C   0  0  2  0  0  0  0  0  0  0  0  0
    0.7171   -0.4469    6.4676 C   0  0  1  0  0  0  0  0  0  0  0  0
    0.0533   -0.0045    7.7952 C   0  0  0  0  0  0  0  0  0  0  0  0
    0.4379   -1.3429    7.5690 O   0  0  0  0  0  0  0  0  0  0  0  0
    2.7707    1.9662    2.3754 H   0  0  0  0  0  0  0  0  0  0  0  0
    4.1502    1.1024    3.0664 H   0  0  0  0  0  0  0  0  0  0  0  0
    3.6498    2.6244    3.7580 H   0  0  0  0  0  0  0  0  0  0  0  0
    1.7916    2.2000    7.1707 H   0  0  0  0  0  0  0  0  0  0  0  0
    2.8171    3.1332    6.2211 H   0  0  0  0  0  0  0  0  0  0  0  0
    2.4189    4.1454    1.9501 H   0  0  0  0  0  0  0  0  0  0  0  0
    3.1312    5.6886    2.4176 H   0  0  0  0  0  0  0  0  0  0  0  0
    1.3948    5.5657    2.0968 H   0  0  0  0  0  0  0  0  0  0  0  0
    0.8099    4.3355    7.3194 H   0  0  0  0  0  0  0  0  0  0  0  0
    0.6193    5.9262    5.7920 H   0  0  0  0  0  0  0  0  0  0  0  0
   -0.7072    2.5352    7.5318 H   0  0  0  0  0  0  0  0  0  0  0  0
   -1.9193    3.7259    6.8631 H   0  0  0  0  0  0  0  0  0  0  0  0
   -1.1207    3.4441    4.6739 H   0  0  0  0  0  0  0  0  0  0  0  0
   -2.1797    1.7200    4.0499 H   0  0  0  0  0  0  0  0  0  0  0  0
   -2.0105   -0.6204    4.2360 H   0  0  0  0  0  0  0  0  0  0  0  0
    1.4398   -0.9185    3.9563 H   0  0  0  0  0  0  0  0  0  0  0  0
   -1.1161   -2.6417    5.9032 H   0  0  0  0  0  0  0  0  0  0  0  0
   -0.8064   -2.6622    4.2067 H   0  0  0  0  0  0  0  0  0  0  0  0
    1.1771   -3.3657    6.4235 H   0  0  0  0  0  0  0  0  0  0  0  0
   -1.4163   -7.0836    5.2384 H   0  0  0  0  0  0  0  0  0  0  0  0
    0.8599   -7.7231    7.3032 H   0  0  0  0  0  0  0  0  0  0  0  0
   -0.3654   -8.9159    6.5872 H   0  0  0  0  0  0  0  0  0  0  0  0
    0.4643   -8.4316    4.3169 H   0  0  0  0  0  0  0  0  0  0  0  0
    1.7042   -7.2708    5.0373 H   0  0  0  0  0  0  0  0  0  0  0  0
    3.8768   -5.3633    4.6832 H   0  0  0  0  0  0  0  0  0  0  0  0
    4.2272   -7.7481    3.7848 H   0  0  0  0  0  0  0  0  0  0  0  0
    3.0038   -8.1360    1.4570 H   0  0  0  0  0  0  0  0  0  0  0  0
    1.3727   -3.2383    2.5497 H   0  0  0  0  0  0  0  0  0  0  0  0
    2.1988   -2.5168    7.3366 H   0  0  0  0  0  0  0  0  0  0  0  0
    4.7206   -0.5854    7.5608 H   0  0  0  0  0  0  0  0  0  0  0  0
    5.9881   -1.9584    6.8102 H   0  0  0  0  0  0  0  0  0  0  0  0
    2.4618    0.1357    7.3409 H   0  0  0  0  0  0  0  0  0  0  0  0
    0.6428    0.4946    8.5448 H   0  0  0  0  0  0  0  0  0  0  0  0
   -1.0064    0.0728    7.9648 H   0  0  0  0  0  0  0  0  0  0  0  0
  1  2  1  0
  1 48  1  0
  1 49  1  0
  1 50  1  0
  3  2  1  6
 42  3  1  1
  3 44  1  0
  3  4  1  0
  4  5  1  0
  4 51  1  0
  4 52  1  0
  5 13  1  0
  5  6  1  6
  5 10  1  0
  6  7  1  0
  7  8  1  0
  7  9  2  0
  8 53  1  0
  8 54  1  0
  8 55  1  0
 10 11  1  0
 10 12  1  0
 10 56  1  1
 11 57  1  0
 12 13  1  0
 12 58  1  0
 12 59  1  0
 13 14  1  0
 13 60  1  6
 14 16  1  0
 14 15  1  0
 14 61  1  6
 15 16  1  0
 16 17  1  0
 16 62  1  6
 17 45  1  0
 17 18  1  6
 17 19  1  0
 18 63  1  0
 19 20  1  0
 19 64  1  0
 19 65  1  0
 20 21  1  0
 20 66  1  1
 20 27  1  0
 21 22  1  0
 22 23  2  0
 22 24  1  0
 24 26  1  0
 24 25  1  0
 24 67  1  0
 25 26  1  0
 25 68  1  0
 25 69  1  0
 26 70  1  0
 26 71  1  0
 27 37  2  0
 27 28  1  0
 28 34  1  0
 28 29  1  0
 28 75  1  6
 29 33  1  0
 29 30  2  0
 30 31  1  0
 30 72  1  0
 31 32  2  0
 31 73  1  0
 32 33  1  0
 32 74  1  0
 34 35  1  0
 35 37  1  0
 35 36  2  0
 37 38  1  0
 38 39  1  1
 38 40  1  0
 38 44  1  0
 39 76  1  0
 40 41  1  0
 40 42  1  0
 40 77  1  1
 41 78  1  0
 42 43  2  0
 44 45  1  0
 44 79  1  1
 45 47  1  1
 45 46  1  0
 46 47  1  0
 46 80  1  0
 46 81  1  0
M  END
>  <i_m_ct_stereo_status>  (169) 
1

>  <s_m_source_file>  (169) 
/var/tmp/pbs.5075288.sched01/tmp4tfr24xl/130i3iej58d.sdf

>  <i_m_source_file_index>  (169) 
62

>  <i_lp_mmshare_version>  (169) 
48012

>  <i_f3d_flags>  (169) 
0

>  <s_epik_input>  (169) 
TzFbQ0gyXUMxMltDQF0zKFtPSF0pW0NAQEhdNFtDQEBIXShPNClbQ0BASF01W0NAXShbQ0BASF0oW09IXSlbQ0gyXTUpKE9DKD1PKVtDSDNdKVtDSDJdW0NAXTYoT1tDSDNdKVtDQEBIXTJbQ0BdKFtPSF0pKFtDQEBIXShbT0hdKVtTK102W08tXSljN2MoYyhvYzdbT0hdKS1jOFtjSF1bY0hdW2NIXXM4KVtDQEBIXShbQ0gyXTMpT0MoPU8pW0NIXTlbQ0gyXVtDSDJdOQ==

>  <s_epik_cmdline>  (169) 
J2VwaWtfcHl0aG9uJywgJy1waHQnLCAnMi4wJywgJy1waCcsICc3LjAnLCAnLXRuJywgJzgnLCAnLW1hJywgJzIwMCcsICctaW1hZScsICc8aW5maWxlLm1hZT4nLCAnLW9tYWUnLCAnPG91dGZpbGUubWFlPic=

>  <r_lp_tautomer_probability>  (169) 
0.999841

>  <r_epik_Ionization_Penalty>  (169) 
1.81277

>  <r_epik_Ionization_Penalty_Charging>  (169) 
0

>  <r_epik_Ionization_Penalty_Neutral>  (169) 
1.81277

>  <r_epik_State_Penalty>  (169) 
1.53677

>  <r_epik_Charging_Adjusted_Penalty>  (169) 
1.53677

>  <i_epik_Tot_Q>  (169) 
0

>  <i_epik_Tot_abs_Q>  (169) 
0

>  <s_epik_Chemistry_Notes>  (169) 
This compound has an ester and may undergo hydrolysis at high or low pH. This compound contains an acetal/aminal-like group ( X-CH(R)-Y where X, Y are N, S, or O) that may be acid/base labile, releasing an aldehyde.

>  <s_lp_Force_Field>  (169) 
OPLS3e

>  <r_lp_Energy>  (169) 
99.6468

>  <b_lp_Chiralities_Consistent>  (169) 
1

>  <s_lp_Variant>  (169) 
75:0-5

>  <s_i_glide_gridfile>  (169) 
pfpi4k_grid

>  <i_i_glide_lignum>  (169) 
62

>  <i_i_glide_rotatable_bonds>  (169) 
11

>  <r_i_docking_score>  (169) 
-3.18005

>  <r_i_glide_ligand_efficiency>  (169) 
-0.0676607

>  <r_i_glide_ligand_efficiency_sa>  (169) 
-0.244176

>  <r_i_glide_ligand_efficiency_ln>  (169) 
-0.655661

>  <r_i_glide_gscore>  (169) 
-3.18005

>  <r_i_glide_lipo>  (169) 
-0.0220926

>  <r_i_glide_hbond>  (169) 
-0.0217334

>  <r_i_glide_metal>  (169) 
-0

>  <r_i_glide_rewards>  (169) 
-1.0146

>  <r_i_glide_evdw>  (169) 
-29.8807

>  <r_i_glide_ecoul>  (169) 
-4.30518

>  <r_i_glide_erotb>  (169) 
0.0490561

>  <r_i_glide_esite>  (169) 
-0.0308748

>  <r_i_glide_emodel>  (169) 
-50.9961

>  <r_i_glide_energy>  (169) 
-34.1859

>  <r_i_glide_einternal>  (169) 
1.75808

>  <r_i_glide_intrahb_reward>  (169) 
-1

>  <i_i_glide_confnum>  (169) 
4

>  <i_i_glide_posenum>  (169) 
2

>  <r_i_glide_eff_state_penalty>  (169) 
0

>  <ligand_id>  (169) 
75

>  <original_smiles>  (169) 
COC12CC3(OC(C)=O)C(O)CC3C3OC3C3(O)CC(OC(=O)C4CC4)c4c(-c5cccs5)oc(O)c4C(O)(C(O)[S+]1[O-])C2C31CO1

>  <smiles>  (169) 
[H]OC1([H])S(=O)C2(OC([H])([H])[H])C([H])([H])C3(OC(=O)C([H])([H])[H])C([H])(O[H])C([H])([H])C3([H])C3([H])OC3([H])C3(O[H])C([H])([H])C([H])(OC(=O)C4([H])C([H])([H])C4([H])[H])C4=C(C(=O)OC4([H])c4sc([H])c([H])c4[H])C1(O[H])C2([H])C31OC1([H])[H]

$$$$
75:4:2
     RDKit          3D

 81 89  0  0  1  0  0  0  0  0999 V2000
    3.3695    1.5406    3.2776 C   0  0  0  0  0  0  0  0  0  0  0  0
    2.4345    0.8856    4.1290 O   0  0  0  0  0  0  0  0  0  0  0  0
    2.7048    0.9318    5.5248 C   0  0  2  0  0  0  0  0  0  0  0  0
    2.0748    2.2303    6.1305 C   0  0  0  0  0  0  0  0  0  0  0  0
    0.8581    2.9727    5.4612 C   0  0  2  0  0  0  0  0  0  0  0  0
    1.2233    3.5266    4.1836 O   0  0  0  0  0  0  0  0  0  0  0  0
    2.1093    4.5429    4.0091 C   0  0  0  0  0  0  0  0  0  0  0  0
    2.3509    4.8792    2.5400 C   0  0  0  0  0  0  0  0  0  0  0  0
    2.7001    5.1433    4.9062 O   0  0  0  0  0  0  0  0  0  0  0  0
    0.2771    4.0487    6.4502 C   0  0  1  0  0  0  0  0  0  0  0  0
   -0.1048    5.3281    5.9710 O   0  0  0  0  0  0  0  0  0  0  0  0
   -0.8800    3.1060    6.7590 C   0  0  0  0  0  0  0  0  0  0  0  0
   -0.6587    2.5472    5.3602 C   0  0  2  0  0  0  0  0  0  0  0  0
   -1.4267    1.3316    4.8119 C   0  0  2  0  0  0  0  0  0  0  0  0
   -1.9551    0.5348    5.9109 O   0  0  0  0  0  0  0  0  0  0  0  0
   -1.3203   -0.1998    4.8958 C   0  0  2  0  0  0  0  0  0  0  0  0
   -0.0753   -1.0201    5.1833 C   0  0  2  0  0  0  0  0  0  0  0  0
    0.5221   -0.8093    3.9207 O   0  0  0  0  0  0  0  0  0  0  0  0
   -0.3605   -2.5538    5.1543 C   0  0  0  0  0  0  0  0  0  0  0  0
    0.8566   -3.5182    5.3536 C   0  0  1  0  0  0  0  0  0  0  0  0
    0.4869   -4.8672    5.0887 O   0  0  0  0  0  0  0  0  0  0  0  0
   -0.0548   -5.6414    6.0513 C   0  0  0  0  0  0  0  0  0  0  0  0
   -0.4094   -5.2343    7.1588 O   0  0  0  0  0  0  0  0  0  0  0  0
   -0.2058   -7.0981    5.6667 C   0  0  0  0  0  0  0  0  0  0  0  0
    0.1010   -7.5419    4.2530 C   0  0  0  0  0  0  0  0  0  0  0  0
   -1.3255   -7.4901    4.7239 C   0  0  0  0  0  0  0  0  0  0  0  0
    2.0752   -3.1393    4.5035 C   0  0  0  0  0  0  0  0  0  0  0  0
    2.2114   -3.6194    3.0803 C   0  0  2  0  0  0  0  0  0  0  0  0
    2.6025   -5.0537    2.8804 C   0  0  0  0  0  0  0  0  0  0  0  0
    3.2999   -5.8765    3.7304 C   0  0  0  0  0  0  0  0  0  0  0  0
    3.5034   -7.1840    3.1964 C   0  0  0  0  0  0  0  0  0  0  0  0
    2.9791   -7.3393    1.9427 C   0  0  0  0  0  0  0  0  0  0  0  0
    2.2341   -5.8670    1.3778 S   0  0  0  0  0  0  0  0  0  0  0  0
    3.3228   -2.8795    2.6255 O   0  0  0  0  0  0  0  0  0  0  0  0
    3.8675   -2.1068    3.5871 C   0  0  0  0  0  0  0  0  0  0  0  0
    4.8505   -1.3954    3.4207 O   0  0  0  0  0  0  0  0  0  0  0  0
    3.0379   -2.2594    4.8046 C   0  0  0  0  0  0  0  0  0  0  0  0
    3.2488   -1.5107    6.1381 C   0  0  1  0  0  0  0  0  0  0  0  0
    3.0935   -2.4453    7.2046 O   0  0  0  0  0  0  0  0  0  0  0  0
    4.6354   -0.8652    6.4553 C   0  0  1  0  0  0  0  0  0  0  0  0
    5.7653   -1.6032    6.0474 O   0  0  0  0  0  0  0  0  0  0  0  0
    4.5410    0.9145    5.9222 S   0  0  0  0  0  0  0  0  0  0  0  0
    4.7413    1.7468    7.1870 O   0  0  0  0  0  0  0  0  0  0  0  0
    2.2510   -0.3270    6.3114 C   0  0  2  0  0  0  0  0  0  0  0  0
    0.7402   -0.6018    6.4563 C   0  0  1  0  0  0  0  0  0  0  0  0
    0.0850   -0.1412    7.7759 C   0  0  0  0  0  0  0  0  0  0  0  0
    0.4318   -1.4876    7.5625 O   0  0  0  0  0  0  0  0  0  0  0  0
    2.8722    1.8035    2.3494 H   0  0  0  0  0  0  0  0  0  0  0  0
    4.2117    0.9070    3.0169 H   0  0  0  0  0  0  0  0  0  0  0  0
    3.7714    2.4514    3.7193 H   0  0  0  0  0  0  0  0  0  0  0  0
    1.8416    2.0340    7.1764 H   0  0  0  0  0  0  0  0  0  0  0  0
    2.8796    2.9648    6.2269 H   0  0  0  0  0  0  0  0  0  0  0  0
    2.5178    3.9784    1.9541 H   0  0  0  0  0  0  0  0  0  0  0  0
    3.2269    5.5181    2.4252 H   0  0  0  0  0  0  0  0  0  0  0  0
    1.4886    5.3879    2.1140 H   0  0  0  0  0  0  0  0  0  0  0  0
    0.8962    4.1718    7.3349 H   0  0  0  0  0  0  0  0  0  0  0  0
    0.7108    5.7886    5.8282 H   0  0  0  0  0  0  0  0  0  0  0  0
   -0.6426    2.3941    7.5486 H   0  0  0  0  0  0  0  0  0  0  0  0
   -1.8407    3.6066    6.9053 H   0  0  0  0  0  0  0  0  0  0  0  0
   -1.0539    3.3444    4.7177 H   0  0  0  0  0  0  0  0  0  0  0  0
   -2.1601    1.6286    4.0702 H   0  0  0  0  0  0  0  0  0  0  0  0
   -2.0200   -0.7171    4.2597 H   0  0  0  0  0  0  0  0  0  0  0  0
    1.4217   -1.0966    3.9564 H   0  0  0  0  0  0  0  0  0  0  0  0
   -1.1204   -2.7709    5.9008 H   0  0  0  0  0  0  0  0  0  0  0  0
   -0.8268   -2.7514    4.1971 H   0  0  0  0  0  0  0  0  0  0  0  0
    1.1650   -3.4867    6.3936 H   0  0  0  0  0  0  0  0  0  0  0  0
    0.0407   -7.8257    6.4361 H   0  0  0  0  0  0  0  0  0  0  0  0
    0.3947   -6.8178    3.4994 H   0  0  0  0  0  0  0  0  0  0  0  0
    0.5473   -8.5269    4.1460 H   0  0  0  0  0  0  0  0  0  0  0  0
   -1.7953   -8.4568    4.8841 H   0  0  0  0  0  0  0  0  0  0  0  0
   -1.9731   -6.7155    4.3151 H   0  0  0  0  0  0  0  0  0  0  0  0
    3.6663   -5.5963    4.7071 H   0  0  0  0  0  0  0  0  0  0  0  0
    4.0107   -7.9576    3.7502 H   0  0  0  0  0  0  0  0  0  0  0  0
    2.9817   -8.2291    1.3194 H   0  0  0  0  0  0  0  0  0  0  0  0
    1.3159   -3.3600    2.5159 H   0  0  0  0  0  0  0  0  0  0  0  0
    3.8288   -3.0429    7.1949 H   0  0  0  0  0  0  0  0  0  0  0  0
    4.7629   -0.7851    7.5407 H   0  0  0  0  0  0  0  0  0  0  0  0
    6.0592   -2.1473    6.7598 H   0  0  0  0  0  0  0  0  0  0  0  0
    2.4949   -0.0404    7.3282 H   0  0  0  0  0  0  0  0  0  0  0  0
    0.6796    0.3347    8.5456 H   0  0  0  0  0  0  0  0  0  0  0  0
   -0.9829   -0.0541    7.9440 H   0  0  0  0  0  0  0  0  0  0  0  0
  1  2  1  0
  1 48  1  0
  1 49  1  0
  1 50  1  0
  3  2  1  6
 42  3  1  1
  3 44  1  0
  3  4  1  0
  4  5  1  0
  4 51  1  0
  4 52  1  0
  5 13  1  0
  5  6  1  6
  5 10  1  0
  6  7  1  0
  7  8  1  0
  7  9  2  0
  8 53  1  0
  8 54  1  0
  8 55  1  0
 10 11  1  0
 10 12  1  0
 10 56  1  1
 11 57  1  0
 12 13  1  0
 12 58  1  0
 12 59  1  0
 13 14  1  0
 13 60  1  6
 14 16  1  0
 14 15  1  0
 14 61  1  6
 15 16  1  0
 16 17  1  0
 16 62  1  6
 17 45  1  0
 17 18  1  6
 17 19  1  0
 18 63  1  0
 19 20  1  0
 19 64  1  0
 19 65  1  0
 20 21  1  0
 20 66  1  1
 20 27  1  0
 21 22  1  0
 22 23  2  0
 22 24  1  0
 24 26  1  0
 24 25  1  0
 24 67  1  0
 25 26  1  0
 25 68  1  0
 25 69  1  0
 26 70  1  0
 26 71  1  0
 27 37  2  0
 27 28  1  0
 28 34  1  0
 28 29  1  0
 28 75  1  6
 29 33  1  0
 29 30  2  0
 30 31  1  0
 30 72  1  0
 31 32  2  0
 31 73  1  0
 32 33  1  0
 32 74  1  0
 34 35  1  0
 35 37  1  0
 35 36  2  0
 37 38  1  0
 38 39  1  1
 38 40  1  0
 38 44  1  0
 39 76  1  0
 40 41  1  0
 40 42  1  0
 40 77  1  1
 41 78  1  0
 42 43  2  0
 44 45  1  0
 44 79  1  1
 45 47  1  1
 45 46  1  0
 46 47  1  0
 46 80  1  0
 46 81  1  0
M  END
>  <i_m_ct_stereo_status>  (170) 
1

>  <s_m_source_file>  (170) 
/var/tmp/pbs.5075288.sched01/tmp4tfr24xl/130i3iej58d.sdf

>  <i_m_source_file_index>  (170) 
62

>  <i_lp_mmshare_version>  (170) 
48012

>  <i_f3d_flags>  (170) 
0

>  <s_epik_input>  (170) 
TzFbQ0gyXUMxMltDQF0zKFtPSF0pW0NAQEhdNFtDQEBIXShPNClbQ0BASF01W0NAXShbQ0BASF0oW09IXSlbQ0gyXTUpKE9DKD1PKVtDSDNdKVtDSDJdW0NAXTYoT1tDSDNdKVtDQEBIXTJbQ0BdKFtPSF0pKFtDQEBIXShbT0hdKVtTK102W08tXSljN2MoYyhvYzdbT0hdKS1jOFtjSF1bY0hdW2NIXXM4KVtDQEBIXShbQ0gyXTMpT0MoPU8pW0NIXTlbQ0gyXVtDSDJdOQ==

>  <s_epik_cmdline>  (170) 
J2VwaWtfcHl0aG9uJywgJy1waHQnLCAnMi4wJywgJy1waCcsICc3LjAnLCAnLXRuJywgJzgnLCAnLW1hJywgJzIwMCcsICctaW1hZScsICc8aW5maWxlLm1hZT4nLCAnLW9tYWUnLCAnPG91dGZpbGUubWFlPic=

>  <r_lp_tautomer_probability>  (170) 
0.999841

>  <r_epik_Ionization_Penalty>  (170) 
1.81277

>  <r_epik_Ionization_Penalty_Charging>  (170) 
0

>  <r_epik_Ionization_Penalty_Neutral>  (170) 
1.81277

>  <r_epik_State_Penalty>  (170) 
1.53677

>  <r_epik_Charging_Adjusted_Penalty>  (170) 
1.53677

>  <i_epik_Tot_Q>  (170) 
0

>  <i_epik_Tot_abs_Q>  (170) 
0

>  <s_epik_Chemistry_Notes>  (170) 
This compound has an ester and may undergo hydrolysis at high or low pH. This compound contains an acetal/aminal-like group ( X-CH(R)-Y where X, Y are N, S, or O) that may be acid/base labile, releasing an aldehyde.

>  <s_lp_Force_Field>  (170) 
OPLS3e

>  <r_lp_Energy>  (170) 
99.6468

>  <b_lp_Chiralities_Consistent>  (170) 
1

>  <s_lp_Variant>  (170) 
75:0-5

>  <s_i_glide_gridfile>  (170) 
pfpi4k_grid

>  <i_i_glide_lignum>  (170) 
62

>  <i_i_glide_rotatable_bonds>  (170) 
11

>  <r_i_docking_score>  (170) 
-2.80029

>  <r_i_glide_ligand_efficiency>  (170) 
-0.0595806

>  <r_i_glide_ligand_efficiency_sa>  (170) 
-0.215016

>  <r_i_glide_ligand_efficiency_ln>  (170) 
-0.577361

>  <r_i_glide_gscore>  (170) 
-2.80029

>  <r_i_glide_lipo>  (170) 
-0.0218738

>  <r_i_glide_hbond>  (170) 
-0.0468592

>  <r_i_glide_metal>  (170) 
-0

>  <r_i_glide_rewards>  (170) 
-0.510413

>  <r_i_glide_evdw>  (170) 
-31.293

>  <r_i_glide_ecoul>  (170) 
-4.50847

>  <r_i_glide_erotb>  (170) 
0.0490561

>  <r_i_glide_esite>  (170) 
-0.029276

>  <r_i_glide_emodel>  (170) 
-46.1418

>  <r_i_glide_energy>  (170) 
-35.8015

>  <r_i_glide_einternal>  (170) 
3.05809

>  <r_i_glide_intrahb_reward>  (170) 
-0.5

>  <i_i_glide_confnum>  (170) 
1

>  <i_i_glide_posenum>  (170) 
8

>  <r_i_glide_eff_state_penalty>  (170) 
0

>  <ligand_id>  (170) 
75

>  <original_smiles>  (170) 
COC12CC3(OC(C)=O)C(O)CC3C3OC3C3(O)CC(OC(=O)C4CC4)c4c(-c5cccs5)oc(O)c4C(O)(C(O)[S+]1[O-])C2C31CO1

>  <smiles>  (170) 
[H]OC1([H])S(=O)C2(OC([H])([H])[H])C([H])([H])C3(OC(=O)C([H])([H])[H])C([H])(O[H])C([H])([H])C3([H])C3([H])OC3([H])C3(O[H])C([H])([H])C([H])(OC(=O)C4([H])C([H])([H])C4([H])[H])C4=C(C(=O)OC4([H])c4sc([H])c([H])c4[H])C1(O[H])C2([H])C31OC1([H])[H]

$$$$
75:5:0
     RDKit          3D

 81 89  0  0  1  0  0  0  0  0999 V2000
    5.4483   -9.3005    6.4518 C   0  0  0  0  0  0  0  0  0  0  0  0
    4.4021   -8.7678    5.6398 O   0  0  0  0  0  0  0  0  0  0  0  0
    3.3619   -9.6669    5.2557 C   0  0  2  0  0  0  0  0  0  0  0  0
    2.2962   -9.8333    6.4136 C   0  0  0  0  0  0  0  0  0  0  0  0
    1.9543   -8.7506    7.5284 C   0  0  2  0  0  0  0  0  0  0  0  0
    3.1177   -8.1286    8.1117 O   0  0  0  0  0  0  0  0  0  0  0  0
    3.9583   -8.7035    8.9950 C   0  0  0  0  0  0  0  0  0  0  0  0
    5.1429   -7.8245    9.3633 C   0  0  0  0  0  0  0  0  0  0  0  0
    3.8892   -9.8848    9.4049 O   0  0  0  0  0  0  0  0  0  0  0  0
    0.9564   -9.3776    8.5930 C   0  0  1  0  0  0  0  0  0  0  0  0
    1.0829   -9.0995    9.9807 O   0  0  0  0  0  0  0  0  0  0  0  0
   -0.1765   -8.6452    7.9085 C   0  0  0  0  0  0  0  0  0  0  0  0
    0.8517   -7.6130    7.4914 C   0  0  2  0  0  0  0  0  0  0  0  0
    0.4228   -6.5342    6.4874 C   0  0  2  0  0  0  0  0  0  0  0  0
   -0.3120   -7.1001    5.4074 O   0  0  0  0  0  0  0  0  0  0  0  0
    0.7316   -6.2365    5.0018 C   0  0  2  0  0  0  0  0  0  0  0  0
    1.8806   -6.8524    4.2084 C   0  0  2  0  0  0  0  0  0  0  0  0
    2.9422   -6.6855    5.1178 O   0  0  0  0  0  0  0  0  0  0  0  0
    2.2692   -5.8965    3.0507 C   0  0  0  0  0  0  0  0  0  0  0  0
    3.2456   -6.4284    1.9614 C   0  0  1  0  0  0  0  0  0  0  0  0
    3.5186   -5.3545    1.0731 O   0  0  0  0  0  0  0  0  0  0  0  0
    2.6560   -4.9899    0.1407 C   0  0  0  0  0  0  0  0  0  0  0  0
    1.5288   -5.5503   -0.0285 O   0  0  0  0  0  0  0  0  0  0  0  0
    3.1470   -3.8793   -0.7880 C   0  0  0  0  0  0  0  0  0  0  0  0
    4.4061   -3.1032   -0.3964 C   0  0  0  0  0  0  0  0  0  0  0  0
    3.0601   -2.4282   -0.3313 C   0  0  0  0  0  0  0  0  0  0  0  0
    4.5489   -7.0127    2.4895 C   0  0  0  0  0  0  0  0  0  0  0  0
    5.7801   -6.1599    2.6078 C   0  0  1  0  0  0  0  0  0  0  0  0
    5.6995   -5.0589    3.6624 C   0  0  0  0  0  0  0  0  0  0  0  0
    5.2716   -3.7834    3.4977 C   0  0  0  0  0  0  0  0  0  0  0  0
    5.3496   -2.9943    4.7016 C   0  0  0  0  0  0  0  0  0  0  0  0
    5.8206   -3.6951    5.7471 C   0  0  0  0  0  0  0  0  0  0  0  0
    6.1976   -5.3465    5.3191 S   0  0  0  0  0  0  0  0  0  0  0  0
    6.7661   -7.0864    2.9905 O   0  0  0  0  0  0  0  0  0  0  0  0
    6.2633   -8.3195    3.1531 C   0  0  0  0  0  0  0  0  0  0  0  0
    6.9361   -9.2626    3.5527 O   0  0  0  0  0  0  0  0  0  0  0  0
    4.8279   -8.2956    2.7951 C   0  0  0  0  0  0  0  0  0  0  0  0
    3.8620   -9.5015    2.7714 C   0  0  1  0  0  0  0  0  0  0  0  0
    3.2992   -9.6181    1.4705 O   0  0  0  0  0  0  0  0  0  0  0  0
    4.3857  -10.9585    3.0367 C   0  0  1  0  0  0  0  0  0  0  0  0
    5.5967  -11.3627    2.4264 O   0  0  0  0  0  0  0  0  0  0  0  0
    4.1244  -11.3288    4.8371 S   0  0  0  0  0  0  0  0  0  0  0  0
    3.0247  -12.3928    4.9048 O   0  0  0  0  0  0  0  0  0  0  0  0
    2.7390   -9.3712    3.8569 C   0  0  2  0  0  0  0  0  0  0  0  0
    1.6126   -8.3125    3.7092 C   0  0  1  0  0  0  0  0  0  0  0  0
    0.1733   -8.8150    3.4362 C   0  0  0  0  0  0  0  0  0  0  0  0
    1.0049   -8.3414    2.4005 O   0  0  0  0  0  0  0  0  0  0  0  0
    5.9374   -8.4354    6.8995 H   0  0  0  0  0  0  0  0  0  0  0  0
    6.2246   -9.8205    5.8736 H   0  0  0  0  0  0  0  0  0  0  0  0
    5.0326   -9.9212    7.2239 H   0  0  0  0  0  0  0  0  0  0  0  0
    1.3692  -10.1923    5.9672 H   0  0  0  0  0  0  0  0  0  0  0  0
    2.6316  -10.7016    6.9756 H   0  0  0  0  0  0  0  0  0  0  0  0
    5.3899   -7.1828    8.5252 H   0  0  0  0  0  0  0  0  0  0  0  0
    6.0090   -8.4416    9.5789 H   0  0  0  0  0  0  0  0  0  0  0  0
    4.9446   -7.1901   10.2368 H   0  0  0  0  0  0  0  0  0  0  0  0
    0.8216  -10.4481    8.4816 H   0  0  0  0  0  0  0  0  0  0  0  0
    1.4378   -8.2284   10.0671 H   0  0  0  0  0  0  0  0  0  0  0  0
   -0.6089   -9.2054    7.0740 H   0  0  0  0  0  0  0  0  0  0  0  0
   -0.9469   -8.2749    8.5923 H   0  0  0  0  0  0  0  0  0  0  0  0
    1.0773   -7.0239    8.3871 H   0  0  0  0  0  0  0  0  0  0  0  0
   -0.0739   -5.7096    7.0036 H   0  0  0  0  0  0  0  0  0  0  0  0
    0.3727   -5.2792    4.6261 H   0  0  0  0  0  0  0  0  0  0  0  0
    2.8734   -7.3511    5.7880 H   0  0  0  0  0  0  0  0  0  0  0  0
    1.3411   -5.6172    2.5557 H   0  0  0  0  0  0  0  0  0  0  0  0
    2.6504   -4.9655    3.4650 H   0  0  0  0  0  0  0  0  0  0  0  0
    2.7535   -7.2086    1.3754 H   0  0  0  0  0  0  0  0  0  0  0  0
    3.0303   -4.0443   -1.8570 H   0  0  0  0  0  0  0  0  0  0  0  0
    4.8943   -3.3546    0.5398 H   0  0  0  0  0  0  0  0  0  0  0  0
    5.0695   -2.7892   -1.1958 H   0  0  0  0  0  0  0  0  0  0  0  0
    2.8911   -1.6708   -1.0864 H   0  0  0  0  0  0  0  0  0  0  0  0
    2.6131   -2.2386    0.6418 H   0  0  0  0  0  0  0  0  0  0  0  0
    4.9214   -3.3443    2.5824 H   0  0  0  0  0  0  0  0  0  0  0  0
    5.0707   -1.9485    4.6966 H   0  0  0  0  0  0  0  0  0  0  0  0
    6.0045   -3.3393    6.7700 H   0  0  0  0  0  0  0  0  0  0  0  0
    6.0490   -5.7342    1.6417 H   0  0  0  0  0  0  0  0  0  0  0  0
    3.5732  -10.4479    1.0799 H   0  0  0  0  0  0  0  0  0  0  0  0
    3.6767  -11.6723    2.6100 H   0  0  0  0  0  0  0  0  0  0  0  0
    5.3615  -11.7784    1.6093 H   0  0  0  0  0  0  0  0  0  0  0  0
    2.1461  -10.2655    3.6787 H   0  0  0  0  0  0  0  0  0  0  0  0
    0.0136   -9.8912    3.4301 H   0  0  0  0  0  0  0  0  0  0  0  0
   -0.7143   -8.1829    3.5558 H   0  0  0  0  0  0  0  0  0  0  0  0
  1  2  1  0
  1 48  1  0
  1 49  1  0
  1 50  1  0
  3  2  1  1
 42  3  1  1
  3 44  1  0
  3  4  1  0
  4  5  1  0
  4 51  1  0
  4 52  1  0
  5 13  1  0
  5  6  1  1
  5 10  1  0
  6  7  1  0
  7  8  1  0
  7  9  2  0
  8 53  1  0
  8 54  1  0
  8 55  1  0
 10 11  1  0
 10 12  1  0
 10 56  1  1
 11 57  1  0
 12 13  1  0
 12 58  1  0
 12 59  1  0
 13 14  1  0
 13 60  1  1
 14 16  1  0
 14 15  1  0
 14 61  1  1
 15 16  1  0
 16 17  1  0
 16 62  1  1
 17 45  1  0
 17 18  1  1
 17 19  1  0
 18 63  1  0
 19 20  1  0
 19 64  1  0
 19 65  1  0
 20 21  1  0
 20 66  1  6
 20 27  1  0
 21 22  1  0
 22 23  2  0
 22 24  1  0
 24 26  1  0
 24 25  1  0
 24 67  1  0
 25 26  1  0
 25 68  1  0
 25 69  1  0
 26 70  1  0
 26 71  1  0
 27 37  2  0
 27 28  1  0
 28 34  1  0
 28 29  1  0
 28 75  1  6
 29 33  1  0
 29 30  2  0
 30 31  1  0
 30 72  1  0
 31 32  2  0
 31 73  1  0
 32 33  1  0
 32 74  1  0
 34 35  1  0
 35 37  1  0
 35 36  2  0
 37 38  1  0
 38 39  1  6
 38 40  1  0
 38 44  1  0
 39 76  1  0
 40 41  1  0
 40 42  1  0
 40 77  1  6
 41 78  1  0
 42 43  2  0
 44 45  1  0
 44 79  1  6
 45 47  1  6
 45 46  1  0
 46 47  1  0
 46 80  1  0
 46 81  1  0
M  END
>  <i_m_ct_stereo_status>  (171) 
1

>  <s_m_source_file>  (171) 
/var/tmp/pbs.5075288.sched01/tmp4tfr24xl/130i3iej58d.sdf

>  <i_m_source_file_index>  (171) 
63

>  <i_lp_mmshare_version>  (171) 
48012

>  <i_f3d_flags>  (171) 
0

>  <s_epik_input>  (171) 
TzFbQ0gyXUMxMltDQF0zKFtPSF0pW0NAQEhdNFtDQEBIXShPNClbQ0BASF01W0NAXShbQ0BASF0oW09IXSlbQ0gyXTUpKE9DKD1PKVtDSDNdKVtDSDJdW0NAXTYoT1tDSDNdKVtDQEBIXTJbQ0BdKFtPSF0pKFtDQEBIXShbT0hdKVtTK102W08tXSljN2MoYyhvYzdbT0hdKS1jOFtjSF1bY0hdW2NIXXM4KVtDQEBIXShbQ0gyXTMpT0MoPU8pW0NIXTlbQ0gyXVtDSDJdOQ==

>  <s_epik_cmdline>  (171) 
J2VwaWtfcHl0aG9uJywgJy1waHQnLCAnMi4wJywgJy1waCcsICc3LjAnLCAnLXRuJywgJzgnLCAnLW1hJywgJzIwMCcsICctaW1hZScsICc8aW5maWxlLm1hZT4nLCAnLW9tYWUnLCAnPG91dGZpbGUubWFlPic=

>  <r_lp_tautomer_probability>  (171) 
0.999841

>  <r_epik_Ionization_Penalty>  (171) 
1.81277

>  <r_epik_Ionization_Penalty_Charging>  (171) 
0

>  <r_epik_Ionization_Penalty_Neutral>  (171) 
1.81277

>  <r_epik_State_Penalty>  (171) 
1.53677

>  <r_epik_Charging_Adjusted_Penalty>  (171) 
1.53677

>  <i_epik_Tot_Q>  (171) 
0

>  <i_epik_Tot_abs_Q>  (171) 
0

>  <s_epik_Chemistry_Notes>  (171) 
This compound has an ester and may undergo hydrolysis at high or low pH. This compound contains an acetal/aminal-like group ( X-CH(R)-Y where X, Y are N, S, or O) that may be acid/base labile, releasing an aldehyde.

>  <s_lp_Force_Field>  (171) 
OPLS3e

>  <r_lp_Energy>  (171) 
101.505

>  <b_lp_Chiralities_Consistent>  (171) 
1

>  <s_lp_Variant>  (171) 
75:0-6

>  <s_i_glide_gridfile>  (171) 
pfpi4k_grid

>  <i_i_glide_lignum>  (171) 
63

>  <i_i_glide_rotatable_bonds>  (171) 
11

>  <r_i_docking_score>  (171) 
-2.89515

>  <r_i_glide_ligand_efficiency>  (171) 
-0.0615988

>  <r_i_glide_ligand_efficiency_sa>  (171) 
-0.2223

>  <r_i_glide_ligand_efficiency_ln>  (171) 
-0.596919

>  <r_i_glide_gscore>  (171) 
-2.89515

>  <r_i_glide_lipo>  (171) 
-0.122809

>  <r_i_glide_hbond>  (171) 
-0.112349

>  <r_i_glide_metal>  (171) 
-0

>  <r_i_glide_rewards>  (171) 
-0.0161784

>  <r_i_glide_evdw>  (171) 
-24.0994

>  <r_i_glide_ecoul>  (171) 
-9.43266

>  <r_i_glide_erotb>  (171) 
0.0490561

>  <r_i_glide_esite>  (171) 
-0.0729958

>  <r_i_glide_emodel>  (171) 
-37.6772

>  <r_i_glide_energy>  (171) 
-33.5321

>  <r_i_glide_einternal>  (171) 
2.30872

>  <r_i_glide_intrahb_reward>  (171) 
-0

>  <i_i_glide_confnum>  (171) 
2

>  <i_i_glide_posenum>  (171) 
1

>  <r_i_glide_eff_state_penalty>  (171) 
0

>  <ligand_id>  (171) 
75

>  <original_smiles>  (171) 
COC12CC3(OC(C)=O)C(O)CC3C3OC3C3(O)CC(OC(=O)C4CC4)c4c(-c5cccs5)oc(O)c4C(O)(C(O)[S+]1[O-])C2C31CO1

>  <smiles>  (171) 
[H]OC1([H])S(=O)C2(OC([H])([H])[H])C([H])([H])C3(OC(=O)C([H])([H])[H])C([H])(O[H])C([H])([H])C3([H])C3([H])OC3([H])C3(O[H])C([H])([H])C([H])(OC(=O)C4([H])C([H])([H])C4([H])[H])C4=C(C(=O)OC4([H])c4sc([H])c([H])c4[H])C1(O[H])C2([H])C31OC1([H])[H]

$$$$
75:5:1
     RDKit          3D

 81 89  0  0  1  0  0  0  0  0999 V2000
    1.2608   -0.7372    8.1574 C   0  0  0  0  0  0  0  0  0  0  0  0
    1.3770   -0.3804    6.7895 O   0  0  0  0  0  0  0  0  0  0  0  0
    0.2482   -0.5676    5.9377 C   0  0  2  0  0  0  0  0  0  0  0  0
   -0.8147    0.5932    6.1113 C   0  0  0  0  0  0  0  0  0  0  0  0
   -0.5019    2.0840    6.5800 C   0  0  2  0  0  0  0  0  0  0  0  0
    0.4049    2.1920    7.7061 O   0  0  0  0  0  0  0  0  0  0  0  0
    0.0720    1.7921    8.9771 C   0  0  0  0  0  0  0  0  0  0  0  0
    1.2684    1.9689    9.9375 C   0  0  0  0  0  0  0  0  0  0  0  0
   -0.9496    1.2654    9.3237 O   0  0  0  0  0  0  0  0  0  0  0  0
   -1.8636    2.8438    6.7808 C   0  0  1  0  0  0  0  0  0  0  0  0
   -2.0587    3.7194    7.8807 O   0  0  0  0  0  0  0  0  0  0  0  0
   -1.6469    3.5228    5.4349 C   0  0  0  0  0  0  0  0  0  0  0  0
   -0.1585    3.3467    5.6852 C   0  0  2  0  0  0  0  0  0  0  0  0
    0.8049    3.6589    4.5237 C   0  0  2  0  0  0  0  0  0  0  0  0
    0.2925    3.1188    3.3288 O   0  0  0  0  0  0  0  0  0  0  0  0
    1.6515    2.7952    3.5616 C   0  0  2  0  0  0  0  0  0  0  0  0
    2.0459    1.3344    3.8174 C   0  0  2  0  0  0  0  0  0  0  0  0
    2.3688    1.3867    5.1669 O   0  0  0  0  0  0  0  0  0  0  0  0
    3.4002    1.0286    3.1284 C   0  0  0  0  0  0  0  0  0  0  0  0
    3.8631   -0.4493    3.0604 C   0  0  1  0  0  0  0  0  0  0  0  0
    5.1326   -0.5108    2.3927 O   0  0  0  0  0  0  0  0  0  0  0  0
    5.2689   -0.8593    1.0781 C   0  0  0  0  0  0  0  0  0  0  0  0
    6.3615   -0.9654    0.5103 O   0  0  0  0  0  0  0  0  0  0  0  0
    3.9629   -1.1496    0.3577 C   0  0  0  0  0  0  0  0  0  0  0  0
    3.8529   -2.4823   -0.3650 C   0  0  0  0  0  0  0  0  0  0  0  0
    3.9438   -1.1985   -1.1534 C   0  0  0  0  0  0  0  0  0  0  0  0
    3.9006   -1.1977    4.3775 C   0  0  0  0  0  0  0  0  0  0  0  0
    5.1605   -1.2995    5.1785 C   0  0  1  0  0  0  0  0  0  0  0  0
    5.6692   -0.0076    5.7716 C   0  0  0  0  0  0  0  0  0  0  0  0
    6.9095    0.5852    5.6230 C   0  0  0  0  0  0  0  0  0  0  0  0
    7.0350    1.8210    6.3104 C   0  0  0  0  0  0  0  0  0  0  0  0
    5.8844    2.1842    6.9557 C   0  0  0  0  0  0  0  0  0  0  0  0
    4.6769    0.9481    6.8394 S   0  0  0  0  0  0  0  0  0  0  0  0
    4.8040   -2.1591    6.2363 O   0  0  0  0  0  0  0  0  0  0  0  0
    3.5250   -2.5505    6.1391 C   0  0  0  0  0  0  0  0  0  0  0  0
    2.9873   -3.2726    6.9815 O   0  0  0  0  0  0  0  0  0  0  0  0
    2.9220   -1.9598    4.9268 C   0  0  0  0  0  0  0  0  0  0  0  0
    1.4656   -2.1847    4.4133 C   0  0  1  0  0  0  0  0  0  0  0  0
    1.4942   -2.6899    3.0931 O   0  0  0  0  0  0  0  0  0  0  0  0
    0.4871   -3.1843    5.1318 C   0  0  1  0  0  0  0  0  0  0  0  0
    0.9878   -4.4300    5.5703 O   0  0  0  0  0  0  0  0  0  0  0  0
   -0.5419   -2.2117    6.3430 S   0  0  0  0  0  0  0  0  0  0  0  0
   -1.9926   -2.2132    5.8699 O   0  0  0  0  0  0  0  0  0  0  0  0
    0.6333   -0.8562    4.4401 C   0  0  2  0  0  0  0  0  0  0  0  0
    0.9443    0.2912    3.4572 C   0  0  1  0  0  0  0  0  0  0  0  0
   -0.1086    0.6302    2.3899 C   0  0  0  0  0  0  0  0  0  0  0  0
    1.0187   -0.1601    2.0921 O   0  0  0  0  0  0  0  0  0  0  0  0
    2.0139   -0.1850    8.6970 H   0  0  0  0  0  0  0  0  0  0  0  0
    1.3954   -1.7800    8.3918 H   0  0  0  0  0  0  0  0  0  0  0  0
    0.2778   -0.4939    8.5028 H   0  0  0  0  0  0  0  0  0  0  0  0
   -1.4157    0.6398    5.1978 H   0  0  0  0  0  0  0  0  0  0  0  0
   -1.5286    0.2203    6.8438 H   0  0  0  0  0  0  0  0  0  0  0  0
    2.2139    1.8739    9.4182 H   0  0  0  0  0  0  0  0  0  0  0  0
    1.2464    1.2041   10.7138 H   0  0  0  0  0  0  0  0  0  0  0  0
    1.2258    2.9482   10.4103 H   0  0  0  0  0  0  0  0  0  0  0  0
   -2.7260    2.1768    6.7438 H   0  0  0  0  0  0  0  0  0  0  0  0
   -1.2662    4.2327    7.9886 H   0  0  0  0  0  0  0  0  0  0  0  0
   -2.0298    2.9532    4.5846 H   0  0  0  0  0  0  0  0  0  0  0  0
   -1.9658    4.5545    5.3722 H   0  0  0  0  0  0  0  0  0  0  0  0
    0.1431    4.1064    6.4124 H   0  0  0  0  0  0  0  0  0  0  0  0
    0.9976    4.7344    4.4526 H   0  0  0  0  0  0  0  0  0  0  0  0
    2.3532    3.3586    2.9414 H   0  0  0  0  0  0  0  0  0  0  0  0
    1.5903    1.6083    5.6625 H   0  0  0  0  0  0  0  0  0  0  0  0
    3.3398    1.3762    2.0907 H   0  0  0  0  0  0  0  0  0  0  0  0
    4.1862    1.6338    3.5847 H   0  0  0  0  0  0  0  0  0  0  0  0
    3.1446   -1.0215    2.5104 H   0  0  0  0  0  0  0  0  0  0  0  0
    3.0587   -0.7310    0.7861 H   0  0  0  0  0  0  0  0  0  0  0  0
    4.7134   -3.1451   -0.3867 H   0  0  0  0  0  0  0  0  0  0  0  0
    2.8815   -2.9749   -0.3193 H   0  0  0  0  0  0  0  0  0  0  0  0
    3.0274   -0.8159   -1.5998 H   0  0  0  0  0  0  0  0  0  0  0  0
    4.8658   -0.9583   -1.6777 H   0  0  0  0  0  0  0  0  0  0  0  0
    7.7346    0.2041    5.0485 H   0  0  0  0  0  0  0  0  0  0  0  0
    7.9533    2.3916    6.2961 H   0  0  0  0  0  0  0  0  0  0  0  0
    5.6917    3.0789    7.5232 H   0  0  0  0  0  0  0  0  0  0  0  0
    5.9258   -1.7863    4.5728 H   0  0  0  0  0  0  0  0  0  0  0  0
    2.0045   -3.4899    3.0758 H   0  0  0  0  0  0  0  0  0  0  0  0
   -0.2919   -3.4806    4.4287 H   0  0  0  0  0  0  0  0  0  0  0  0
    1.0721   -5.0129    4.8248 H   0  0  0  0  0  0  0  0  0  0  0  0
   -0.3339   -1.1821    4.0267 H   0  0  0  0  0  0  0  0  0  0  0  0
   -1.0524    0.0941    2.4242 H   0  0  0  0  0  0  0  0  0  0  0  0
   -0.0824    1.5895    1.8454 H   0  0  0  0  0  0  0  0  0  0  0  0
  1  2  1  0
  1 48  1  0
  1 49  1  0
  1 50  1  0
  3  2  1  1
 42  3  1  6
  3 44  1  0
  3  4  1  0
  4  5  1  0
  4 51  1  0
  4 52  1  0
  5 13  1  0
  5  6  1  1
  5 10  1  0
  6  7  1  0
  7  8  1  0
  7  9  2  0
  8 53  1  0
  8 54  1  0
  8 55  1  0
 10 11  1  0
 10 12  1  0
 10 56  1  6
 11 57  1  0
 12 13  1  0
 12 58  1  0
 12 59  1  0
 13 14  1  0
 13 60  1  1
 14 16  1  0
 14 15  1  0
 14 61  1  6
 15 16  1  0
 16 17  1  0
 16 62  1  6
 17 45  1  0
 17 18  1  1
 17 19  1  0
 18 63  1  0
 19 20  1  0
 19 64  1  0
 19 65  1  0
 20 21  1  0
 20 66  1  6
 20 27  1  0
 21 22  1  0
 22 23  2  0
 22 24  1  0
 24 26  1  0
 24 25  1  0
 24 67  1  0
 25 26  1  0
 25 68  1  0
 25 69  1  0
 26 70  1  0
 26 71  1  0
 27 37  2  0
 27 28  1  0
 28 34  1  0
 28 29  1  0
 28 75  1  6
 29 33  1  0
 29 30  2  0
 30 31  1  0
 30 72  1  0
 31 32  2  0
 31 73  1  0
 32 33  1  0
 32 74  1  0
 34 35  1  0
 35 37  1  0
 35 36  2  0
 37 38  1  0
 38 39  1  6
 38 40  1  0
 38 44  1  0
 39 76  1  0
 40 41  1  0
 40 42  1  0
 40 77  1  6
 41 78  1  0
 42 43  2  0
 44 45  1  0
 44 79  1  6
 45 47  1  6
 45 46  1  0
 46 47  1  0
 46 80  1  0
 46 81  1  0
M  END
>  <i_m_ct_stereo_status>  (172) 
1

>  <s_m_source_file>  (172) 
/var/tmp/pbs.5075288.sched01/tmp4tfr24xl/130i3iej58d.sdf

>  <i_m_source_file_index>  (172) 
63

>  <i_lp_mmshare_version>  (172) 
48012

>  <i_f3d_flags>  (172) 
0

>  <s_epik_input>  (172) 
TzFbQ0gyXUMxMltDQF0zKFtPSF0pW0NAQEhdNFtDQEBIXShPNClbQ0BASF01W0NAXShbQ0BASF0oW09IXSlbQ0gyXTUpKE9DKD1PKVtDSDNdKVtDSDJdW0NAXTYoT1tDSDNdKVtDQEBIXTJbQ0BdKFtPSF0pKFtDQEBIXShbT0hdKVtTK102W08tXSljN2MoYyhvYzdbT0hdKS1jOFtjSF1bY0hdW2NIXXM4KVtDQEBIXShbQ0gyXTMpT0MoPU8pW0NIXTlbQ0gyXVtDSDJdOQ==

>  <s_epik_cmdline>  (172) 
J2VwaWtfcHl0aG9uJywgJy1waHQnLCAnMi4wJywgJy1waCcsICc3LjAnLCAnLXRuJywgJzgnLCAnLW1hJywgJzIwMCcsICctaW1hZScsICc8aW5maWxlLm1hZT4nLCAnLW9tYWUnLCAnPG91dGZpbGUubWFlPic=

>  <r_lp_tautomer_probability>  (172) 
0.999841

>  <r_epik_Ionization_Penalty>  (172) 
1.81277

>  <r_epik_Ionization_Penalty_Charging>  (172) 
0

>  <r_epik_Ionization_Penalty_Neutral>  (172) 
1.81277

>  <r_epik_State_Penalty>  (172) 
1.53677

>  <r_epik_Charging_Adjusted_Penalty>  (172) 
1.53677

>  <i_epik_Tot_Q>  (172) 
0

>  <i_epik_Tot_abs_Q>  (172) 
0

>  <s_epik_Chemistry_Notes>  (172) 
This compound has an ester and may undergo hydrolysis at high or low pH. This compound contains an acetal/aminal-like group ( X-CH(R)-Y where X, Y are N, S, or O) that may be acid/base labile, releasing an aldehyde.

>  <s_lp_Force_Field>  (172) 
OPLS3e

>  <r_lp_Energy>  (172) 
101.505

>  <b_lp_Chiralities_Consistent>  (172) 
1

>  <s_lp_Variant>  (172) 
75:0-6

>  <s_i_glide_gridfile>  (172) 
pfpi4k_grid

>  <i_i_glide_lignum>  (172) 
63

>  <i_i_glide_rotatable_bonds>  (172) 
11

>  <r_i_docking_score>  (172) 
-2.46895

>  <r_i_glide_ligand_efficiency>  (172) 
-0.0525309

>  <r_i_glide_ligand_efficiency_sa>  (172) 
-0.189575

>  <r_i_glide_ligand_efficiency_ln>  (172) 
-0.509046

>  <r_i_glide_gscore>  (172) 
-2.46895

>  <r_i_glide_lipo>  (172) 
-0.50727

>  <r_i_glide_hbond>  (172) 
0

>  <r_i_glide_metal>  (172) 
-0

>  <r_i_glide_rewards>  (172) 
-0.175398

>  <r_i_glide_evdw>  (172) 
-31.4224

>  <r_i_glide_ecoul>  (172) 
-1.42653

>  <r_i_glide_erotb>  (172) 
0.0490561

>  <r_i_glide_esite>  (172) 
-0.0502399

>  <r_i_glide_emodel>  (172) 
-32.6631

>  <r_i_glide_energy>  (172) 
-32.8489

>  <r_i_glide_einternal>  (172) 
5.97762

>  <r_i_glide_intrahb_reward>  (172) 
-0

>  <i_i_glide_confnum>  (172) 
5

>  <i_i_glide_posenum>  (172) 
4

>  <r_i_glide_eff_state_penalty>  (172) 
0

>  <ligand_id>  (172) 
75

>  <original_smiles>  (172) 
COC12CC3(OC(C)=O)C(O)CC3C3OC3C3(O)CC(OC(=O)C4CC4)c4c(-c5cccs5)oc(O)c4C(O)(C(O)[S+]1[O-])C2C31CO1

>  <smiles>  (172) 
[H]OC1([H])S(=O)C2(OC([H])([H])[H])C([H])([H])C3(OC(=O)C([H])([H])[H])C([H])(O[H])C([H])([H])C3([H])C3([H])OC3([H])C3(O[H])C([H])([H])C([H])(OC(=O)C4([H])C([H])([H])C4([H])[H])C4=C(C(=O)OC4([H])c4sc([H])c([H])c4[H])C1(O[H])C2([H])C31OC1([H])[H]

$$$$
75:5:2
     RDKit          3D

 81 89  0  0  1  0  0  0  0  0999 V2000
    5.4651   -9.1102    5.1445 C   0  0  0  0  0  0  0  0  0  0  0  0
    4.6477   -8.1024    4.5555 O   0  0  0  0  0  0  0  0  0  0  0  0
    4.3318   -8.2155    3.1711 C   0  0  2  0  0  0  0  0  0  0  0  0
    3.1297   -9.2167    2.9223 C   0  0  0  0  0  0  0  0  0  0  0  0
    1.9685   -9.5424    3.9517 C   0  0  2  0  0  0  0  0  0  0  0  0
    2.4174   -9.7613    5.3117 O   0  0  0  0  0  0  0  0  0  0  0  0
    3.1702  -10.8371    5.6994 C   0  0  0  0  0  0  0  0  0  0  0  0
    3.6686  -10.6651    7.1551 C   0  0  0  0  0  0  0  0  0  0  0  0
    3.5284  -11.7628    5.0170 O   0  0  0  0  0  0  0  0  0  0  0  0
    1.0901  -10.7156    3.3793 C   0  0  1  0  0  0  0  0  0  0  0  0
    0.6804  -11.7590    4.2072 O   0  0  0  0  0  0  0  0  0  0  0  0
    0.0318   -9.6921    2.9650 C   0  0  0  0  0  0  0  0  0  0  0  0
    0.5471   -8.8359    4.1135 C   0  0  2  0  0  0  0  0  0  0  0  0
    0.0393   -7.3996    4.2253 C   0  0  2  0  0  0  0  0  0  0  0  0
    0.0367   -6.7590    2.9493 O   0  0  0  0  0  0  0  0  0  0  0  0
    0.6701   -5.9970    3.9797 C   0  0  2  0  0  0  0  0  0  0  0  0
    2.1769   -5.7303    3.8900 C   0  0  2  0  0  0  0  0  0  0  0  0
    2.6431   -6.4891    4.9671 O   0  0  0  0  0  0  0  0  0  0  0  0
    2.4537   -4.2672    4.3590 C   0  0  0  0  0  0  0  0  0  0  0  0
    3.8826   -3.7207    4.1260 C   0  0  1  0  0  0  0  0  0  0  0  0
    3.9462   -2.3724    4.5988 O   0  0  0  0  0  0  0  0  0  0  0  0
    4.0873   -1.2835    3.7924 C   0  0  0  0  0  0  0  0  0  0  0  0
    4.1992   -0.1336    4.2377 O   0  0  0  0  0  0  0  0  0  0  0  0
    4.1270   -1.5631    2.3015 C   0  0  0  0  0  0  0  0  0  0  0  0
    5.1745   -0.8617    1.4709 C   0  0  0  0  0  0  0  0  0  0  0  0
    3.7251   -0.4917    1.3278 C   0  0  0  0  0  0  0  0  0  0  0  0
    5.0356   -4.5422    4.6599 C   0  0  0  0  0  0  0  0  0  0  0  0
    5.6258   -4.2436    6.0157 C   0  0  1  0  0  0  0  0  0  0  0  0
    4.7065   -4.5257    7.1781 C   0  0  0  0  0  0  0  0  0  0  0  0
    4.1514   -3.6174    8.0414 C   0  0  0  0  0  0  0  0  0  0  0  0
    3.3099   -4.2273    9.0326 C   0  0  0  0  0  0  0  0  0  0  0  0
    3.2268   -5.5816    8.8884 C   0  0  0  0  0  0  0  0  0  0  0  0
    4.2100   -6.1529    7.5771 S   0  0  0  0  0  0  0  0  0  0  0  0
    6.7175   -5.1442    6.0776 O   0  0  0  0  0  0  0  0  0  0  0  0
    6.8200   -5.8873    4.9639 C   0  0  0  0  0  0  0  0  0  0  0  0
    7.6692   -6.7592    4.8156 O   0  0  0  0  0  0  0  0  0  0  0  0
    5.7483   -5.4884    4.0202 C   0  0  0  0  0  0  0  0  0  0  0  0
    5.5269   -6.0627    2.5833 C   0  0  1  0  0  0  0  0  0  0  0  0
    5.5693   -5.0022    1.6412 O   0  0  0  0  0  0  0  0  0  0  0  0
    6.5244   -7.1100    1.9516 C   0  0  1  0  0  0  0  0  0  0  0  0
    7.9147   -6.9000    2.1055 O   0  0  0  0  0  0  0  0  0  0  0  0
    5.8571   -8.8197    2.2634 S   0  0  0  0  0  0  0  0  0  0  0  0
    5.4508   -9.4066    0.9113 O   0  0  0  0  0  0  0  0  0  0  0  0
    4.1746   -6.8257    2.4610 C   0  0  2  0  0  0  0  0  0  0  0  0
    2.8216   -6.0545    2.5226 C   0  0  1  0  0  0  0  0  0  0  0  0
    1.9755   -6.0400    1.2361 C   0  0  0  0  0  0  0  0  0  0  0  0
    2.7875   -4.9446    1.5949 O   0  0  0  0  0  0  0  0  0  0  0  0
    5.3005   -9.0485    6.2189 H   0  0  0  0  0  0  0  0  0  0  0  0
    6.5324   -9.0199    4.9769 H   0  0  0  0  0  0  0  0  0  0  0  0
    5.1720  -10.0822    4.7532 H   0  0  0  0  0  0  0  0  0  0  0  0
    2.6796   -8.9606    1.9620 H   0  0  0  0  0  0  0  0  0  0  0  0
    3.6010  -10.1783    2.7132 H   0  0  0  0  0  0  0  0  0  0  0  0
    3.7811   -9.6168    7.4031 H   0  0  0  0  0  0  0  0  0  0  0  0
    4.6421  -11.1394    7.2701 H   0  0  0  0  0  0  0  0  0  0  0  0
    3.0076  -11.0904    7.8986 H   0  0  0  0  0  0  0  0  0  0  0  0
    1.5510  -11.1669    2.4917 H   0  0  0  0  0  0  0  0  0  0  0  0
    0.0089  -11.4007    4.8149 H   0  0  0  0  0  0  0  0  0  0  0  0
    0.2107   -9.2454    1.9888 H   0  0  0  0  0  0  0  0  0  0  0  0
   -1.0070  -10.0144    3.0763 H   0  0  0  0  0  0  0  0  0  0  0  0
    0.1529   -9.2798    5.0335 H   0  0  0  0  0  0  0  0  0  0  0  0
   -0.9380   -7.3630    4.7179 H   0  0  0  0  0  0  0  0  0  0  0  0
    0.0738   -5.1584    4.3108 H   0  0  0  0  0  0  0  0  0  0  0  0
    2.5735   -7.4036    4.7543 H   0  0  0  0  0  0  0  0  0  0  0  0
    1.7862   -3.6086    3.8001 H   0  0  0  0  0  0  0  0  0  0  0  0
    2.1640   -4.1375    5.4040 H   0  0  0  0  0  0  0  0  0  0  0  0
    4.0726   -3.7750    3.0828 H   0  0  0  0  0  0  0  0  0  0  0  0
    3.8241   -2.5535    1.9609 H   0  0  0  0  0  0  0  0  0  0  0  0
    5.8417   -0.1489    1.9606 H   0  0  0  0  0  0  0  0  0  0  0  0
    5.6346   -1.4629    0.6855 H   0  0  0  0  0  0  0  0  0  0  0  0
    3.1780   -0.8662    0.4614 H   0  0  0  0  0  0  0  0  0  0  0  0
    3.3668    0.4577    1.7316 H   0  0  0  0  0  0  0  0  0  0  0  0
    4.3251   -2.5547    8.0125 H   0  0  0  0  0  0  0  0  0  0  0  0
    2.8208   -3.6495    9.7948 H   0  0  0  0  0  0  0  0  0  0  0  0
    2.6647   -6.2848    9.4878 H   0  0  0  0  0  0  0  0  0  0  0  0
    5.9962   -3.2204    6.0582 H   0  0  0  0  0  0  0  0  0  0  0  0
    6.4600   -4.7265    1.5269 H   0  0  0  0  0  0  0  0  0  0  0  0
    6.4225   -7.0712    0.8683 H   0  0  0  0  0  0  0  0  0  0  0  0
    8.3940   -7.6652    1.8209 H   0  0  0  0  0  0  0  0  0  0  0  0
    4.1615   -7.1243    1.4089 H   0  0  0  0  0  0  0  0  0  0  0  0
    2.3233   -6.6086    0.3800 H   0  0  0  0  0  0  0  0  0  0  0  0
    0.9184   -5.7712    1.2495 H   0  0  0  0  0  0  0  0  0  0  0  0
  1  2  1  0
  1 48  1  0
  1 49  1  0
  1 50  1  0
  3  2  1  1
 42  3  1  1
  3 44  1  0
  3  4  1  0
  4  5  1  0
  4 51  1  0
  4 52  1  0
  5 13  1  0
  5  6  1  1
  5 10  1  0
  6  7  1  0
  7  8  1  0
  7  9  2  0
  8 53  1  0
  8 54  1  0
  8 55  1  0
 10 11  1  0
 10 12  1  0
 10 56  1  6
 11 57  1  0
 12 13  1  0
 12 58  1  0
 12 59  1  0
 13 14  1  0
 13 60  1  1
 14 16  1  0
 14 15  1  0
 14 61  1  1
 15 16  1  0
 16 17  1  0
 16 62  1  1
 17 45  1  0
 17 18  1  1
 17 19  1  0
 18 63  1  0
 19 20  1  0
 19 64  1  0
 19 65  1  0
 20 21  1  0
 20 66  1  6
 20 27  1  0
 21 22  1  0
 22 23  2  0
 22 24  1  0
 24 26  1  0
 24 25  1  0
 24 67  1  0
 25 26  1  0
 25 68  1  0
 25 69  1  0
 26 70  1  0
 26 71  1  0
 27 37  2  0
 27 28  1  0
 28 34  1  0
 28 29  1  0
 28 75  1  6
 29 33  1  0
 29 30  2  0
 30 31  1  0
 30 72  1  0
 31 32  2  0
 31 73  1  0
 32 33  1  0
 32 74  1  0
 34 35  1  0
 35 37  1  0
 35 36  2  0
 37 38  1  0
 38 39  1  6
 38 40  1  0
 38 44  1  0
 39 76  1  0
 40 41  1  0
 40 42  1  0
 40 77  1  6
 41 78  1  0
 42 43  2  0
 44 45  1  0
 44 79  1  6
 45 47  1  6
 45 46  1  0
 46 47  1  0
 46 80  1  0
 46 81  1  0
M  END
>  <i_m_ct_stereo_status>  (173) 
1

>  <s_m_source_file>  (173) 
/var/tmp/pbs.5075288.sched01/tmp4tfr24xl/130i3iej58d.sdf

>  <i_m_source_file_index>  (173) 
63

>  <i_lp_mmshare_version>  (173) 
48012

>  <i_f3d_flags>  (173) 
0

>  <s_epik_input>  (173) 
TzFbQ0gyXUMxMltDQF0zKFtPSF0pW0NAQEhdNFtDQEBIXShPNClbQ0BASF01W0NAXShbQ0BASF0oW09IXSlbQ0gyXTUpKE9DKD1PKVtDSDNdKVtDSDJdW0NAXTYoT1tDSDNdKVtDQEBIXTJbQ0BdKFtPSF0pKFtDQEBIXShbT0hdKVtTK102W08tXSljN2MoYyhvYzdbT0hdKS1jOFtjSF1bY0hdW2NIXXM4KVtDQEBIXShbQ0gyXTMpT0MoPU8pW0NIXTlbQ0gyXVtDSDJdOQ==

>  <s_epik_cmdline>  (173) 
J2VwaWtfcHl0aG9uJywgJy1waHQnLCAnMi4wJywgJy1waCcsICc3LjAnLCAnLXRuJywgJzgnLCAnLW1hJywgJzIwMCcsICctaW1hZScsICc8aW5maWxlLm1hZT4nLCAnLW9tYWUnLCAnPG91dGZpbGUubWFlPic=

>  <r_lp_tautomer_probability>  (173) 
0.999841

>  <r_epik_Ionization_Penalty>  (173) 
1.81277

>  <r_epik_Ionization_Penalty_Charging>  (173) 
0

>  <r_epik_Ionization_Penalty_Neutral>  (173) 
1.81277

>  <r_epik_State_Penalty>  (173) 
1.53677

>  <r_epik_Charging_Adjusted_Penalty>  (173) 
1.53677

>  <i_epik_Tot_Q>  (173) 
0

>  <i_epik_Tot_abs_Q>  (173) 
0

>  <s_epik_Chemistry_Notes>  (173) 
This compound has an ester and may undergo hydrolysis at high or low pH. This compound contains an acetal/aminal-like group ( X-CH(R)-Y where X, Y are N, S, or O) that may be acid/base labile, releasing an aldehyde.

>  <s_lp_Force_Field>  (173) 
OPLS3e

>  <r_lp_Energy>  (173) 
101.505

>  <b_lp_Chiralities_Consistent>  (173) 
1

>  <s_lp_Variant>  (173) 
75:0-6

>  <s_i_glide_gridfile>  (173) 
pfpi4k_grid

>  <i_i_glide_lignum>  (173) 
63

>  <i_i_glide_rotatable_bonds>  (173) 
11

>  <r_i_docking_score>  (173) 
-2.31019

>  <r_i_glide_ligand_efficiency>  (173) 
-0.0491529

>  <r_i_glide_ligand_efficiency_sa>  (173) 
-0.177384

>  <r_i_glide_ligand_efficiency_ln>  (173) 
-0.476313

>  <r_i_glide_gscore>  (173) 
-2.31019

>  <r_i_glide_lipo>  (173) 
-0.391448

>  <r_i_glide_hbond>  (173) 
-0.0767168

>  <r_i_glide_metal>  (173) 
-0

>  <r_i_glide_rewards>  (173) 
-0.0159108

>  <r_i_glide_evdw>  (173) 
-30.8119

>  <r_i_glide_ecoul>  (173) 
-1.77131

>  <r_i_glide_erotb>  (173) 
0.0490561

>  <r_i_glide_esite>  (173) 
-0.0688776

>  <r_i_glide_emodel>  (173) 
-31.8781

>  <r_i_glide_energy>  (173) 
-32.5832

>  <r_i_glide_einternal>  (173) 
6.95199

>  <r_i_glide_intrahb_reward>  (173) 
-0

>  <i_i_glide_confnum>  (173) 
2

>  <i_i_glide_posenum>  (173) 
17

>  <r_i_glide_eff_state_penalty>  (173) 
0

>  <ligand_id>  (173) 
75

>  <original_smiles>  (173) 
COC12CC3(OC(C)=O)C(O)CC3C3OC3C3(O)CC(OC(=O)C4CC4)c4c(-c5cccs5)oc(O)c4C(O)(C(O)[S+]1[O-])C2C31CO1

>  <smiles>  (173) 
[H]OC1([H])S(=O)C2(OC([H])([H])[H])C([H])([H])C3(OC(=O)C([H])([H])[H])C([H])(O[H])C([H])([H])C3([H])C3([H])OC3([H])C3(O[H])C([H])([H])C([H])(OC(=O)C4([H])C([H])([H])C4([H])[H])C4=C(C(=O)OC4([H])c4sc([H])c([H])c4[H])C1(O[H])C2([H])C31OC1([H])[H]

$$$$
75:6:0
     RDKit          3D

 81 89  0  0  1  0  0  0  0  0999 V2000
    2.9764   -0.2642    7.9226 C   0  0  0  0  0  0  0  0  0  0  0  0
    2.4975    0.8111    7.1377 O   0  0  0  0  0  0  0  0  0  0  0  0
    1.3549    0.6438    6.2934 C   0  0  2  0  0  0  0  0  0  0  0  0
    1.0273    2.0921    5.7751 C   0  0  0  0  0  0  0  0  0  0  0  0
    2.1147    2.9703    5.0350 C   0  0  2  0  0  0  0  0  0  0  0  0
    3.3643    3.0405    5.7665 O   0  0  0  0  0  0  0  0  0  0  0  0
    3.4921    3.5701    7.0158 C   0  0  0  0  0  0  0  0  0  0  0  0
    4.9082    3.4479    7.5656 C   0  0  0  0  0  0  0  0  0  0  0  0
    2.5984    4.0807    7.6817 O   0  0  0  0  0  0  0  0  0  0  0  0
    1.6596    4.3594    4.5204 C   0  0  1  0  0  0  0  0  0  0  0  0
    1.6754    5.4952    5.3569 O   0  0  0  0  0  0  0  0  0  0  0  0
    2.6947    4.2698    3.4162 C   0  0  0  0  0  0  0  0  0  0  0  0
    2.5532    2.7412    3.5413 C   0  0  2  0  0  0  0  0  0  0  0  0
    1.6731    2.1187    2.4505 C   0  0  2  0  0  0  0  0  0  0  0  0
    0.5734    1.3039    2.8541 O   0  0  0  0  0  0  0  0  0  0  0  0
    1.5888    0.6521    2.0954 C   0  0  2  0  0  0  0  0  0  0  0  0
    2.3074   -0.5527    2.7254 C   0  0  2  0  0  0  0  0  0  0  0  0
    3.5055   -0.5635    1.9824 O   0  0  0  0  0  0  0  0  0  0  0  0
    1.4912   -1.8389    2.3792 C   0  0  0  0  0  0  0  0  0  0  0  0
    1.9876   -3.2638    2.7641 C   0  0  1  0  0  0  0  0  0  0  0  0
    3.1617   -3.5081    1.9901 O   0  0  0  0  0  0  0  0  0  0  0  0
    3.1595   -4.2808    0.8839 C   0  0  0  0  0  0  0  0  0  0  0  0
    2.1981   -4.9206    0.4528 O   0  0  0  0  0  0  0  0  0  0  0  0
    4.5068   -4.3709    0.2275 C   0  0  0  0  0  0  0  0  0  0  0  0
    5.2036   -3.0807   -0.1218 C   0  0  0  0  0  0  0  0  0  0  0  0
    4.5986   -3.9259   -1.2119 C   0  0  0  0  0  0  0  0  0  0  0  0
    2.2096   -3.6492    4.2384 C   0  0  0  0  0  0  0  0  0  0  0  0
    3.1118   -4.8408    4.4851 C   0  0  2  0  0  0  0  0  0  0  0  0
    2.5467   -6.1825    4.0795 C   0  0  0  0  0  0  0  0  0  0  0  0
    1.5107   -6.8821    4.6382 C   0  0  0  0  0  0  0  0  0  0  0  0
    1.2145   -8.1065    3.9514 C   0  0  0  0  0  0  0  0  0  0  0  0
    2.0257   -8.3129    2.8773 C   0  0  0  0  0  0  0  0  0  0  0  0
    3.2656   -7.0944    2.7729 S   0  0  0  0  0  0  0  0  0  0  0  0
    3.2453   -4.8426    5.8811 O   0  0  0  0  0  0  0  0  0  0  0  0
    2.5820   -3.8188    6.4597 C   0  0  0  0  0  0  0  0  0  0  0  0
    2.6939   -3.5446    7.6459 O   0  0  0  0  0  0  0  0  0  0  0  0
    1.8633   -3.0636    5.3978 C   0  0  0  0  0  0  0  0  0  0  0  0
    0.8856   -1.8675    5.6537 C   0  0  1  0  0  0  0  0  0  0  0  0
   -0.2574   -2.1855    4.8568 O   0  0  0  0  0  0  0  0  0  0  0  0
    0.0955   -1.6852    7.0148 C   0  0  1  0  0  0  0  0  0  0  0  0
    0.5105   -2.2941    8.2127 O   0  0  0  0  0  0  0  0  0  0  0  0
   -0.1612    0.1366    7.2433 S   0  0  0  0  0  0  0  0  0  0  0  0
   -1.4282    0.4936    6.4645 O   0  0  0  0  0  0  0  0  0  0  0  0
    1.4260   -0.4440    5.1767 C   0  0  2  0  0  0  0  0  0  0  0  0
    2.6684   -0.4012    4.2362 C   0  0  2  0  0  0  0  0  0  0  0  0
    4.0369    0.1547    4.6575 C   0  0  0  0  0  0  0  0  0  0  0  0
    3.7680   -1.2320    4.6657 O   0  0  0  0  0  0  0  0  0  0  0  0
    3.9033    0.0395    8.4097 H   0  0  0  0  0  0  0  0  0  0  0  0
    3.2146   -1.1074    7.2871 H   0  0  0  0  0  0  0  0  0  0  0  0
    2.2966   -0.5743    8.7199 H   0  0  0  0  0  0  0  0  0  0  0  0
    0.1481    2.0347    5.1367 H   0  0  0  0  0  0  0  0  0  0  0  0
    0.6689    2.6752    6.6279 H   0  0  0  0  0  0  0  0  0  0  0  0
    5.1551    2.4030    7.7438 H   0  0  0  0  0  0  0  0  0  0  0  0
    4.9829    3.9751    8.5178 H   0  0  0  0  0  0  0  0  0  0  0  0
    5.6331    3.8770    6.8774 H   0  0  0  0  0  0  0  0  0  0  0  0
    0.6638    4.2606    4.0895 H   0  0  0  0  0  0  0  0  0  0  0  0
    2.5737    5.5922    5.6556 H   0  0  0  0  0  0  0  0  0  0  0  0
    2.3585    4.7042    2.4761 H   0  0  0  0  0  0  0  0  0  0  0  0
    3.6859    4.6347    3.7094 H   0  0  0  0  0  0  0  0  0  0  0  0
    3.5544    2.3498    3.4906 H   0  0  0  0  0  0  0  0  0  0  0  0
    1.4211    2.7950    1.6449 H   0  0  0  0  0  0  0  0  0  0  0  0
    1.3367    0.4892    1.0558 H   0  0  0  0  0  0  0  0  0  0  0  0
    3.2826   -0.6723    1.0701 H   0  0  0  0  0  0  0  0  0  0  0  0
    0.4625   -1.6817    2.6747 H   0  0  0  0  0  0  0  0  0  0  0  0
    1.4028   -1.8555    1.2902 H   0  0  0  0  0  0  0  0  0  0  0  0
    1.2199   -3.9706    2.4611 H   0  0  0  0  0  0  0  0  0  0  0  0
    5.1203   -5.2311    0.4956 H   0  0  0  0  0  0  0  0  0  0  0  0
    4.6963   -2.1444    0.1232 H   0  0  0  0  0  0  0  0  0  0  0  0
    6.2854   -3.0644   -0.0401 H   0  0  0  0  0  0  0  0  0  0  0  0
    5.2934   -4.4574   -1.8611 H   0  0  0  0  0  0  0  0  0  0  0  0
    3.6910   -3.5681   -1.6961 H   0  0  0  0  0  0  0  0  0  0  0  0
    0.9586   -6.5779    5.5144 H   0  0  0  0  0  0  0  0  0  0  0  0
    0.4319   -8.7785    4.2711 H   0  0  0  0  0  0  0  0  0  0  0  0
    2.0124   -9.1354    2.1589 H   0  0  0  0  0  0  0  0  0  0  0  0
    4.0827   -4.6687    4.0239 H   0  0  0  0  0  0  0  0  0  0  0  0
   -0.0196   -2.1123    3.9417 H   0  0  0  0  0  0  0  0  0  0  0  0
   -0.9103   -2.1085    6.9471 H   0  0  0  0  0  0  0  0  0  0  0  0
    1.4109   -2.5964    8.1095 H   0  0  0  0  0  0  0  0  0  0  0  0
    0.5847   -0.1234    4.5664 H   0  0  0  0  0  0  0  0  0  0  0  0
    4.7490    0.4735    3.9104 H   0  0  0  0  0  0  0  0  0  0  0  0
    4.2318    0.5414    5.6436 H   0  0  0  0  0  0  0  0  0  0  0  0
  1  2  1  0
  1 48  1  0
  1 49  1  0
  1 50  1  0
  3  2  1  1
 42  3  1  6
  3 44  1  0
  3  4  1  0
  4  5  1  0
  4 51  1  0
  4 52  1  0
  5 13  1  0
  5  6  1  1
  5 10  1  0
  6  7  1  0
  7  8  1  0
  7  9  2  0
  8 53  1  0
  8 54  1  0
  8 55  1  0
 10 11  1  0
 10 12  1  0
 10 56  1  6
 11 57  1  0
 12 13  1  0
 12 58  1  0
 12 59  1  0
 13 14  1  0
 13 60  1  1
 14 16  1  0
 14 15  1  0
 14 61  1  6
 15 16  1  0
 16 17  1  0
 16 62  1  6
 17 45  1  0
 17 18  1  6
 17 19  1  0
 18 63  1  0
 19 20  1  0
 19 64  1  0
 19 65  1  0
 20 21  1  0
 20 66  1  6
 20 27  1  0
 21 22  1  0
 22 23  2  0
 22 24  1  0
 24 26  1  0
 24 25  1  0
 24 67  1  0
 25 26  1  0
 25 68  1  0
 25 69  1  0
 26 70  1  0
 26 71  1  0
 27 37  2  0
 27 28  1  0
 28 34  1  0
 28 29  1  0
 28 75  1  6
 29 33  1  0
 29 30  2  0
 30 31  1  0
 30 72  1  0
 31 32  2  0
 31 73  1  0
 32 33  1  0
 32 74  1  0
 34 35  1  0
 35 37  1  0
 35 36  2  0
 37 38  1  0
 38 39  1  6
 38 40  1  0
 38 44  1  0
 39 76  1  0
 40 41  1  0
 40 42  1  0
 40 77  1  6
 41 78  1  0
 42 43  2  0
 44 45  1  0
 44 79  1  6
 45 47  1  1
 45 46  1  0
 46 47  1  0
 46 80  1  0
 46 81  1  0
M  END
>  <i_m_ct_stereo_status>  (174) 
1

>  <s_m_source_file>  (174) 
/var/tmp/pbs.5075288.sched01/tmp4tfr24xl/130i3iej58d.sdf

>  <i_m_source_file_index>  (174) 
64

>  <i_lp_mmshare_version>  (174) 
48012

>  <i_f3d_flags>  (174) 
0

>  <s_epik_input>  (174) 
TzFbQ0gyXUMxMltDQF0zKFtPSF0pW0NAQEhdNFtDQEBIXShPNClbQ0BASF01W0NAXShbQ0BASF0oW09IXSlbQ0gyXTUpKE9DKD1PKVtDSDNdKVtDSDJdW0NAXTYoT1tDSDNdKVtDQEBIXTJbQ0BdKFtPSF0pKFtDQEBIXShbT0hdKVtTK102W08tXSljN2MoYyhvYzdbT0hdKS1jOFtjSF1bY0hdW2NIXXM4KVtDQEBIXShbQ0gyXTMpT0MoPU8pW0NIXTlbQ0gyXVtDSDJdOQ==

>  <s_epik_cmdline>  (174) 
J2VwaWtfcHl0aG9uJywgJy1waHQnLCAnMi4wJywgJy1waCcsICc3LjAnLCAnLXRuJywgJzgnLCAnLW1hJywgJzIwMCcsICctaW1hZScsICc8aW5maWxlLm1hZT4nLCAnLW9tYWUnLCAnPG91dGZpbGUubWFlPic=

>  <r_lp_tautomer_probability>  (174) 
0.999841

>  <r_epik_Ionization_Penalty>  (174) 
1.81277

>  <r_epik_Ionization_Penalty_Charging>  (174) 
0

>  <r_epik_Ionization_Penalty_Neutral>  (174) 
1.81277

>  <r_epik_State_Penalty>  (174) 
1.53677

>  <r_epik_Charging_Adjusted_Penalty>  (174) 
1.53677

>  <i_epik_Tot_Q>  (174) 
0

>  <i_epik_Tot_abs_Q>  (174) 
0

>  <s_epik_Chemistry_Notes>  (174) 
This compound has an ester and may undergo hydrolysis at high or low pH. This compound contains an acetal/aminal-like group ( X-CH(R)-Y where X, Y are N, S, or O) that may be acid/base labile, releasing an aldehyde.

>  <s_lp_Force_Field>  (174) 
OPLS3e

>  <r_lp_Energy>  (174) 
74.8104

>  <b_lp_Chiralities_Consistent>  (174) 
1

>  <s_lp_Variant>  (174) 
75:0-7

>  <s_i_glide_gridfile>  (174) 
pfpi4k_grid

>  <i_i_glide_lignum>  (174) 
64

>  <i_i_glide_rotatable_bonds>  (174) 
11

>  <r_i_docking_score>  (174) 
-3.44865

>  <r_i_glide_ligand_efficiency>  (174) 
-0.0733755

>  <r_i_glide_ligand_efficiency_sa>  (174) 
-0.264799

>  <r_i_glide_ligand_efficiency_ln>  (174) 
-0.71104

>  <r_i_glide_gscore>  (174) 
-3.44865

>  <r_i_glide_lipo>  (174) 
-0.0613488

>  <r_i_glide_hbond>  (174) 
-0.153652

>  <r_i_glide_metal>  (174) 
-0

>  <r_i_glide_rewards>  (174) 
-0.5

>  <r_i_glide_evdw>  (174) 
-28.7043

>  <r_i_glide_ecoul>  (174) 
-8.63699

>  <r_i_glide_erotb>  (174) 
0.0490561

>  <r_i_glide_esite>  (174) 
-0.0519414

>  <r_i_glide_emodel>  (174) 
-50.0657

>  <r_i_glide_energy>  (174) 
-37.3413

>  <r_i_glide_einternal>  (174) 
1.00403

>  <r_i_glide_intrahb_reward>  (174) 
-0.5

>  <i_i_glide_confnum>  (174) 
1

>  <i_i_glide_posenum>  (174) 
13

>  <r_i_glide_eff_state_penalty>  (174) 
0

>  <ligand_id>  (174) 
75

>  <original_smiles>  (174) 
COC12CC3(OC(C)=O)C(O)CC3C3OC3C3(O)CC(OC(=O)C4CC4)c4c(-c5cccs5)oc(O)c4C(O)(C(O)[S+]1[O-])C2C31CO1

>  <smiles>  (174) 
[H]OC1([H])S(=O)C2(OC([H])([H])[H])C([H])([H])C3(OC(=O)C([H])([H])[H])C([H])(O[H])C([H])([H])C3([H])C3([H])OC3([H])C3(O[H])C([H])([H])C([H])(OC(=O)C4([H])C([H])([H])C4([H])[H])C4=C(C(=O)OC4([H])c4sc([H])c([H])c4[H])C1(O[H])C2([H])C31OC1([H])[H]

$$$$
75:6:1
     RDKit          3D

 81 89  0  0  1  0  0  0  0  0999 V2000
    1.5187   -4.2365    4.8964 C   0  0  0  0  0  0  0  0  0  0  0  0
    2.5894   -4.0699    3.9811 O   0  0  0  0  0  0  0  0  0  0  0  0
    3.5406   -3.0202    4.1682 C   0  0  2  0  0  0  0  0  0  0  0  0
    4.6407   -3.2900    3.0695 C   0  0  0  0  0  0  0  0  0  0  0  0
    4.2793   -3.4284    1.5435 C   0  0  2  0  0  0  0  0  0  0  0  0
    3.1947   -4.3617    1.3049 O   0  0  0  0  0  0  0  0  0  0  0  0
    3.2535   -5.6898    1.5922 C   0  0  0  0  0  0  0  0  0  0  0  0
    1.9474   -6.4147    1.2908 C   0  0  0  0  0  0  0  0  0  0  0  0
    4.2142   -6.2904    2.0647 O   0  0  0  0  0  0  0  0  0  0  0  0
    5.4678   -3.6433    0.5621 C   0  0  1  0  0  0  0  0  0  0  0  0
    5.9727   -4.9296    0.2868 O   0  0  0  0  0  0  0  0  0  0  0  0
    4.6721   -2.9534   -0.5251 C   0  0  0  0  0  0  0  0  0  0  0  0
    3.9528   -2.1979    0.6038 C   0  0  2  0  0  0  0  0  0  0  0  0
    4.4764   -0.7763    0.8089 C   0  0  2  0  0  0  0  0  0  0  0  0
    4.9175   -0.3791    2.1119 O   0  0  0  0  0  0  0  0  0  0  0  0
    3.7721    0.3091    1.5951 C   0  0  2  0  0  0  0  0  0  0  0  0
    2.4709    0.2803    2.4102 C   0  0  2  0  0  0  0  0  0  0  0  0
    1.5029    0.6352    1.4295 O   0  0  0  0  0  0  0  0  0  0  0  0
    2.5157    1.4546    3.4356 C   0  0  0  0  0  0  0  0  0  0  0  0
    1.2971    1.7820    4.3489 C   0  0  1  0  0  0  0  0  0  0  0  0
    0.2372    2.2378    3.5081 O   0  0  0  0  0  0  0  0  0  0  0  0
   -0.3925    3.4277    3.6769 C   0  0  0  0  0  0  0  0  0  0  0  0
   -0.0453    4.3268    4.4448 O   0  0  0  0  0  0  0  0  0  0  0  0
   -1.6589    3.5404    2.8677 C   0  0  0  0  0  0  0  0  0  0  0  0
   -2.9720    3.2769    3.5767 C   0  0  0  0  0  0  0  0  0  0  0  0
   -2.4365    2.2680    2.6141 C   0  0  0  0  0  0  0  0  0  0  0  0
    0.7495    0.7362    5.3499 C   0  0  0  0  0  0  0  0  0  0  0  0
   -0.6646    0.9581    5.8304 C   0  0  2  0  0  0  0  0  0  0  0  0
   -0.8708    2.1179    6.7632 C   0  0  0  0  0  0  0  0  0  0  0  0
    0.0558    3.0178    7.2310 C   0  0  0  0  0  0  0  0  0  0  0  0
   -0.5056    4.0510    8.0334 C   0  0  0  0  0  0  0  0  0  0  0  0
   -1.8590    3.9185    8.1966 C   0  0  0  0  0  0  0  0  0  0  0  0
   -2.4652    2.5171    7.3561 S   0  0  0  0  0  0  0  0  0  0  0  0
   -0.9531   -0.2086    6.5439 O   0  0  0  0  0  0  0  0  0  0  0  0
    0.0765   -1.0612    6.5491 C   0  0  0  0  0  0  0  0  0  0  0  0
   -0.0499   -2.1931    7.0098 O   0  0  0  0  0  0  0  0  0  0  0  0
    1.2281   -0.4439    5.8251 C   0  0  0  0  0  0  0  0  0  0  0  0
    2.6626   -1.0446    5.6719 C   0  0  1  0  0  0  0  0  0  0  0  0
    3.5239    0.0522    5.9623 O   0  0  0  0  0  0  0  0  0  0  0  0
    3.2893   -2.0504    6.7303 C   0  0  1  0  0  0  0  0  0  0  0  0
    2.4506   -2.7821    7.5834 O   0  0  0  0  0  0  0  0  0  0  0  0
    4.4450   -3.1538    5.7850 S   0  0  0  0  0  0  0  0  0  0  0  0
    5.7796   -2.4084    5.6675 O   0  0  0  0  0  0  0  0  0  0  0  0
    3.0224   -1.5412    4.2082 C   0  0  2  0  0  0  0  0  0  0  0  0
    2.1007   -1.0900    3.0412 C   0  0  2  0  0  0  0  0  0  0  0  0
    1.2537   -2.0704    2.2660 C   0  0  0  0  0  0  0  0  0  0  0  0
    0.6909   -1.2753    3.2887 O   0  0  0  0  0  0  0  0  0  0  0  0
    0.8578   -5.0166    4.5194 H   0  0  0  0  0  0  0  0  0  0  0  0
    0.9344   -3.3251    4.9597 H   0  0  0  0  0  0  0  0  0  0  0  0
    1.8367   -4.5476    5.8905 H   0  0  0  0  0  0  0  0  0  0  0  0
    5.4148   -2.5295    3.1697 H   0  0  0  0  0  0  0  0  0  0  0  0
    5.1657   -4.2053    3.3572 H   0  0  0  0  0  0  0  0  0  0  0  0
    1.1653   -6.0740    1.9677 H   0  0  0  0  0  0  0  0  0  0  0  0
    2.0736   -7.4868    1.4386 H   0  0  0  0  0  0  0  0  0  0  0  0
    1.6403   -6.2449    0.2603 H   0  0  0  0  0  0  0  0  0  0  0  0
    6.3021   -3.0109    0.8720 H   0  0  0  0  0  0  0  0  0  0  0  0
    5.2400   -5.4550   -0.0057 H   0  0  0  0  0  0  0  0  0  0  0  0
    5.2802   -2.3419   -1.1950 H   0  0  0  0  0  0  0  0  0  0  0  0
    4.0160   -3.6234   -1.0861 H   0  0  0  0  0  0  0  0  0  0  0  0
    2.9047   -2.1732    0.3180 H   0  0  0  0  0  0  0  0  0  0  0  0
    5.1373   -0.4123    0.0268 H   0  0  0  0  0  0  0  0  0  0  0  0
    3.9640    1.2995    1.2025 H   0  0  0  0  0  0  0  0  0  0  0  0
    1.4230   -0.0327    0.7513 H   0  0  0  0  0  0  0  0  0  0  0  0
    3.4329    1.3935    4.0109 H   0  0  0  0  0  0  0  0  0  0  0  0
    2.6945    2.3644    2.8610 H   0  0  0  0  0  0  0  0  0  0  0  0
    1.6224    2.6251    4.9538 H   0  0  0  0  0  0  0  0  0  0  0  0
   -1.6801    4.3055    2.0916 H   0  0  0  0  0  0  0  0  0  0  0  0
   -2.9581    3.0216    4.6335 H   0  0  0  0  0  0  0  0  0  0  0  0
   -3.8632    3.7820    3.2273 H   0  0  0  0  0  0  0  0  0  0  0  0
   -2.9801    2.1726    1.6768 H   0  0  0  0  0  0  0  0  0  0  0  0
   -2.0727    1.3329    3.0275 H   0  0  0  0  0  0  0  0  0  0  0  0
    1.1114    3.0005    7.0100 H   0  0  0  0  0  0  0  0  0  0  0  0
    0.0987    4.8452    8.4466 H   0  0  0  0  0  0  0  0  0  0  0  0
   -2.5293    4.5576    8.7570 H   0  0  0  0  0  0  0  0  0  0  0  0
   -1.3532    1.0088    4.9935 H   0  0  0  0  0  0  0  0  0  0  0  0
    3.4302    0.7033    5.2848 H   0  0  0  0  0  0  0  0  0  0  0  0
    3.9307   -1.5408    7.4565 H   0  0  0  0  0  0  0  0  0  0  0  0
    2.4334   -2.3571    8.4279 H   0  0  0  0  0  0  0  0  0  0  0  0
    3.9587   -1.0235    4.0372 H   0  0  0  0  0  0  0  0  0  0  0  0
    0.9572   -1.7958    1.2767 H   0  0  0  0  0  0  0  0  0  0  0  0
    1.1966   -3.1246    2.4693 H   0  0  0  0  0  0  0  0  0  0  0  0
  1  2  1  0
  1 48  1  0
  1 49  1  0
  1 50  1  0
  3  2  1  1
 42  3  1  6
  3 44  1  0
  3  4  1  0
  4  5  1  0
  4 51  1  0
  4 52  1  0
  5 13  1  0
  5  6  1  1
  5 10  1  0
  6  7  1  0
  7  8  1  0
  7  9  2  0
  8 53  1  0
  8 54  1  0
  8 55  1  0
 10 11  1  0
 10 12  1  0
 10 56  1  1
 11 57  1  0
 12 13  1  0
 12 58  1  0
 12 59  1  0
 13 14  1  0
 13 60  1  6
 14 16  1  0
 14 15  1  0
 14 61  1  6
 15 16  1  0
 16 17  1  0
 16 62  1  6
 17 45  1  0
 17 18  1  6
 17 19  1  0
 18 63  1  0
 19 20  1  0
 19 64  1  0
 19 65  1  0
 20 21  1  0
 20 66  1  1
 20 27  1  0
 21 22  1  0
 22 23  2  0
 22 24  1  0
 24 26  1  0
 24 25  1  0
 24 67  1  0
 25 26  1  0
 25 68  1  0
 25 69  1  0
 26 70  1  0
 26 71  1  0
 27 37  2  0
 27 28  1  0
 28 34  1  0
 28 29  1  0
 28 75  1  6
 29 33  1  0
 29 30  2  0
 30 31  1  0
 30 72  1  0
 31 32  2  0
 31 73  1  0
 32 33  1  0
 32 74  1  0
 34 35  1  0
 35 37  1  0
 35 36  2  0
 37 38  1  0
 38 39  1  1
 38 40  1  0
 38 44  1  0
 39 76  1  0
 40 41  1  0
 40 42  1  0
 40 77  1  1
 41 78  1  0
 42 43  2  0
 44 45  1  0
 44 79  1  6
 45 47  1  1
 45 46  1  0
 46 47  1  0
 46 80  1  0
 46 81  1  0
M  END
>  <i_m_ct_stereo_status>  (175) 
1

>  <s_m_source_file>  (175) 
/var/tmp/pbs.5075288.sched01/tmp4tfr24xl/130i3iej58d.sdf

>  <i_m_source_file_index>  (175) 
64

>  <i_lp_mmshare_version>  (175) 
48012

>  <i_f3d_flags>  (175) 
0

>  <s_epik_input>  (175) 
TzFbQ0gyXUMxMltDQF0zKFtPSF0pW0NAQEhdNFtDQEBIXShPNClbQ0BASF01W0NAXShbQ0BASF0oW09IXSlbQ0gyXTUpKE9DKD1PKVtDSDNdKVtDSDJdW0NAXTYoT1tDSDNdKVtDQEBIXTJbQ0BdKFtPSF0pKFtDQEBIXShbT0hdKVtTK102W08tXSljN2MoYyhvYzdbT0hdKS1jOFtjSF1bY0hdW2NIXXM4KVtDQEBIXShbQ0gyXTMpT0MoPU8pW0NIXTlbQ0gyXVtDSDJdOQ==

>  <s_epik_cmdline>  (175) 
J2VwaWtfcHl0aG9uJywgJy1waHQnLCAnMi4wJywgJy1waCcsICc3LjAnLCAnLXRuJywgJzgnLCAnLW1hJywgJzIwMCcsICctaW1hZScsICc8aW5maWxlLm1hZT4nLCAnLW9tYWUnLCAnPG91dGZpbGUubWFlPic=

>  <r_lp_tautomer_probability>  (175) 
0.999841

>  <r_epik_Ionization_Penalty>  (175) 
1.81277

>  <r_epik_Ionization_Penalty_Charging>  (175) 
0

>  <r_epik_Ionization_Penalty_Neutral>  (175) 
1.81277

>  <r_epik_State_Penalty>  (175) 
1.53677

>  <r_epik_Charging_Adjusted_Penalty>  (175) 
1.53677

>  <i_epik_Tot_Q>  (175) 
0

>  <i_epik_Tot_abs_Q>  (175) 
0

>  <s_epik_Chemistry_Notes>  (175) 
This compound has an ester and may undergo hydrolysis at high or low pH. This compound contains an acetal/aminal-like group ( X-CH(R)-Y where X, Y are N, S, or O) that may be acid/base labile, releasing an aldehyde.

>  <s_lp_Force_Field>  (175) 
OPLS3e

>  <r_lp_Energy>  (175) 
74.8104

>  <b_lp_Chiralities_Consistent>  (175) 
1

>  <s_lp_Variant>  (175) 
75:0-7

>  <s_i_glide_gridfile>  (175) 
pfpi4k_grid

>  <i_i_glide_lignum>  (175) 
64

>  <i_i_glide_rotatable_bonds>  (175) 
11

>  <r_i_docking_score>  (175) 
-3.26125

>  <r_i_glide_ligand_efficiency>  (175) 
-0.0693883

>  <r_i_glide_ligand_efficiency_sa>  (175) 
-0.25041

>  <r_i_glide_ligand_efficiency_ln>  (175) 
-0.672403

>  <r_i_glide_gscore>  (175) 
-3.26125

>  <r_i_glide_lipo>  (175) 
-0.316122

>  <r_i_glide_hbond>  (175) 
-0.113062

>  <r_i_glide_metal>  (175) 
-0

>  <r_i_glide_rewards>  (175) 
-0.0290366

>  <r_i_glide_evdw>  (175) 
-31.2349

>  <r_i_glide_ecoul>  (175) 
-7.83077

>  <r_i_glide_erotb>  (175) 
0.0490561

>  <r_i_glide_esite>  (175) 
-0.115724

>  <r_i_glide_emodel>  (175) 
-45.4961

>  <r_i_glide_energy>  (175) 
-39.0657

>  <r_i_glide_einternal>  (175) 
2.27268

>  <r_i_glide_intrahb_reward>  (175) 
-0

>  <i_i_glide_confnum>  (175) 
3

>  <i_i_glide_posenum>  (175) 
2

>  <r_i_glide_eff_state_penalty>  (175) 
0

>  <ligand_id>  (175) 
75

>  <original_smiles>  (175) 
COC12CC3(OC(C)=O)C(O)CC3C3OC3C3(O)CC(OC(=O)C4CC4)c4c(-c5cccs5)oc(O)c4C(O)(C(O)[S+]1[O-])C2C31CO1

>  <smiles>  (175) 
[H]OC1([H])S(=O)C2(OC([H])([H])[H])C([H])([H])C3(OC(=O)C([H])([H])[H])C([H])(O[H])C([H])([H])C3([H])C3([H])OC3([H])C3(O[H])C([H])([H])C([H])(OC(=O)C4([H])C([H])([H])C4([H])[H])C4=C(C(=O)OC4([H])c4sc([H])c([H])c4[H])C1(O[H])C2([H])C31OC1([H])[H]

$$$$
75:6:2
     RDKit          3D

 81 89  0  0  1  0  0  0  0  0999 V2000
    2.5464    0.2899    7.8497 C   0  0  0  0  0  0  0  0  0  0  0  0
    2.1126    1.2807    6.9349 O   0  0  0  0  0  0  0  0  0  0  0  0
    1.0472    1.0056    6.0200 C   0  0  2  0  0  0  0  0  0  0  0  0
    0.6872    2.4033    5.3925 C   0  0  0  0  0  0  0  0  0  0  0  0
    1.7955    3.2928    4.6960 C   0  0  2  0  0  0  0  0  0  0  0  0
    2.9759    3.4751    5.5186 O   0  0  0  0  0  0  0  0  0  0  0  0
    2.9658    4.0745    6.7373 C   0  0  0  0  0  0  0  0  0  0  0  0
    4.3375    4.0656    7.4009 C   0  0  0  0  0  0  0  0  0  0  0  0
    1.9805    4.5327    7.3133 O   0  0  0  0  0  0  0  0  0  0  0  0
    1.3226    4.6205    4.0399 C   0  0  1  0  0  0  0  0  0  0  0  0
    1.2111    5.7981    4.8134 O   0  0  0  0  0  0  0  0  0  0  0  0
    2.4692    4.5077    3.0528 C   0  0  0  0  0  0  0  0  0  0  0  0
    2.3931    2.9850    3.2727 C   0  0  2  0  0  0  0  0  0  0  0  0
    1.6456    2.2368    2.1602 C   0  0  2  0  0  0  0  0  0  0  0  0
    0.5383    1.4083    2.5119 O   0  0  0  0  0  0  0  0  0  0  0  0
    1.6563    0.7605    1.8829 C   0  0  2  0  0  0  0  0  0  0  0  0
    2.3712   -0.3614    2.6408 C   0  0  2  0  0  0  0  0  0  0  0  0
    3.6287   -0.3548    2.0059 O   0  0  0  0  0  0  0  0  0  0  0  0
    1.6490   -1.7018    2.3090 C   0  0  0  0  0  0  0  0  0  0  0  0
    2.1661   -3.0754    2.8162 C   0  0  1  0  0  0  0  0  0  0  0  0
    3.4170   -3.3209    2.1763 O   0  0  0  0  0  0  0  0  0  0  0  0
    3.5116   -4.0507    1.0521 C   0  0  0  0  0  0  0  0  0  0  0  0
    2.5675   -4.6037    0.4880 O   0  0  0  0  0  0  0  0  0  0  0  0
    4.9396   -4.1450    0.5518 C   0  0  0  0  0  0  0  0  0  0  0  0
    5.1785   -4.2458   -0.9439 C   0  0  0  0  0  0  0  0  0  0  0  0
    5.3916   -5.4510   -0.0722 C   0  0  0  0  0  0  0  0  0  0  0  0
    2.2751   -3.3478    4.3272 C   0  0  0  0  0  0  0  0  0  0  0  0
    3.2007   -4.4719    4.7243 C   0  0  2  0  0  0  0  0  0  0  0  0
    2.7340   -5.8447    4.3314 C   0  0  0  0  0  0  0  0  0  0  0  0
    1.6387   -6.5353    4.7868 C   0  0  0  0  0  0  0  0  0  0  0  0
    1.4898   -7.8234    4.1879 C   0  0  0  0  0  0  0  0  0  0  0  0
    2.4755   -8.0950    3.2791 C   0  0  0  0  0  0  0  0  0  0  0  0
    3.6299   -6.8004    3.1849 S   0  0  0  0  0  0  0  0  0  0  0  0
    3.1985   -4.3965    6.1209 O   0  0  0  0  0  0  0  0  0  0  0  0
    2.4465   -3.3731    6.5738 C   0  0  0  0  0  0  0  0  0  0  0  0
    2.4486   -3.0328    7.7450 O   0  0  0  0  0  0  0  0  0  0  0  0
    1.8014   -2.7129    5.4096 C   0  0  0  0  0  0  0  0  0  0  0  0
    0.7563   -1.5577    5.5080 C   0  0  1  0  0  0  0  0  0  0  0  0
   -0.2975   -1.9817    4.6322 O   0  0  0  0  0  0  0  0  0  0  0  0
   -0.1557   -1.3392    6.7842 C   0  0  1  0  0  0  0  0  0  0  0  0
    0.1933   -1.8466    8.0508 O   0  0  0  0  0  0  0  0  0  0  0  0
   -0.5173    0.4783    6.8669 S   0  0  0  0  0  0  0  0  0  0  0  0
   -1.7179    0.7204    5.9514 O   0  0  0  0  0  0  0  0  0  0  0  0
    1.2652   -0.1419    4.9906 C   0  0  2  0  0  0  0  0  0  0  0  0
    2.5876   -0.0866    4.1603 C   0  0  2  0  0  0  0  0  0  0  0  0
    3.9033    0.5582    4.6559 C   0  0  0  0  0  0  0  0  0  0  0  0
    3.6764   -0.8275    4.7382 O   0  0  0  0  0  0  0  0  0  0  0  0
    3.4104    0.6614    8.4007 H   0  0  0  0  0  0  0  0  0  0  0  0
    2.8654   -0.5846    7.3040 H   0  0  0  0  0  0  0  0  0  0  0  0
    1.8042    0.0138    8.6033 H   0  0  0  0  0  0  0  0  0  0  0  0
   -0.1288    2.2614    4.6898 H   0  0  0  0  0  0  0  0  0  0  0  0
    0.2291    3.0212    6.1733 H   0  0  0  0  0  0  0  0  0  0  0  0
    4.6188    3.0475    7.6644 H   0  0  0  0  0  0  0  0  0  0  0  0
    4.2981    4.6450    8.3198 H   0  0  0  0  0  0  0  0  0  0  0  0
    5.0972    4.4960    6.7522 H   0  0  0  0  0  0  0  0  0  0  0  0
    0.3770    4.4507    3.5118 H   0  0  0  0  0  0  0  0  0  0  0  0
    1.1118    6.5106    4.1970 H   0  0  0  0  0  0  0  0  0  0  0  0
    2.2079    4.8782    2.0643 H   0  0  0  0  0  0  0  0  0  0  0  0
    3.4053    4.9342    3.4127 H   0  0  0  0  0  0  0  0  0  0  0  0
    3.4150    2.6562    3.3441 H   0  0  0  0  0  0  0  0  0  0  0  0
    1.4516    2.8360    1.2856 H   0  0  0  0  0  0  0  0  0  0  0  0
    1.4960    0.5132    0.8473 H   0  0  0  0  0  0  0  0  0  0  0  0
    3.4919   -0.5312    1.0895 H   0  0  0  0  0  0  0  0  0  0  0  0
    0.5885   -1.5847    2.4882 H   0  0  0  0  0  0  0  0  0  0  0  0
    1.6616   -1.7931    1.2258 H   0  0  0  0  0  0  0  0  0  0  0  0
    1.4660   -3.8359    2.4711 H   0  0  0  0  0  0  0  0  0  0  0  0
    5.6851   -3.5989    1.1254 H   0  0  0  0  0  0  0  0  0  0  0  0
    4.3183   -4.2594   -1.6194 H   0  0  0  0  0  0  0  0  0  0  0  0
    6.0695   -3.7629   -1.3301 H   0  0  0  0  0  0  0  0  0  0  0  0
    6.4230   -5.7452    0.1050 H   0  0  0  0  0  0  0  0  0  0  0  0
    4.6785   -6.2710   -0.1765 H   0  0  0  0  0  0  0  0  0  0  0  0
    0.9463   -6.1759    5.5352 H   0  0  0  0  0  0  0  0  0  0  0  0
    0.6817   -8.4979    4.4458 H   0  0  0  0  0  0  0  0  0  0  0  0
    2.6062   -8.9925    2.6760 H   0  0  0  0  0  0  0  0  0  0  0  0
    4.1935   -4.2716    4.3434 H   0  0  0  0  0  0  0  0  0  0  0  0
   -0.0019   -1.9138    3.7357 H   0  0  0  0  0  0  0  0  0  0  0  0
   -1.1204   -1.8288    6.6547 H   0  0  0  0  0  0  0  0  0  0  0  0
    1.1077   -2.1244    8.0293 H   0  0  0  0  0  0  0  0  0  0  0  0
    0.4614    0.0998    4.2989 H   0  0  0  0  0  0  0  0  0  0  0  0
    4.6626    0.8471    3.9390 H   0  0  0  0  0  0  0  0  0  0  0  0
    4.0130    1.0092    5.6246 H   0  0  0  0  0  0  0  0  0  0  0  0
  1  2  1  0
  1 48  1  0
  1 49  1  0
  1 50  1  0
  3  2  1  1
 42  3  1  6
  3 44  1  0
  3  4  1  0
  4  5  1  0
  4 51  1  0
  4 52  1  0
  5 13  1  0
  5  6  1  1
  5 10  1  0
  6  7  1  0
  7  8  1  0
  7  9  2  0
  8 53  1  0
  8 54  1  0
  8 55  1  0
 10 11  1  0
 10 12  1  0
 10 56  1  6
 11 57  1  0
 12 13  1  0
 12 58  1  0
 12 59  1  0
 13 14  1  0
 13 60  1  1
 14 16  1  0
 14 15  1  0
 14 61  1  6
 15 16  1  0
 16 17  1  0
 16 62  1  6
 17 45  1  0
 17 18  1  6
 17 19  1  0
 18 63  1  0
 19 20  1  0
 19 64  1  0
 19 65  1  0
 20 21  1  0
 20 66  1  6
 20 27  1  0
 21 22  1  0
 22 23  2  0
 22 24  1  0
 24 26  1  0
 24 25  1  0
 24 67  1  0
 25 26  1  0
 25 68  1  0
 25 69  1  0
 26 70  1  0
 26 71  1  0
 27 37  2  0
 27 28  1  0
 28 34  1  0
 28 29  1  0
 28 75  1  6
 29 33  1  0
 29 30  2  0
 30 31  1  0
 30 72  1  0
 31 32  2  0
 31 73  1  0
 32 33  1  0
 32 74  1  0
 34 35  1  0
 35 37  1  0
 35 36  2  0
 37 38  1  0
 38 39  1  6
 38 40  1  0
 38 44  1  0
 39 76  1  0
 40 41  1  0
 40 42  1  0
 40 77  1  6
 41 78  1  0
 42 43  2  0
 44 45  1  0
 44 79  1  6
 45 47  1  1
 45 46  1  0
 46 47  1  0
 46 80  1  0
 46 81  1  0
M  END
>  <i_m_ct_stereo_status>  (176) 
1

>  <s_m_source_file>  (176) 
/var/tmp/pbs.5075288.sched01/tmp4tfr24xl/130i3iej58d.sdf

>  <i_m_source_file_index>  (176) 
64

>  <i_lp_mmshare_version>  (176) 
48012

>  <i_f3d_flags>  (176) 
0

>  <s_epik_input>  (176) 
TzFbQ0gyXUMxMltDQF0zKFtPSF0pW0NAQEhdNFtDQEBIXShPNClbQ0BASF01W0NAXShbQ0BASF0oW09IXSlbQ0gyXTUpKE9DKD1PKVtDSDNdKVtDSDJdW0NAXTYoT1tDSDNdKVtDQEBIXTJbQ0BdKFtPSF0pKFtDQEBIXShbT0hdKVtTK102W08tXSljN2MoYyhvYzdbT0hdKS1jOFtjSF1bY0hdW2NIXXM4KVtDQEBIXShbQ0gyXTMpT0MoPU8pW0NIXTlbQ0gyXVtDSDJdOQ==

>  <s_epik_cmdline>  (176) 
J2VwaWtfcHl0aG9uJywgJy1waHQnLCAnMi4wJywgJy1waCcsICc3LjAnLCAnLXRuJywgJzgnLCAnLW1hJywgJzIwMCcsICctaW1hZScsICc8aW5maWxlLm1hZT4nLCAnLW9tYWUnLCAnPG91dGZpbGUubWFlPic=

>  <r_lp_tautomer_probability>  (176) 
0.999841

>  <r_epik_Ionization_Penalty>  (176) 
1.81277

>  <r_epik_Ionization_Penalty_Charging>  (176) 
0

>  <r_epik_Ionization_Penalty_Neutral>  (176) 
1.81277

>  <r_epik_State_Penalty>  (176) 
1.53677

>  <r_epik_Charging_Adjusted_Penalty>  (176) 
1.53677

>  <i_epik_Tot_Q>  (176) 
0

>  <i_epik_Tot_abs_Q>  (176) 
0

>  <s_epik_Chemistry_Notes>  (176) 
This compound has an ester and may undergo hydrolysis at high or low pH. This compound contains an acetal/aminal-like group ( X-CH(R)-Y where X, Y are N, S, or O) that may be acid/base labile, releasing an aldehyde.

>  <s_lp_Force_Field>  (176) 
OPLS3e

>  <r_lp_Energy>  (176) 
74.8104

>  <b_lp_Chiralities_Consistent>  (176) 
1

>  <s_lp_Variant>  (176) 
75:0-7

>  <s_i_glide_gridfile>  (176) 
pfpi4k_grid

>  <i_i_glide_lignum>  (176) 
64

>  <i_i_glide_rotatable_bonds>  (176) 
11

>  <r_i_docking_score>  (176) 
-3.24618

>  <r_i_glide_ligand_efficiency>  (176) 
-0.0690677

>  <r_i_glide_ligand_efficiency_sa>  (176) 
-0.249253

>  <r_i_glide_ligand_efficiency_ln>  (176) 
-0.669295

>  <r_i_glide_gscore>  (176) 
-3.24618

>  <r_i_glide_lipo>  (176) 
-0.0938764

>  <r_i_glide_hbond>  (176) 
0

>  <r_i_glide_metal>  (176) 
-0

>  <r_i_glide_rewards>  (176) 
-0.5

>  <r_i_glide_evdw>  (176) 
-29.8571

>  <r_i_glide_ecoul>  (176) 
-7.7427

>  <r_i_glide_erotb>  (176) 
0.0490561

>  <r_i_glide_esite>  (176) 
-0.0471028

>  <r_i_glide_emodel>  (176) 
-49.7249

>  <r_i_glide_energy>  (176) 
-37.5998

>  <r_i_glide_einternal>  (176) 
1.76823

>  <r_i_glide_intrahb_reward>  (176) 
-0.5

>  <i_i_glide_confnum>  (176) 
4

>  <i_i_glide_posenum>  (176) 
3

>  <r_i_glide_eff_state_penalty>  (176) 
0

>  <ligand_id>  (176) 
75

>  <original_smiles>  (176) 
COC12CC3(OC(C)=O)C(O)CC3C3OC3C3(O)CC(OC(=O)C4CC4)c4c(-c5cccs5)oc(O)c4C(O)(C(O)[S+]1[O-])C2C31CO1

>  <smiles>  (176) 
[H]OC1([H])S(=O)C2(OC([H])([H])[H])C([H])([H])C3(OC(=O)C([H])([H])[H])C([H])(O[H])C([H])([H])C3([H])C3([H])OC3([H])C3(O[H])C([H])([H])C([H])(OC(=O)C4([H])C([H])([H])C4([H])[H])C4=C(C(=O)OC4([H])c4sc([H])c([H])c4[H])C1(O[H])C2([H])C31OC1([H])[H]

$$$$
75:7:0
     RDKit          3D

 81 89  0  0  1  0  0  0  0  0999 V2000
    0.8652   -4.7654    4.3677 C   0  0  0  0  0  0  0  0  0  0  0  0
    2.0805   -4.6940    3.6524 O   0  0  0  0  0  0  0  0  0  0  0  0
    3.2327   -4.1014    4.2562 C   0  0  2  0  0  0  0  0  0  0  0  0
    4.4344   -4.5278    3.3311 C   0  0  0  0  0  0  0  0  0  0  0  0
    4.4327   -4.2240    1.7807 C   0  0  2  0  0  0  0  0  0  0  0  0
    3.1956   -4.6524    1.1553 O   0  0  0  0  0  0  0  0  0  0  0  0
    2.7823   -5.9540    1.0680 C   0  0  0  0  0  0  0  0  0  0  0  0
    1.3596   -6.0947    0.5480 C   0  0  0  0  0  0  0  0  0  0  0  0
    3.4158   -6.9478    1.3983 O   0  0  0  0  0  0  0  0  0  0  0  0
    5.6994   -4.6317    0.9892 C   0  0  1  0  0  0  0  0  0  0  0  0
    5.8694   -5.9351    0.4915 O   0  0  0  0  0  0  0  0  0  0  0  0
    5.4276   -3.5257   -0.0052 C   0  0  0  0  0  0  0  0  0  0  0  0
    4.7182   -2.8050    1.1515 C   0  0  2  0  0  0  0  0  0  0  0  0
    5.5631   -1.7010    1.8040 C   0  0  2  0  0  0  0  0  0  0  0  0
    5.7355   -1.7792    3.2113 O   0  0  0  0  0  0  0  0  0  0  0  0
    5.0551   -0.6273    2.7394 C   0  0  2  0  0  0  0  0  0  0  0  0
    3.6489   -0.3643    3.2809 C   0  0  2  0  0  0  0  0  0  0  0  0
    3.1191    0.4370    2.2517 O   0  0  0  0  0  0  0  0  0  0  0  0
    3.7911    0.4990    4.5751 C   0  0  0  0  0  0  0  0  0  0  0  0
    2.5412    1.0686    5.2874 C   0  0  1  0  0  0  0  0  0  0  0  0
    1.9897    2.0112    4.3684 O   0  0  0  0  0  0  0  0  0  0  0  0
    2.1801    3.3391    4.4941 C   0  0  0  0  0  0  0  0  0  0  0  0
    2.8262    3.8821    5.3874 O   0  0  0  0  0  0  0  0  0  0  0  0
    1.5427    4.1186    3.3693 C   0  0  0  0  0  0  0  0  0  0  0  0
    2.4761    4.8672    2.4520 C   0  0  0  0  0  0  0  0  0  0  0  0
    1.5809    5.6311    3.3864 C   0  0  0  0  0  0  0  0  0  0  0  0
    1.4622    0.1091    5.8499 C   0  0  0  0  0  0  0  0  0  0  0  0
    0.1534    0.7536    6.2871 C   0  0  1  0  0  0  0  0  0  0  0  0
   -0.7184    1.4323    5.2580 C   0  0  0  0  0  0  0  0  0  0  0  0
   -0.8410    1.1859    3.9212 C   0  0  0  0  0  0  0  0  0  0  0  0
   -1.7360    2.0809    3.2639 C   0  0  0  0  0  0  0  0  0  0  0  0
   -2.3292    2.9563    4.1178 C   0  0  0  0  0  0  0  0  0  0  0  0
   -1.7775    2.7291    5.7549 S   0  0  0  0  0  0  0  0  0  0  0  0
   -0.5872   -0.3364    6.7386 O   0  0  0  0  0  0  0  0  0  0  0  0
    0.0570   -1.5069    6.5696 C   0  0  0  0  0  0  0  0  0  0  0  0
   -0.5407   -2.5685    6.6874 O   0  0  0  0  0  0  0  0  0  0  0  0
    1.4502   -1.2205    6.1041 C   0  0  0  0  0  0  0  0  0  0  0  0
    2.6277   -2.2681    6.0442 C   0  0  1  0  0  0  0  0  0  0  0  0
    3.6945   -1.6263    6.7410 O   0  0  0  0  0  0  0  0  0  0  0  0
    2.6331   -3.6101    6.8944 C   0  0  1  0  0  0  0  0  0  0  0  0
    1.4293   -4.1879    7.3251 O   0  0  0  0  0  0  0  0  0  0  0  0
    3.6620   -4.8100    5.9235 S   0  0  0  0  0  0  0  0  0  0  0  0
    5.1161   -4.4350    6.2156 O   0  0  0  0  0  0  0  0  0  0  0  0
    3.1706   -2.5758    4.5761 C   0  0  2  0  0  0  0  0  0  0  0  0
    2.7420   -1.6283    3.4167 C   0  0  2  0  0  0  0  0  0  0  0  0
    1.8256   -2.0567    2.2640 C   0  0  0  0  0  0  0  0  0  0  0  0
    1.3317   -1.3388    3.3717 O   0  0  0  0  0  0  0  0  0  0  0  0
    0.0883   -5.0984    3.6838 H   0  0  0  0  0  0  0  0  0  0  0  0
    0.5798   -3.7857    4.7324 H   0  0  0  0  0  0  0  0  0  0  0  0
    0.8846   -5.4865    5.1884 H   0  0  0  0  0  0  0  0  0  0  0  0
    5.3505   -4.1191    3.7537 H   0  0  0  0  0  0  0  0  0  0  0  0
    4.5701   -5.6080    3.4478 H   0  0  0  0  0  0  0  0  0  0  0  0
    0.6866   -5.6614    1.2814 H   0  0  0  0  0  0  0  0  0  0  0  0
    1.0970   -7.1509    0.4741 H   0  0  0  0  0  0  0  0  0  0  0  0
    1.2399   -5.6295   -0.4308 H   0  0  0  0  0  0  0  0  0  0  0  0
    6.5711   -4.3748    1.5904 H   0  0  0  0  0  0  0  0  0  0  0  0
    5.0796   -6.1341    0.0019 H   0  0  0  0  0  0  0  0  0  0  0  0
    6.3415   -3.0593   -0.3704 H   0  0  0  0  0  0  0  0  0  0  0  0
    4.7395   -3.8108   -0.8115 H   0  0  0  0  0  0  0  0  0  0  0  0
    3.8225   -2.3902    0.7247 H   0  0  0  0  0  0  0  0  0  0  0  0
    6.4937   -1.4719    1.2962 H   0  0  0  0  0  0  0  0  0  0  0  0
    5.6650    0.2667    2.7221 H   0  0  0  0  0  0  0  0  0  0  0  0
    2.2707    0.7599    2.5300 H   0  0  0  0  0  0  0  0  0  0  0  0
    4.4543    0.0106    5.2792 H   0  0  0  0  0  0  0  0  0  0  0  0
    4.3885    1.3735    4.3009 H   0  0  0  0  0  0  0  0  0  0  0  0
    2.8918    1.6131    6.1622 H   0  0  0  0  0  0  0  0  0  0  0  0
    0.6932    3.6531    2.8741 H   0  0  0  0  0  0  0  0  0  0  0  0
    3.5519    4.8703    2.6598 H   0  0  0  0  0  0  0  0  0  0  0  0
    2.2186    4.8935    1.4041 H   0  0  0  0  0  0  0  0  0  0  0  0
    0.7372    6.1492    2.9268 H   0  0  0  0  0  0  0  0  0  0  0  0
    2.0539    6.1558    4.2127 H   0  0  0  0  0  0  0  0  0  0  0  0
   -0.3034    0.4327    3.3658 H   0  0  0  0  0  0  0  0  0  0  0  0
   -1.9145    2.0339    2.1971 H   0  0  0  0  0  0  0  0  0  0  0  0
   -3.0582    3.7258    3.8743 H   0  0  0  0  0  0  0  0  0  0  0  0
    0.3524    1.4219    7.1196 H   0  0  0  0  0  0  0  0  0  0  0  0
    4.4604   -2.1972    6.7077 H   0  0  0  0  0  0  0  0  0  0  0  0
    3.1411   -3.4859    7.8565 H   0  0  0  0  0  0  0  0  0  0  0  0
    1.5234   -5.1350    7.3047 H   0  0  0  0  0  0  0  0  0  0  0  0
    4.2302   -2.3859    4.7235 H   0  0  0  0  0  0  0  0  0  0  0  0
    1.8128   -1.5100    1.3321 H   0  0  0  0  0  0  0  0  0  0  0  0
    1.3871   -3.0352    2.2029 H   0  0  0  0  0  0  0  0  0  0  0  0
  1  2  1  0
  1 48  1  0
  1 49  1  0
  1 50  1  0
  3  2  1  6
 42  3  1  6
  3 44  1  0
  3  4  1  0
  4  5  1  0
  4 51  1  0
  4 52  1  0
  5 13  1  0
  5  6  1  6
  5 10  1  0
  6  7  1  0
  7  8  1  0
  7  9  2  0
  8 53  1  0
  8 54  1  0
  8 55  1  0
 10 11  1  0
 10 12  1  0
 10 56  1  1
 11 57  1  0
 12 13  1  0
 12 58  1  0
 12 59  1  0
 13 14  1  0
 13 60  1  6
 14 16  1  0
 14 15  1  0
 14 61  1  6
 15 16  1  0
 16 17  1  0
 16 62  1  6
 17 45  1  0
 17 18  1  6
 17 19  1  0
 18 63  1  0
 19 20  1  0
 19 64  1  0
 19 65  1  0
 20 21  1  0
 20 66  1  1
 20 27  1  0
 21 22  1  0
 22 23  2  0
 22 24  1  0
 24 26  1  0
 24 25  1  0
 24 67  1  0
 25 26  1  0
 25 68  1  0
 25 69  1  0
 26 70  1  0
 26 71  1  0
 27 37  2  0
 27 28  1  0
 28 34  1  0
 28 29  1  0
 28 75  1  1
 29 33  1  0
 29 30  2  0
 30 31  1  0
 30 72  1  0
 31 32  2  0
 31 73  1  0
 32 33  1  0
 32 74  1  0
 34 35  1  0
 35 37  1  0
 35 36  2  0
 37 38  1  0
 38 39  1  1
 38 40  1  0
 38 44  1  0
 39 76  1  0
 40 41  1  0
 40 42  1  0
 40 77  1  1
 41 78  1  0
 42 43  2  0
 44 45  1  0
 44 79  1  1
 45 47  1  1
 45 46  1  0
 46 47  1  0
 46 80  1  0
 46 81  1  0
M  END
>  <i_m_ct_stereo_status>  (177) 
1

>  <s_m_source_file>  (177) 
/var/tmp/pbs.5075288.sched01/tmpo2oug7hv/195455be7ie.sdf

>  <i_m_source_file_index>  (177) 
1

>  <i_lp_mmshare_version>  (177) 
48012

>  <i_f3d_flags>  (177) 
0

>  <s_epik_input>  (177) 
TzFbQ0gyXUMxMltDQF0zKFtPSF0pW0NAQEhdNFtDQEBIXShPNClbQ0BASF01W0NAXShbQ0BASF0oW09IXSlbQ0gyXTUpKE9DKD1PKVtDSDNdKVtDSDJdW0NAXTYoT1tDSDNdKVtDQEBIXTJbQ0BdKFtPSF0pKFtDQEBIXShbT0hdKVtTK102W08tXSljN2MoYyhvYzdbT0hdKS1jOFtjSF1bY0hdW2NIXXM4KVtDQEBIXShbQ0gyXTMpT0MoPU8pW0NIXTlbQ0gyXVtDSDJdOQ==

>  <s_epik_cmdline>  (177) 
J2VwaWtfcHl0aG9uJywgJy1waHQnLCAnMi4wJywgJy1waCcsICc3LjAnLCAnLXRuJywgJzgnLCAnLW1hJywgJzIwMCcsICctaW1hZScsICc8aW5maWxlLm1hZT4nLCAnLW9tYWUnLCAnPG91dGZpbGUubWFlPic=

>  <r_lp_tautomer_probability>  (177) 
0.999841

>  <r_epik_Ionization_Penalty>  (177) 
1.81277

>  <r_epik_Ionization_Penalty_Charging>  (177) 
0

>  <r_epik_Ionization_Penalty_Neutral>  (177) 
1.81277

>  <r_epik_State_Penalty>  (177) 
1.53677

>  <r_epik_Charging_Adjusted_Penalty>  (177) 
1.53677

>  <i_epik_Tot_Q>  (177) 
0

>  <i_epik_Tot_abs_Q>  (177) 
0

>  <s_epik_Chemistry_Notes>  (177) 
This compound has an ester and may undergo hydrolysis at high or low pH. This compound contains an acetal/aminal-like group ( X-CH(R)-Y where X, Y are N, S, or O) that may be acid/base labile, releasing an aldehyde.

>  <s_lp_Force_Field>  (177) 
OPLS3e

>  <r_lp_Energy>  (177) 
76.6235

>  <b_lp_Chiralities_Consistent>  (177) 
1

>  <s_lp_Variant>  (177) 
75:0-8

>  <s_i_glide_gridfile>  (177) 
pfpi4k_grid

>  <i_i_glide_lignum>  (177) 
1

>  <i_i_glide_rotatable_bonds>  (177) 
11

>  <r_i_docking_score>  (177) 
-3.46999

>  <r_i_glide_ligand_efficiency>  (177) 
-0.0738296

>  <r_i_glide_ligand_efficiency_sa>  (177) 
-0.266438

>  <r_i_glide_ligand_efficiency_ln>  (177) 
-0.71544

>  <r_i_glide_gscore>  (177) 
-3.46999

>  <r_i_glide_lipo>  (177) 
-0.479443

>  <r_i_glide_hbond>  (177) 
-0.0324927

>  <r_i_glide_metal>  (177) 
-0

>  <r_i_glide_rewards>  (177) 
-1

>  <r_i_glide_evdw>  (177) 
-32.631

>  <r_i_glide_ecoul>  (177) 
-2.13372

>  <r_i_glide_erotb>  (177) 
0.0490561

>  <r_i_glide_esite>  (177) 
-0.0555046

>  <r_i_glide_emodel>  (177) 
-52.8061

>  <r_i_glide_energy>  (177) 
-34.7647

>  <r_i_glide_einternal>  (177) 
2.59603

>  <r_i_glide_intrahb_reward>  (177) 
-1

>  <i_i_glide_confnum>  (177) 
4

>  <i_i_glide_posenum>  (177) 
23

>  <r_i_glide_eff_state_penalty>  (177) 
0

>  <ligand_id>  (177) 
75

>  <original_smiles>  (177) 
COC12CC3(OC(C)=O)C(O)CC3C3OC3C3(O)CC(OC(=O)C4CC4)c4c(-c5cccs5)oc(O)c4C(O)(C(O)[S+]1[O-])C2C31CO1

>  <smiles>  (177) 
[H]OC1([H])S(=O)C2(OC([H])([H])[H])C([H])([H])C3(OC(=O)C([H])([H])[H])C([H])(O[H])C([H])([H])C3([H])C3([H])OC3([H])C3(O[H])C([H])([H])C([H])(OC(=O)C4([H])C([H])([H])C4([H])[H])C4=C(C(=O)OC4([H])c4sc([H])c([H])c4[H])C1(O[H])C2([H])C31OC1([H])[H]

$$$$
75:7:1
     RDKit          3D

 81 89  0  0  1  0  0  0  0  0999 V2000
    1.2677   -4.2081    5.3542 C   0  0  0  0  0  0  0  0  0  0  0  0
    2.1561   -4.2572    4.2514 O   0  0  0  0  0  0  0  0  0  0  0  0
    3.3808   -3.5261    4.2776 C   0  0  2  0  0  0  0  0  0  0  0  0
    4.1843   -4.0417    3.0213 C   0  0  0  0  0  0  0  0  0  0  0  0
    3.5414   -4.0328    1.5824 C   0  0  2  0  0  0  0  0  0  0  0  0
    2.2278   -4.6556    1.5344 O   0  0  0  0  0  0  0  0  0  0  0  0
    1.9966   -5.9434    1.8621 C   0  0  0  0  0  0  0  0  0  0  0  0
    0.5195   -6.2993    1.7953 C   0  0  0  0  0  0  0  0  0  0  0  0
    2.8289   -6.7576    2.2342 O   0  0  0  0  0  0  0  0  0  0  0  0
    4.4478   -4.5017    0.4145 C   0  0  1  0  0  0  0  0  0  0  0  0
    4.5429   -5.8611    0.0632 O   0  0  0  0  0  0  0  0  0  0  0  0
    3.6852   -3.6031   -0.5297 C   0  0  0  0  0  0  0  0  0  0  0  0
    3.3950   -2.7363    0.6923 C   0  0  2  0  0  0  0  0  0  0  0  0
    4.3084   -1.5094    0.7934 C   0  0  2  0  0  0  0  0  0  0  0  0
    5.0351   -1.2924    2.0019 O   0  0  0  0  0  0  0  0  0  0  0  0
    4.0374   -0.3281    1.6792 C   0  0  2  0  0  0  0  0  0  0  0  0
    2.9111   -0.0508    2.6839 C   0  0  2  0  0  0  0  0  0  0  0  0
    1.9277    0.5754    1.8866 O   0  0  0  0  0  0  0  0  0  0  0  0
    3.4393    1.0240    3.6834 C   0  0  0  0  0  0  0  0  0  0  0  0
    2.5233    1.6511    4.7789 C   0  0  1  0  0  0  0  0  0  0  0  0
    1.5511    2.4594    4.1222 O   0  0  0  0  0  0  0  0  0  0  0  0
    1.6711    3.7916    3.9170 C   0  0  0  0  0  0  0  0  0  0  0  0
    0.6693    4.5080    3.7739 O   0  0  0  0  0  0  0  0  0  0  0  0
    3.0798    4.3538    3.8700 C   0  0  0  0  0  0  0  0  0  0  0  0
    3.3661    5.5735    4.7166 C   0  0  0  0  0  0  0  0  0  0  0  0
    3.2729    5.7210    3.2308 C   0  0  0  0  0  0  0  0  0  0  0  0
    1.8480    0.7695    5.8538 C   0  0  0  0  0  0  0  0  0  0  0  0
    0.7426    1.3792    6.6914 C   0  0  1  0  0  0  0  0  0  0  0  0
   -0.5212    1.8122    6.0208 C   0  0  0  0  0  0  0  0  0  0  0  0
   -1.0071    1.4983    4.7890 C   0  0  0  0  0  0  0  0  0  0  0  0
   -2.1949    2.1919    4.4545 C   0  0  0  0  0  0  0  0  0  0  0  0
   -2.6778    2.9389    5.5049 C   0  0  0  0  0  0  0  0  0  0  0  0
   -1.6020    2.8931    6.8715 S   0  0  0  0  0  0  0  0  0  0  0  0
    0.3784    0.3296    7.5507 O   0  0  0  0  0  0  0  0  0  0  0  0
    1.0391   -0.7877    7.2757 C   0  0  0  0  0  0  0  0  0  0  0  0
    0.7187   -1.8650    7.7646 O   0  0  0  0  0  0  0  0  0  0  0  0
    2.0929   -0.4960    6.2675 C   0  0  0  0  0  0  0  0  0  0  0  0
    3.2844   -1.4378    5.8910 C   0  0  1  0  0  0  0  0  0  0  0  0
    4.4305   -0.6016    6.0268 O   0  0  0  0  0  0  0  0  0  0  0  0
    3.7771   -2.6115    6.8400 C   0  0  1  0  0  0  0  0  0  0  0  0
    2.9309   -3.1808    7.7955 O   0  0  0  0  0  0  0  0  0  0  0  0
    4.4781   -3.9167    5.7224 S   0  0  0  0  0  0  0  0  0  0  0  0
    5.8880   -3.4501    5.3609 O   0  0  0  0  0  0  0  0  0  0  0  0
    3.2607   -1.9724    4.3867 C   0  0  2  0  0  0  0  0  0  0  0  0
    2.2954   -1.3117    3.3561 C   0  0  2  0  0  0  0  0  0  0  0  0
    1.0438   -1.9717    2.7400 C   0  0  0  0  0  0  0  0  0  0  0  0
    0.9615   -1.1264    3.8666 O   0  0  0  0  0  0  0  0  0  0  0  0
    0.3422   -4.7141    5.0832 H   0  0  0  0  0  0  0  0  0  0  0  0
    1.0165   -3.1761    5.5724 H   0  0  0  0  0  0  0  0  0  0  0  0
    1.6395   -4.7032    6.2514 H   0  0  0  0  0  0  0  0  0  0  0  0
    5.1357   -3.5078    2.9914 H   0  0  0  0  0  0  0  0  0  0  0  0
    4.5062   -5.0678    3.2310 H   0  0  0  0  0  0  0  0  0  0  0  0
   -0.0170   -5.7072    2.5334 H   0  0  0  0  0  0  0  0  0  0  0  0
    0.3815   -7.3461    2.0575 H   0  0  0  0  0  0  0  0  0  0  0  0
    0.1129   -6.1536    0.7959 H   0  0  0  0  0  0  0  0  0  0  0  0
    5.4557   -4.1034    0.5571 H   0  0  0  0  0  0  0  0  0  0  0  0
    3.8172   -6.0378   -0.5250 H   0  0  0  0  0  0  0  0  0  0  0  0
    4.3101   -3.1501   -1.3050 H   0  0  0  0  0  0  0  0  0  0  0  0
    2.7721   -4.0357   -0.9446 H   0  0  0  0  0  0  0  0  0  0  0  0
    2.3446   -2.4457    0.6104 H   0  0  0  0  0  0  0  0  0  0  0  0
    4.8870   -1.2572   -0.0935 H   0  0  0  0  0  0  0  0  0  0  0  0
    4.4199    0.6165    1.2669 H   0  0  0  0  0  0  0  0  0  0  0  0
    1.6543   -0.0038    1.1790 H   0  0  0  0  0  0  0  0  0  0  0  0
    4.3813    0.6880    4.1140 H   0  0  0  0  0  0  0  0  0  0  0  0
    3.7431    1.8338    3.0663 H   0  0  0  0  0  0  0  0  0  0  0  0
    3.1434    2.3125    5.3804 H   0  0  0  0  0  0  0  0  0  0  0  0
    3.8954    3.6431    3.7682 H   0  0  0  0  0  0  0  0  0  0  0  0
    2.5587    5.9858    5.3516 H   0  0  0  0  0  0  0  0  0  0  0  0
    4.3399    5.5279    5.1946 H   0  0  0  0  0  0  0  0  0  0  0  0
    4.1779    5.8059    2.6334 H   0  0  0  0  0  0  0  0  0  0  0  0
    2.3951    6.2348    2.7970 H   0  0  0  0  0  0  0  0  0  0  0  0
   -0.5528    0.8252    4.0721 H   0  0  0  0  0  0  0  0  0  0  0  0
   -2.6747    2.1076    3.4935 H   0  0  0  0  0  0  0  0  0  0  0  0
   -3.5821    3.5079    5.5501 H   0  0  0  0  0  0  0  0  0  0  0  0
    1.1505    2.2097    7.2564 H   0  0  0  0  0  0  0  0  0  0  0  0
    4.6102   -0.4294    6.9503 H   0  0  0  0  0  0  0  0  0  0  0  0
    4.6077   -2.2865    7.4752 H   0  0  0  0  0  0  0  0  0  0  0  0
    2.0297   -2.9276    7.6002 H   0  0  0  0  0  0  0  0  0  0  0  0
    4.2684   -1.7051    4.0795 H   0  0  0  0  0  0  0  0  0  0  0  0
    0.6294   -1.5392    1.8270 H   0  0  0  0  0  0  0  0  0  0  0  0
    0.7166   -2.9845    2.9667 H   0  0  0  0  0  0  0  0  0  0  0  0
  1  2  1  0
  1 48  1  0
  1 49  1  0
  1 50  1  0
  3  2  1  1
 42  3  1  6
  3 44  1  0
  3  4  1  0
  4  5  1  0
  4 51  1  0
  4 52  1  0
  5 13  1  0
  5  6  1  1
  5 10  1  0
  6  7  1  0
  7  8  1  0
  7  9  2  0
  8 53  1  0
  8 54  1  0
  8 55  1  0
 10 11  1  0
 10 12  1  0
 10 56  1  1
 11 57  1  0
 12 13  1  0
 12 58  1  0
 12 59  1  0
 13 14  1  0
 13 60  1  6
 14 16  1  0
 14 15  1  0
 14 61  1  6
 15 16  1  0
 16 17  1  0
 16 62  1  6
 17 45  1  0
 17 18  1  6
 17 19  1  0
 18 63  1  0
 19 20  1  0
 19 64  1  0
 19 65  1  0
 20 21  1  0
 20 66  1  1
 20 27  1  0
 21 22  1  0
 22 23  2  0
 22 24  1  0
 24 26  1  0
 24 25  1  0
 24 67  1  0
 25 26  1  0
 25 68  1  0
 25 69  1  0
 26 70  1  0
 26 71  1  0
 27 37  2  0
 27 28  1  0
 28 34  1  0
 28 29  1  0
 28 75  1  1
 29 33  1  0
 29 30  2  0
 30 31  1  0
 30 72  1  0
 31 32  2  0
 31 73  1  0
 32 33  1  0
 32 74  1  0
 34 35  1  0
 35 37  1  0
 35 36  2  0
 37 38  1  0
 38 39  1  6
 38 40  1  0
 38 44  1  0
 39 76  1  0
 40 41  1  0
 40 42  1  0
 40 77  1  1
 41 78  1  0
 42 43  2  0
 44 45  1  0
 44 79  1  6
 45 47  1  1
 45 46  1  0
 46 47  1  0
 46 80  1  0
 46 81  1  0
M  END
>  <i_m_ct_stereo_status>  (178) 
1

>  <s_m_source_file>  (178) 
/var/tmp/pbs.5075288.sched01/tmpo2oug7hv/195455be7ie.sdf

>  <i_m_source_file_index>  (178) 
1

>  <i_lp_mmshare_version>  (178) 
48012

>  <i_f3d_flags>  (178) 
0

>  <s_epik_input>  (178) 
TzFbQ0gyXUMxMltDQF0zKFtPSF0pW0NAQEhdNFtDQEBIXShPNClbQ0BASF01W0NAXShbQ0BASF0oW09IXSlbQ0gyXTUpKE9DKD1PKVtDSDNdKVtDSDJdW0NAXTYoT1tDSDNdKVtDQEBIXTJbQ0BdKFtPSF0pKFtDQEBIXShbT0hdKVtTK102W08tXSljN2MoYyhvYzdbT0hdKS1jOFtjSF1bY0hdW2NIXXM4KVtDQEBIXShbQ0gyXTMpT0MoPU8pW0NIXTlbQ0gyXVtDSDJdOQ==

>  <s_epik_cmdline>  (178) 
J2VwaWtfcHl0aG9uJywgJy1waHQnLCAnMi4wJywgJy1waCcsICc3LjAnLCAnLXRuJywgJzgnLCAnLW1hJywgJzIwMCcsICctaW1hZScsICc8aW5maWxlLm1hZT4nLCAnLW9tYWUnLCAnPG91dGZpbGUubWFlPic=

>  <r_lp_tautomer_probability>  (178) 
0.999841

>  <r_epik_Ionization_Penalty>  (178) 
1.81277

>  <r_epik_Ionization_Penalty_Charging>  (178) 
0

>  <r_epik_Ionization_Penalty_Neutral>  (178) 
1.81277

>  <r_epik_State_Penalty>  (178) 
1.53677

>  <r_epik_Charging_Adjusted_Penalty>  (178) 
1.53677

>  <i_epik_Tot_Q>  (178) 
0

>  <i_epik_Tot_abs_Q>  (178) 
0

>  <s_epik_Chemistry_Notes>  (178) 
This compound has an ester and may undergo hydrolysis at high or low pH. This compound contains an acetal/aminal-like group ( X-CH(R)-Y where X, Y are N, S, or O) that may be acid/base labile, releasing an aldehyde.

>  <s_lp_Force_Field>  (178) 
OPLS3e

>  <r_lp_Energy>  (178) 
76.6235

>  <b_lp_Chiralities_Consistent>  (178) 
1

>  <s_lp_Variant>  (178) 
75:0-8

>  <s_i_glide_gridfile>  (178) 
pfpi4k_grid

>  <i_i_glide_lignum>  (178) 
1

>  <i_i_glide_rotatable_bonds>  (178) 
11

>  <r_i_docking_score>  (178) 
-3.20807

>  <r_i_glide_ligand_efficiency>  (178) 
-0.0682568

>  <r_i_glide_ligand_efficiency_sa>  (178) 
-0.246327

>  <r_i_glide_ligand_efficiency_ln>  (178) 
-0.661438

>  <r_i_glide_gscore>  (178) 
-3.20807

>  <r_i_glide_lipo>  (178) 
-0.280028

>  <r_i_glide_hbond>  (178) 
-0.00134993

>  <r_i_glide_metal>  (178) 
-0

>  <r_i_glide_rewards>  (178) 
-0.502144

>  <r_i_glide_evdw>  (178) 
-31.5465

>  <r_i_glide_ecoul>  (178) 
-5.45755

>  <r_i_glide_erotb>  (178) 
0.0490561

>  <r_i_glide_esite>  (178) 
-0.0776471

>  <r_i_glide_emodel>  (178) 
-45.7256

>  <r_i_glide_energy>  (178) 
-37.004

>  <r_i_glide_einternal>  (178) 
8.90011

>  <r_i_glide_intrahb_reward>  (178) 
-0.5

>  <i_i_glide_confnum>  (178) 
5

>  <i_i_glide_posenum>  (178) 
25

>  <r_i_glide_eff_state_penalty>  (178) 
0

>  <ligand_id>  (178) 
75

>  <original_smiles>  (178) 
COC12CC3(OC(C)=O)C(O)CC3C3OC3C3(O)CC(OC(=O)C4CC4)c4c(-c5cccs5)oc(O)c4C(O)(C(O)[S+]1[O-])C2C31CO1

>  <smiles>  (178) 
[H]OC1([H])S(=O)C2(OC([H])([H])[H])C([H])([H])C3(OC(=O)C([H])([H])[H])C([H])(O[H])C([H])([H])C3([H])C3([H])OC3([H])C3(O[H])C([H])([H])C([H])(OC(=O)C4([H])C([H])([H])C4([H])[H])C4=C(C(=O)OC4([H])c4sc([H])c([H])c4[H])C1(O[H])C2([H])C31OC1([H])[H]

$$$$
75:7:2
     RDKit          3D

 81 89  0  0  1  0  0  0  0  0999 V2000
    0.8928   -4.7342    4.3730 C   0  0  0  0  0  0  0  0  0  0  0  0
    2.1107   -4.6610    3.6621 O   0  0  0  0  0  0  0  0  0  0  0  0
    3.2611   -4.0616    4.2677 C   0  0  2  0  0  0  0  0  0  0  0  0
    4.4618   -4.4826    3.3383 C   0  0  0  0  0  0  0  0  0  0  0  0
    4.4564   -4.1771    1.7867 C   0  0  2  0  0  0  0  0  0  0  0  0
    3.2217   -4.6104    1.1605 O   0  0  0  0  0  0  0  0  0  0  0  0
    2.8152   -5.9138    1.0710 C   0  0  0  0  0  0  0  0  0  0  0  0
    1.3979   -6.0598    0.5395 C   0  0  0  0  0  0  0  0  0  0  0  0
    3.4504   -6.9047    1.4067 O   0  0  0  0  0  0  0  0  0  0  0  0
    5.7227   -4.5767    0.9925 C   0  0  1  0  0  0  0  0  0  0  0  0
    5.8930   -5.8797    0.4888 O   0  0  0  0  0  0  0  0  0  0  0  0
    5.4456   -3.4690    0.0015 C   0  0  0  0  0  0  0  0  0  0  0  0
    4.7336   -2.7549    1.1614 C   0  0  2  0  0  0  0  0  0  0  0  0
    5.5739   -1.6486    1.8163 C   0  0  2  0  0  0  0  0  0  0  0  0
    5.7486   -1.7319    3.2230 O   0  0  0  0  0  0  0  0  0  0  0  0
    5.0628   -0.5794    2.7566 C   0  0  2  0  0  0  0  0  0  0  0  0
    3.6546   -0.3252    3.3003 C   0  0  2  0  0  0  0  0  0  0  0  0
    3.1188    0.4752    2.2733 O   0  0  0  0  0  0  0  0  0  0  0  0
    3.7911    0.5352    4.5963 C   0  0  0  0  0  0  0  0  0  0  0  0
    2.5396    1.0951    5.3135 C   0  0  1  0  0  0  0  0  0  0  0  0
    1.9940    2.0450    4.3980 O   0  0  0  0  0  0  0  0  0  0  0  0
    2.0544    3.3746    4.6088 C   0  0  0  0  0  0  0  0  0  0  0  0
    2.5560    3.9175    5.5927 O   0  0  0  0  0  0  0  0  0  0  0  0
    1.4438    4.1619    3.4716 C   0  0  0  0  0  0  0  0  0  0  0  0
    2.3231    5.1806    2.7890 C   0  0  0  0  0  0  0  0  0  0  0  0
    1.1744    5.6417    3.6432 C   0  0  0  0  0  0  0  0  0  0  0  0
    1.4593    0.1269    5.8699 C   0  0  0  0  0  0  0  0  0  0  0  0
    0.1477    0.7633    6.3133 C   0  0  1  0  0  0  0  0  0  0  0  0
   -0.7250    1.4421    5.2850 C   0  0  0  0  0  0  0  0  0  0  0  0
   -0.8469    1.1957    3.9496 C   0  0  0  0  0  0  0  0  0  0  0  0
   -1.7447    2.0901    3.2940 C   0  0  0  0  0  0  0  0  0  0  0  0
   -2.3351    2.9643    4.1505 C   0  0  0  0  0  0  0  0  0  0  0  0
   -1.7790    2.7398    5.7853 S   0  0  0  0  0  0  0  0  0  0  0  0
   -0.5856   -0.3315    6.7589 O   0  0  0  0  0  0  0  0  0  0  0  0
    0.0609   -1.4993    6.5867 C   0  0  0  0  0  0  0  0  0  0  0  0
   -0.5259   -2.5665    6.7084 O   0  0  0  0  0  0  0  0  0  0  0  0
    1.4489   -1.2005    6.1184 C   0  0  0  0  0  0  0  0  0  0  0  0
    2.6394   -2.2353    6.0671 C   0  0  1  0  0  0  0  0  0  0  0  0
    3.6861   -1.5633    6.7665 O   0  0  0  0  0  0  0  0  0  0  0  0
    2.6690   -3.5835    6.9058 C   0  0  1  0  0  0  0  0  0  0  0  0
    1.4691   -4.1635    7.3442 O   0  0  0  0  0  0  0  0  0  0  0  0
    3.6904   -4.7849    5.9266 S   0  0  0  0  0  0  0  0  0  0  0  0
    5.1574   -4.4585    6.2159 O   0  0  0  0  0  0  0  0  0  0  0  0
    3.1918   -2.5365    4.6001 C   0  0  2  0  0  0  0  0  0  0  0  0
    2.7568   -1.5940    3.4369 C   0  0  2  0  0  0  0  0  0  0  0  0
    1.8408   -2.0283    2.2824 C   0  0  0  0  0  0  0  0  0  0  0  0
    1.3445   -1.3133    3.3903 O   0  0  0  0  0  0  0  0  0  0  0  0
    0.1212   -5.0726    3.6857 H   0  0  0  0  0  0  0  0  0  0  0  0
    0.6018   -3.7546    4.7322 H   0  0  0  0  0  0  0  0  0  0  0  0
    0.9081   -5.4526    5.1969 H   0  0  0  0  0  0  0  0  0  0  0  0
    5.3755   -4.0710    3.7600 H   0  0  0  0  0  0  0  0  0  0  0  0
    4.6012   -5.5626    3.4518 H   0  0  0  0  0  0  0  0  0  0  0  0
    0.7186   -5.6229    1.2638 H   0  0  0  0  0  0  0  0  0  0  0  0
    1.1370   -7.1170    0.4727 H   0  0  0  0  0  0  0  0  0  0  0  0
    1.2861   -5.5997   -0.4427 H   0  0  0  0  0  0  0  0  0  0  0  0
    6.5935   -4.3227    1.5928 H   0  0  0  0  0  0  0  0  0  0  0  0
    5.1084   -6.0759   -0.0030 H   0  0  0  0  0  0  0  0  0  0  0  0
    6.3569   -2.9979   -0.3616 H   0  0  0  0  0  0  0  0  0  0  0  0
    4.7580   -3.7559   -0.8044 H   0  0  0  0  0  0  0  0  0  0  0  0
    3.8367   -2.3435    0.7372 H   0  0  0  0  0  0  0  0  0  0  0  0
    6.5030   -1.4146    1.3069 H   0  0  0  0  0  0  0  0  0  0  0  0
    5.6675    0.3156    2.7434 H   0  0  0  0  0  0  0  0  0  0  0  0
    2.2724    0.7960    2.5559 H   0  0  0  0  0  0  0  0  0  0  0  0
    4.4607    0.0469    5.2939 H   0  0  0  0  0  0  0  0  0  0  0  0
    4.3819    1.4149    4.3245 H   0  0  0  0  0  0  0  0  0  0  0  0
    2.8978    1.6298    6.1914 H   0  0  0  0  0  0  0  0  0  0  0  0
    0.7722    3.6140    2.8164 H   0  0  0  0  0  0  0  0  0  0  0  0
    3.3323    5.3521    3.1704 H   0  0  0  0  0  0  0  0  0  0  0  0
    2.2140    5.2895    1.7119 H   0  0  0  0  0  0  0  0  0  0  0  0
    0.3184    6.0575    3.1111 H   0  0  0  0  0  0  0  0  0  0  0  0
    1.4109    6.1276    4.5875 H   0  0  0  0  0  0  0  0  0  0  0  0
   -0.3084    0.4437    3.3923 H   0  0  0  0  0  0  0  0  0  0  0  0
   -1.9261    2.0430    2.2283 H   0  0  0  0  0  0  0  0  0  0  0  0
   -3.0659    3.7336    3.9091 H   0  0  0  0  0  0  0  0  0  0  0  0
    0.3468    1.4312    7.1454 H   0  0  0  0  0  0  0  0  0  0  0  0
    3.5110   -1.6073    7.7043 H   0  0  0  0  0  0  0  0  0  0  0  0
    3.1874   -3.4680    7.8612 H   0  0  0  0  0  0  0  0  0  0  0  0
    1.5615   -5.1107    7.3161 H   0  0  0  0  0  0  0  0  0  0  0  0
    4.2510   -2.3397    4.7594 H   0  0  0  0  0  0  0  0  0  0  0  0
    1.8245   -1.4788    1.3522 H   0  0  0  0  0  0  0  0  0  0  0  0
    1.4016   -3.0054    2.2186 H   0  0  0  0  0  0  0  0  0  0  0  0
  1  2  1  0
  1 48  1  0
  1 49  1  0
  1 50  1  0
  3  2  1  6
 42  3  1  6
  3 44  1  0
  3  4  1  0
  4  5  1  0
  4 51  1  0
  4 52  1  0
  5 13  1  0
  5  6  1  6
  5 10  1  0
  6  7  1  0
  7  8  1  0
  7  9  2  0
  8 53  1  0
  8 54  1  0
  8 55  1  0
 10 11  1  0
 10 12  1  0
 10 56  1  1
 11 57  1  0
 12 13  1  0
 12 58  1  0
 12 59  1  0
 13 14  1  0
 13 60  1  6
 14 16  1  0
 14 15  1  0
 14 61  1  6
 15 16  1  0
 16 17  1  0
 16 62  1  6
 17 45  1  0
 17 18  1  6
 17 19  1  0
 18 63  1  0
 19 20  1  0
 19 64  1  0
 19 65  1  0
 20 21  1  0
 20 66  1  1
 20 27  1  0
 21 22  1  0
 22 23  2  0
 22 24  1  0
 24 26  1  0
 24 25  1  0
 24 67  1  0
 25 26  1  0
 25 68  1  0
 25 69  1  0
 26 70  1  0
 26 71  1  0
 27 37  2  0
 27 28  1  0
 28 34  1  0
 28 29  1  0
 28 75  1  1
 29 33  1  0
 29 30  2  0
 30 31  1  0
 30 72  1  0
 31 32  2  0
 31 73  1  0
 32 33  1  0
 32 74  1  0
 34 35  1  0
 35 37  1  0
 35 36  2  0
 37 38  1  0
 38 39  1  1
 38 40  1  0
 38 44  1  0
 39 76  1  0
 40 41  1  0
 40 42  1  0
 40 77  1  1
 41 78  1  0
 42 43  2  0
 44 45  1  0
 44 79  1  1
 45 47  1  1
 45 46  1  0
 46 47  1  0
 46 80  1  0
 46 81  1  0
M  END
>  <i_m_ct_stereo_status>  (179) 
1

>  <s_m_source_file>  (179) 
/var/tmp/pbs.5075288.sched01/tmpo2oug7hv/195455be7ie.sdf

>  <i_m_source_file_index>  (179) 
1

>  <i_lp_mmshare_version>  (179) 
48012

>  <i_f3d_flags>  (179) 
0

>  <s_epik_input>  (179) 
TzFbQ0gyXUMxMltDQF0zKFtPSF0pW0NAQEhdNFtDQEBIXShPNClbQ0BASF01W0NAXShbQ0BASF0oW09IXSlbQ0gyXTUpKE9DKD1PKVtDSDNdKVtDSDJdW0NAXTYoT1tDSDNdKVtDQEBIXTJbQ0BdKFtPSF0pKFtDQEBIXShbT0hdKVtTK102W08tXSljN2MoYyhvYzdbT0hdKS1jOFtjSF1bY0hdW2NIXXM4KVtDQEBIXShbQ0gyXTMpT0MoPU8pW0NIXTlbQ0gyXVtDSDJdOQ==

>  <s_epik_cmdline>  (179) 
J2VwaWtfcHl0aG9uJywgJy1waHQnLCAnMi4wJywgJy1waCcsICc3LjAnLCAnLXRuJywgJzgnLCAnLW1hJywgJzIwMCcsICctaW1hZScsICc8aW5maWxlLm1hZT4nLCAnLW9tYWUnLCAnPG91dGZpbGUubWFlPic=

>  <r_lp_tautomer_probability>  (179) 
0.999841

>  <r_epik_Ionization_Penalty>  (179) 
1.81277

>  <r_epik_Ionization_Penalty_Charging>  (179) 
0

>  <r_epik_Ionization_Penalty_Neutral>  (179) 
1.81277

>  <r_epik_State_Penalty>  (179) 
1.53677

>  <r_epik_Charging_Adjusted_Penalty>  (179) 
1.53677

>  <i_epik_Tot_Q>  (179) 
0

>  <i_epik_Tot_abs_Q>  (179) 
0

>  <s_epik_Chemistry_Notes>  (179) 
This compound has an ester and may undergo hydrolysis at high or low pH. This compound contains an acetal/aminal-like group ( X-CH(R)-Y where X, Y are N, S, or O) that may be acid/base labile, releasing an aldehyde.

>  <s_lp_Force_Field>  (179) 
OPLS3e

>  <r_lp_Energy>  (179) 
76.6235

>  <b_lp_Chiralities_Consistent>  (179) 
1

>  <s_lp_Variant>  (179) 
75:0-8

>  <s_i_glide_gridfile>  (179) 
pfpi4k_grid

>  <i_i_glide_lignum>  (179) 
1

>  <i_i_glide_rotatable_bonds>  (179) 
11

>  <r_i_docking_score>  (179) 
-2.92605

>  <r_i_glide_ligand_efficiency>  (179) 
-0.0622563

>  <r_i_glide_ligand_efficiency_sa>  (179) 
-0.224672

>  <r_i_glide_ligand_efficiency_ln>  (179) 
-0.603291

>  <r_i_glide_gscore>  (179) 
-2.92605

>  <r_i_glide_lipo>  (179) 
-0.487457

>  <r_i_glide_hbond>  (179) 
-0.033867

>  <r_i_glide_metal>  (179) 
-0

>  <r_i_glide_rewards>  (179) 
-0.5

>  <r_i_glide_evdw>  (179) 
-32.5546

>  <r_i_glide_ecoul>  (179) 
-1.80902

>  <r_i_glide_erotb>  (179) 
0.0490561

>  <r_i_glide_esite>  (179) 
-0.054698

>  <r_i_glide_emodel>  (179) 
-45.9766

>  <r_i_glide_energy>  (179) 
-34.3636

>  <r_i_glide_einternal>  (179) 
2.31817

>  <r_i_glide_intrahb_reward>  (179) 
-0.5

>  <i_i_glide_confnum>  (179) 
4

>  <i_i_glide_posenum>  (179) 
11

>  <r_i_glide_eff_state_penalty>  (179) 
0

>  <ligand_id>  (179) 
75

>  <original_smiles>  (179) 
COC12CC3(OC(C)=O)C(O)CC3C3OC3C3(O)CC(OC(=O)C4CC4)c4c(-c5cccs5)oc(O)c4C(O)(C(O)[S+]1[O-])C2C31CO1

>  <smiles>  (179) 
[H]OC1([H])S(=O)C2(OC([H])([H])[H])C([H])([H])C3(OC(=O)C([H])([H])[H])C([H])(O[H])C([H])([H])C3([H])C3([H])OC3([H])C3(O[H])C([H])([H])C([H])(OC(=O)C4([H])C([H])([H])C4([H])[H])C4=C(C(=O)OC4([H])c4sc([H])c([H])c4[H])C1(O[H])C2([H])C31OC1([H])[H]

$$$$
75:8:0
     RDKit          3D

 80 88  0  0  1  0  0  0  0  0999 V2000
    0.8775   -4.8618    3.4982 C   0  0  0  0  0  0  0  0  0  0  0  0
    1.7552   -3.7959    3.1585 O   0  0  0  0  0  0  0  0  0  0  0  0
    2.9283   -3.6646    3.9436 C   0  0  2  0  0  0  0  0  0  0  0  0
    4.0117   -4.6467    3.3760 C   0  0  0  0  0  0  0  0  0  0  0  0
    4.0123   -5.1711    1.8983 C   0  0  2  0  0  0  0  0  0  0  0  0
    2.8768   -6.0323    1.6299 O   0  0  0  0  0  0  0  0  0  0  0  0
    2.7061   -7.2632    2.1736 C   0  0  0  0  0  0  0  0  0  0  0  0
    1.4007   -7.9085    1.7422 C   0  0  0  0  0  0  0  0  0  0  0  0
    3.4997   -7.8324    2.9241 O   0  0  0  0  0  0  0  0  0  0  0  0
    5.3956   -5.8501    1.5955 C   0  0  1  0  0  0  0  0  0  0  0  0
    5.4291   -7.0737    0.8817 O   0  0  0  0  0  0  0  0  0  0  0  0
    5.8062   -4.6147    0.7948 C   0  0  0  0  0  0  0  0  0  0  0  0
    4.3137   -4.3869    0.5594 C   0  0  2  0  0  0  0  0  0  0  0  0
    3.7644   -3.1070   -0.1091 C   0  0  2  0  0  0  0  0  0  0  0  0
    4.7556   -2.0591   -0.0122 O   0  0  0  0  0  0  0  0  0  0  0  0
    3.4531   -1.6548    0.2807 C   0  0  2  0  0  0  0  0  0  0  0  0
    3.0725   -1.1274    1.6591 C   0  0  2  0  0  0  0  0  0  0  0  0
    1.7757   -1.6666    1.6766 O   0  0  0  0  0  0  0  0  0  0  0  0
    2.7698    0.3982    1.6752 C   0  0  0  0  0  0  0  0  0  0  0  0
    2.3202    1.0268    3.0332 C   0  0  1  0  0  0  0  0  0  0  0  0
    1.8974    2.3574    2.7173 O   0  0  0  0  0  0  0  0  0  0  0  0
    2.3499    3.4208    3.4264 C   0  0  0  0  0  0  0  0  0  0  0  0
    3.0052    3.3438    4.4603 O   0  0  0  0  0  0  0  0  0  0  0  0
    1.8868    4.7489    2.8713 C   0  0  0  0  0  0  0  0  0  0  0  0
    2.0059    6.0003    3.7350 C   0  0  0  0  0  0  0  0  0  0  0  0
    0.6641    5.3736    3.5373 C   0  0  0  0  0  0  0  0  0  0  0  0
    1.2216    0.2242    3.7559 C   0  0  0  0  0  0  0  0  0  0  0  0
   -0.2408    0.3690    3.4371 C   0  0  2  0  0  0  0  0  0  0  0  0
   -0.9157    1.6076    3.9053 C   0  0  0  0  0  0  0  0  0  0  0  0
   -1.2652    2.6988    3.1451 C   0  0  0  0  0  0  0  0  0  0  0  0
   -1.9436    3.7053    3.8696 C   0  0  0  0  0  0  0  0  0  0  0  0
   -2.0196    3.4284    5.2179 C   0  0  0  0  0  0  0  0  0  0  0  0
   -1.3318    1.8651    5.5801 S   0  0  0  0  0  0  0  0  0  0  0  0
   -0.8446   -0.7035    4.1396 O   0  0  0  0  0  0  0  0  0  0  0  0
    0.0333   -1.3912    4.8481 C   0  0  0  0  0  0  0  0  0  0  0  0
   -0.2940   -2.3646    5.5412 O   0  0  0  0  0  0  0  0  0  0  0  0
    1.3988   -0.8216    4.6263 C   0  0  0  0  0  0  0  0  0  0  0  0
    2.7150   -1.3976    5.1734 C   0  0  1  0  0  0  0  0  0  0  0  0
    3.4791   -0.3809    5.6075 O   0  0  0  0  0  0  0  0  0  0  0  0
    2.6823   -2.3413    6.4056 C   0  0  1  0  0  0  0  0  0  0  0  0
    1.7788   -2.0488    7.4509 O   0  0  0  0  0  0  0  0  0  0  0  0
    2.6289   -4.0807    5.7376 S   0  0  0  0  0  0  0  0  0  0  0  0
    3.8596   -4.8191    6.2823 O   0  0  0  0  0  0  0  0  0  0  0  0
    3.4994   -2.2056    4.0888 C   0  0  2  0  0  0  0  0  0  0  0  0
    4.0712   -1.5327    2.8004 C   0  0  1  0  0  0  0  0  0  0  0  0
    5.6084   -1.5688    2.5710 C   0  0  0  0  0  0  0  0  0  0  0  0
    4.9764   -0.4425    3.1131 O   0  0  0  0  0  0  0  0  0  0  0  0
    0.3414   -5.1031    2.5868 H   0  0  0  0  0  0  0  0  0  0  0  0
    0.1463   -4.5534    4.2546 H   0  0  0  0  0  0  0  0  0  0  0  0
    1.4233   -5.7410    3.8210 H   0  0  0  0  0  0  0  0  0  0  0  0
    4.9859   -4.2206    3.6111 H   0  0  0  0  0  0  0  0  0  0  0  0
    4.0214   -5.5297    4.0167 H   0  0  0  0  0  0  0  0  0  0  0  0
    0.5912   -7.1981    1.8787 H   0  0  0  0  0  0  0  0  0  0  0  0
    1.1911   -8.7814    2.3557 H   0  0  0  0  0  0  0  0  0  0  0  0
    1.4102   -8.2240    0.6958 H   0  0  0  0  0  0  0  0  0  0  0  0
    6.0329   -5.9544    2.4726 H   0  0  0  0  0  0  0  0  0  0  0  0
    5.1705   -7.7352    1.5144 H   0  0  0  0  0  0  0  0  0  0  0  0
    6.2799   -3.8519    1.4090 H   0  0  0  0  0  0  0  0  0  0  0  0
    6.3674   -4.8266   -0.1200 H   0  0  0  0  0  0  0  0  0  0  0  0
    4.0594   -5.1217   -0.2094 H   0  0  0  0  0  0  0  0  0  0  0  0
    3.3896   -3.3336   -1.1016 H   0  0  0  0  0  0  0  0  0  0  0  0
    3.0205   -1.0487   -0.5158 H   0  0  0  0  0  0  0  0  0  0  0  0
    1.3485   -1.3892    0.8661 H   0  0  0  0  0  0  0  0  0  0  0  0
    3.6513    0.9296    1.3393 H   0  0  0  0  0  0  0  0  0  0  0  0
    2.0008    0.5994    0.9289 H   0  0  0  0  0  0  0  0  0  0  0  0
    3.1980    1.0918    3.6775 H   0  0  0  0  0  0  0  0  0  0  0  0
    2.0026    4.8809    1.7746 H   0  0  0  0  0  0  0  0  0  0  0  0
    2.3442    5.9322    4.7622 H   0  0  0  0  0  0  0  0  0  0  0  0
    2.1540    6.9777    3.2687 H   0  0  0  0  0  0  0  0  0  0  0  0
   -0.0057    5.8618    2.8471 H   0  0  0  0  0  0  0  0  0  0  0  0
    0.1917    4.9435    4.4193 H   0  0  0  0  0  0  0  0  0  0  0  0
   -1.0865    2.7871    2.0843 H   0  0  0  0  0  0  0  0  0  0  0  0
   -2.3238    4.5940    3.3843 H   0  0  0  0  0  0  0  0  0  0  0  0
   -2.4134    4.0286    6.0115 H   0  0  0  0  0  0  0  0  0  0  0  0
   -0.3538    0.2320    2.3743 H   0  0  0  0  0  0  0  0  0  0  0  0
    3.6474   -2.3335    6.9010 H   0  0  0  0  0  0  0  0  0  0  0  0
    2.2438   -1.4708    8.0373 H   0  0  0  0  0  0  0  0  0  0  0  0
    4.4185   -2.4088    4.6279 H   0  0  0  0  0  0  0  0  0  0  0  0
    6.2029   -2.1273    3.2888 H   0  0  0  0  0  0  0  0  0  0  0  0
    6.1275   -1.3128    1.6477 H   0  0  0  0  0  0  0  0  0  0  0  0
  1  2  1  0
  1 48  1  0
  1 49  1  0
  1 50  1  0
  3  2  1  6
 42  3  1  6
  3 44  1  0
  3  4  1  0
  4  5  1  0
  4 51  1  0
  4 52  1  0
  5 13  1  0
  5  6  1  6
  5 10  1  0
  6  7  1  0
  7  8  1  0
  7  9  2  0
  8 53  1  0
  8 54  1  0
  8 55  1  0
 10 11  1  0
 10 12  1  0
 10 56  1  1
 11 57  1  0
 12 13  1  0
 12 58  1  0
 12 59  1  0
 13 14  1  0
 13 60  1  6
 14 16  1  0
 14 15  1  0
 14 61  1  6
 15 16  1  0
 16 17  1  0
 16 62  1  6
 17 45  1  0
 17 18  1  1
 17 19  1  0
 18 63  1  0
 19 20  1  0
 19 64  1  0
 19 65  1  0
 20 21  1  0
 20 66  1  1
 20 27  1  0
 21 22  1  0
 22 23  2  0
 22 24  1  0
 24 26  1  0
 24 25  1  0
 24 67  1  0
 25 26  1  0
 25 68  1  0
 25 69  1  0
 26 70  1  0
 26 71  1  0
 27 37  2  0
 27 28  1  0
 28 34  1  0
 28 29  1  0
 28 75  1  6
 29 33  1  0
 29 30  2  0
 30 31  1  0
 30 72  1  0
 31 32  2  0
 31 73  1  0
 32 33  1  0
 32 74  1  0
 34 35  1  0
 35 37  1  0
 35 36  2  0
 37 38  1  0
 38 39  1  1
 38 40  1  0
 38 44  1  0
 40 41  1  0
 40 42  1  0
 40 76  1  1
 41 77  1  0
 42 43  2  0
 44 45  1  0
 44 78  1  1
 45 47  1  1
 45 46  1  0
 46 47  1  0
 46 79  1  0
 46 80  1  0
M  CHG  1  39  -1
M  END
>  <i_m_ct_stereo_status>  (180) 
1

>  <s_m_source_file>  (180) 
/var/tmp/pbs.5075288.sched01/tmpo2oug7hv/195455be7ie.sdf

>  <i_m_source_file_index>  (180) 
2

>  <i_lp_mmshare_version>  (180) 
48012

>  <i_f3d_flags>  (180) 
0

>  <s_epik_input>  (180) 
TzFbQ0gyXUMxMltDQF0zKFtPSF0pW0NAQEhdNFtDQEBIXShPNClbQ0BASF01W0NAXShbQ0BASF0oW09IXSlbQ0gyXTUpKE9DKD1PKVtDSDNdKVtDSDJdW0NAXTYoT1tDSDNdKVtDQEBIXTJbQ0BdKFtPSF0pKFtDQEBIXShbT0hdKVtTK102W08tXSljN2MoYyhvYzdbT0hdKS1jOFtjSF1bY0hdW2NIXXM4KVtDQEBIXShbQ0gyXTMpT0MoPU8pW0NIXTlbQ0gyXVtDSDJdOQ==

>  <s_epik_cmdline>  (180) 
J2VwaWtfcHl0aG9uJywgJy1waHQnLCAnMi4wJywgJy1waCcsICc3LjAnLCAnLXRuJywgJzgnLCAnLW1hJywgJzIwMCcsICctaW1hZScsICc8aW5maWxlLm1hZT4nLCAnLW9tYWUnLCAnPG91dGZpbGUubWFlPic=

>  <r_epik_Ionization_Penalty>  (180) 
0.799191

>  <r_epik_Ionization_Penalty_Charging>  (180) 
0.792041

>  <r_epik_Ionization_Penalty_Neutral>  (180) 
0.00714968

>  <r_epik_State_Penalty>  (180) 
1.95546

>  <r_epik_Charging_Adjusted_Penalty>  (180) 
2.7475

>  <i_epik_Tot_Q>  (180) 
-1

>  <i_epik_Tot_abs_Q>  (180) 
1

>  <s_epik_Chemistry_Notes>  (180) 
This compound has an ester and may undergo hydrolysis at high or low pH. This compound contains an acetal/aminal-like group ( X-CH(R)-Y where X, Y are N, S, or O) that may be acid/base labile, releasing an aldehyde.

>  <s_lp_Force_Field>  (180) 
OPLS3e

>  <r_lp_Energy>  (180) 
102.925

>  <b_lp_Chiralities_Consistent>  (180) 
1

>  <s_lp_Variant>  (180) 
75:0-9

>  <s_i_glide_gridfile>  (180) 
pfpi4k_grid

>  <i_i_glide_lignum>  (180) 
2

>  <i_i_glide_rotatable_bonds>  (180) 
10

>  <r_i_docking_score>  (180) 
-3.11648

>  <r_i_glide_ligand_efficiency>  (180) 
-0.0663081

>  <r_i_glide_ligand_efficiency_sa>  (180) 
-0.239294

>  <r_i_glide_ligand_efficiency_ln>  (180) 
-0.642554

>  <r_i_glide_gscore>  (180) 
-3.11648

>  <r_i_glide_lipo>  (180) 
-0.293901

>  <r_i_glide_hbond>  (180) 
0

>  <r_i_glide_metal>  (180) 
-0

>  <r_i_glide_rewards>  (180) 
-0.5

>  <r_i_glide_evdw>  (180) 
-37.9264

>  <r_i_glide_ecoul>  (180) 
-2.85019

>  <r_i_glide_erotb>  (180) 
0.0500867

>  <r_i_glide_esite>  (180) 
-0.0488178

>  <r_i_glide_emodel>  (180) 
-52.5562

>  <r_i_glide_energy>  (180) 
-40.7766

>  <r_i_glide_einternal>  (180) 
2.41883

>  <r_i_glide_intrahb_reward>  (180) 
-0.5

>  <i_i_glide_confnum>  (180) 
1

>  <i_i_glide_posenum>  (180) 
40

>  <r_i_glide_eff_state_penalty>  (180) 
0

>  <ligand_id>  (180) 
75

>  <original_smiles>  (180) 
COC12CC3(OC(C)=O)C(O)CC3C3OC3C3(O)CC(OC(=O)C4CC4)c4c(-c5cccs5)oc(O)c4C(O)(C(O)[S+]1[O-])C2C31CO1

>  <smiles>  (180) 
[H]OC1([H])S(=O)C2(OC([H])([H])[H])C([H])([H])C3(OC(=O)C([H])([H])[H])C([H])(O[H])C([H])([H])C3([H])C3([H])OC3([H])C3(O[H])C([H])([H])C([H])(OC(=O)C4([H])C([H])([H])C4([H])[H])C4=C(C(=O)OC4([H])c4sc([H])c([H])c4[H])C1([O-])C2([H])C31OC1([H])[H]

$$$$
75:8:1
     RDKit          3D

 80 88  0  0  1  0  0  0  0  0999 V2000
    0.1411   -5.5630    4.7456 C   0  0  0  0  0  0  0  0  0  0  0  0
    1.0875   -4.5181    4.5816 O   0  0  0  0  0  0  0  0  0  0  0  0
    2.0930   -4.3820    5.5810 C   0  0  2  0  0  0  0  0  0  0  0  0
    3.1745   -5.4953    5.3214 C   0  0  0  0  0  0  0  0  0  0  0  0
    3.4692   -6.1628    3.9137 C   0  0  2  0  0  0  0  0  0  0  0  0
    2.3594   -7.0484    3.5841 O   0  0  0  0  0  0  0  0  0  0  0  0
    2.2536   -7.8949    2.5049 C   0  0  0  0  0  0  0  0  0  0  0  0
    0.9202   -8.6276    2.4492 C   0  0  0  0  0  0  0  0  0  0  0  0
    3.1055   -8.1240    1.6438 O   0  0  0  0  0  0  0  0  0  0  0  0
    4.8528   -6.9057    4.0373 C   0  0  1  0  0  0  0  0  0  0  0  0
    5.0459   -8.2068    3.5097 O   0  0  0  0  0  0  0  0  0  0  0  0
    5.5185   -5.7721    3.2489 C   0  0  0  0  0  0  0  0  0  0  0  0
    4.1438   -5.4949    2.6477 C   0  0  2  0  0  0  0  0  0  0  0  0
    3.8255   -4.2577    1.7663 C   0  0  2  0  0  0  0  0  0  0  0  0
    4.8446   -3.2432    1.9177 O   0  0  0  0  0  0  0  0  0  0  0  0
    3.5274   -2.7624    1.9362 C   0  0  2  0  0  0  0  0  0  0  0  0
    2.9203   -2.0996    3.1677 C   0  0  2  0  0  0  0  0  0  0  0  0
    1.6085   -2.5924    2.9924 O   0  0  0  0  0  0  0  0  0  0  0  0
    2.7387   -0.5653    2.9611 C   0  0  0  0  0  0  0  0  0  0  0  0
    2.0654    0.2304    4.1187 C   0  0  1  0  0  0  0  0  0  0  0  0
    1.7970    1.5368    3.6123 O   0  0  0  0  0  0  0  0  0  0  0  0
    2.4714    2.6174    4.0533 C   0  0  0  0  0  0  0  0  0  0  0  0
    3.3350    2.6083    4.9353 O   0  0  0  0  0  0  0  0  0  0  0  0
    2.0396    3.8937    3.3604 C   0  0  0  0  0  0  0  0  0  0  0  0
    2.9928    5.0754    3.3823 C   0  0  0  0  0  0  0  0  0  0  0  0
    1.7571    5.1037    4.2318 C   0  0  0  0  0  0  0  0  0  0  0  0
    0.7981   -0.4376    4.6721 C   0  0  0  0  0  0  0  0  0  0  0  0
   -0.5418   -0.2104    4.0330 C   0  0  2  0  0  0  0  0  0  0  0  0
   -1.1471    1.1469    4.2425 C   0  0  0  0  0  0  0  0  0  0  0  0
   -1.5675    1.7228    5.4116 C   0  0  0  0  0  0  0  0  0  0  0  0
   -2.1293    3.0159    5.2306 C   0  0  0  0  0  0  0  0  0  0  0  0
   -2.1249    3.4069    3.9190 C   0  0  0  0  0  0  0  0  0  0  0  0
   -1.4257    2.2000    2.8775 S   0  0  0  0  0  0  0  0  0  0  0  0
   -1.3823   -1.1263    4.6993 O   0  0  0  0  0  0  0  0  0  0  0  0
   -0.7293   -1.8217    5.6400 C   0  0  0  0  0  0  0  0  0  0  0  0
   -1.2688   -2.6865    6.3267 O   0  0  0  0  0  0  0  0  0  0  0  0
    0.6818   -1.3816    5.6345 C   0  0  0  0  0  0  0  0  0  0  0  0
    1.8138   -1.9652    6.5299 C   0  0  1  0  0  0  0  0  0  0  0  0
    2.5270   -0.9659    7.0078 O   0  0  0  0  0  0  0  0  0  0  0  0
    1.4337   -2.7797    7.8081 C   0  0  1  0  0  0  0  0  0  0  0  0
    0.3579   -2.2906    8.5924 O   0  0  0  0  0  0  0  0  0  0  0  0
    1.3719   -4.5695    7.3046 S   0  0  0  0  0  0  0  0  0  0  0  0
    2.3840   -5.3188    8.1838 O   0  0  0  0  0  0  0  0  0  0  0  0
    2.7338   -2.9545    5.7102 C   0  0  2  0  0  0  0  0  0  0  0  0
    3.6120   -2.4263    4.5453 C   0  0  1  0  0  0  0  0  0  0  0  0
    5.1386   -2.6050    4.6571 C   0  0  0  0  0  0  0  0  0  0  0  0
    4.5195   -1.3629    4.9211 O   0  0  0  0  0  0  0  0  0  0  0  0
   -0.2448   -5.7830    3.7532 H   0  0  0  0  0  0  0  0  0  0  0  0
   -0.6891   -5.2760    5.3927 H   0  0  0  0  0  0  0  0  0  0  0  0
    0.5817   -6.4735    5.1490 H   0  0  0  0  0  0  0  0  0  0  0  0
    4.1059   -5.1047    5.7250 H   0  0  0  0  0  0  0  0  0  0  0  0
    2.9713   -6.3223    6.0014 H   0  0  0  0  0  0  0  0  0  0  0  0
    0.6542   -9.0673    3.4093 H   0  0  0  0  0  0  0  0  0  0  0  0
    0.9768   -9.4350    1.7214 H   0  0  0  0  0  0  0  0  0  0  0  0
    0.1216   -7.9626    2.1296 H   0  0  0  0  0  0  0  0  0  0  0  0
    5.2110   -6.9127    5.0664 H   0  0  0  0  0  0  0  0  0  0  0  0
    4.5712   -8.2668    2.6838 H   0  0  0  0  0  0  0  0  0  0  0  0
    5.9322   -4.9969    3.8920 H   0  0  0  0  0  0  0  0  0  0  0  0
    6.2353   -6.1194    2.5017 H   0  0  0  0  0  0  0  0  0  0  0  0
    4.1457   -6.2660    1.8853 H   0  0  0  0  0  0  0  0  0  0  0  0
    3.6146   -4.5629    0.7493 H   0  0  0  0  0  0  0  0  0  0  0  0
    3.2429   -2.2504    1.0162 H   0  0  0  0  0  0  0  0  0  0  0  0
    1.2989   -2.3270    2.1380 H   0  0  0  0  0  0  0  0  0  0  0  0
    3.7192   -0.1366    2.7755 H   0  0  0  0  0  0  0  0  0  0  0  0
    2.1839   -0.4038    2.0372 H   0  0  0  0  0  0  0  0  0  0  0  0
    2.7824    0.3006    4.9342 H   0  0  0  0  0  0  0  0  0  0  0  0
    1.4098    3.7778    2.4787 H   0  0  0  0  0  0  0  0  0  0  0  0
    3.9435    4.9813    3.9056 H   0  0  0  0  0  0  0  0  0  0  0  0
    3.0052    5.7142    2.5027 H   0  0  0  0  0  0  0  0  0  0  0  0
    0.9615    5.7713    3.9110 H   0  0  0  0  0  0  0  0  0  0  0  0
    1.8911    5.0160    5.3104 H   0  0  0  0  0  0  0  0  0  0  0  0
   -1.5044    1.2556    6.3808 H   0  0  0  0  0  0  0  0  0  0  0  0
   -2.5059    3.6005    6.0526 H   0  0  0  0  0  0  0  0  0  0  0  0
   -2.4784    4.3268    3.4742 H   0  0  0  0  0  0  0  0  0  0  0  0
   -0.4797   -0.4465    2.9722 H   0  0  0  0  0  0  0  0  0  0  0  0
    2.2749   -2.7632    8.5084 H   0  0  0  0  0  0  0  0  0  0  0  0
    0.7446   -1.7772    9.2915 H   0  0  0  0  0  0  0  0  0  0  0  0
    3.4977   -3.1378    6.4626 H   0  0  0  0  0  0  0  0  0  0  0  0
    5.5495   -3.0731    5.5495 H   0  0  0  0  0  0  0  0  0  0  0  0
    5.8300   -2.5241    3.8221 H   0  0  0  0  0  0  0  0  0  0  0  0
  1  2  1  0
  1 48  1  0
  1 49  1  0
  1 50  1  0
  3  2  1  6
 42  3  1  6
  3 44  1  0
  3  4  1  0
  4  5  1  0
  4 51  1  0
  4 52  1  0
  5 13  1  0
  5  6  1  6
  5 10  1  0
  6  7  1  0
  7  8  1  0
  7  9  2  0
  8 53  1  0
  8 54  1  0
  8 55  1  0
 10 11  1  0
 10 12  1  0
 10 56  1  1
 11 57  1  0
 12 13  1  0
 12 58  1  0
 12 59  1  0
 13 14  1  0
 13 60  1  6
 14 16  1  0
 14 15  1  0
 14 61  1  6
 15 16  1  0
 16 17  1  0
 16 62  1  6
 17 45  1  0
 17 18  1  1
 17 19  1  0
 18 63  1  0
 19 20  1  0
 19 64  1  0
 19 65  1  0
 20 21  1  0
 20 66  1  1
 20 27  1  0
 21 22  1  0
 22 23  2  0
 22 24  1  0
 24 26  1  0
 24 25  1  0
 24 67  1  0
 25 26  1  0
 25 68  1  0
 25 69  1  0
 26 70  1  0
 26 71  1  0
 27 37  2  0
 27 28  1  0
 28 34  1  0
 28 29  1  0
 28 75  1  6
 29 33  1  0
 29 30  2  0
 30 31  1  0
 30 72  1  0
 31 32  2  0
 31 73  1  0
 32 33  1  0
 32 74  1  0
 34 35  1  0
 35 37  1  0
 35 36  2  0
 37 38  1  0
 38 39  1  1
 38 40  1  0
 38 44  1  0
 40 41  1  0
 40 42  1  0
 40 76  1  1
 41 77  1  0
 42 43  2  0
 44 45  1  0
 44 78  1  1
 45 47  1  1
 45 46  1  0
 46 47  1  0
 46 79  1  0
 46 80  1  0
M  CHG  1  39  -1
M  END
>  <i_m_ct_stereo_status>  (181) 
1

>  <s_m_source_file>  (181) 
/var/tmp/pbs.5075288.sched01/tmpo2oug7hv/195455be7ie.sdf

>  <i_m_source_file_index>  (181) 
2

>  <i_lp_mmshare_version>  (181) 
48012

>  <i_f3d_flags>  (181) 
0

>  <s_epik_input>  (181) 
TzFbQ0gyXUMxMltDQF0zKFtPSF0pW0NAQEhdNFtDQEBIXShPNClbQ0BASF01W0NAXShbQ0BASF0oW09IXSlbQ0gyXTUpKE9DKD1PKVtDSDNdKVtDSDJdW0NAXTYoT1tDSDNdKVtDQEBIXTJbQ0BdKFtPSF0pKFtDQEBIXShbT0hdKVtTK102W08tXSljN2MoYyhvYzdbT0hdKS1jOFtjSF1bY0hdW2NIXXM4KVtDQEBIXShbQ0gyXTMpT0MoPU8pW0NIXTlbQ0gyXVtDSDJdOQ==

>  <s_epik_cmdline>  (181) 
J2VwaWtfcHl0aG9uJywgJy1waHQnLCAnMi4wJywgJy1waCcsICc3LjAnLCAnLXRuJywgJzgnLCAnLW1hJywgJzIwMCcsICctaW1hZScsICc8aW5maWxlLm1hZT4nLCAnLW9tYWUnLCAnPG91dGZpbGUubWFlPic=

>  <r_epik_Ionization_Penalty>  (181) 
0.799191

>  <r_epik_Ionization_Penalty_Charging>  (181) 
0.792041

>  <r_epik_Ionization_Penalty_Neutral>  (181) 
0.00714968

>  <r_epik_State_Penalty>  (181) 
1.95546

>  <r_epik_Charging_Adjusted_Penalty>  (181) 
2.7475

>  <i_epik_Tot_Q>  (181) 
-1

>  <i_epik_Tot_abs_Q>  (181) 
1

>  <s_epik_Chemistry_Notes>  (181) 
This compound has an ester and may undergo hydrolysis at high or low pH. This compound contains an acetal/aminal-like group ( X-CH(R)-Y where X, Y are N, S, or O) that may be acid/base labile, releasing an aldehyde.

>  <s_lp_Force_Field>  (181) 
OPLS3e

>  <r_lp_Energy>  (181) 
102.925

>  <b_lp_Chiralities_Consistent>  (181) 
1

>  <s_lp_Variant>  (181) 
75:0-9

>  <s_i_glide_gridfile>  (181) 
pfpi4k_grid

>  <i_i_glide_lignum>  (181) 
2

>  <i_i_glide_rotatable_bonds>  (181) 
10

>  <r_i_docking_score>  (181) 
-2.82107

>  <r_i_glide_ligand_efficiency>  (181) 
-0.0600227

>  <r_i_glide_ligand_efficiency_sa>  (181) 
-0.216611

>  <r_i_glide_ligand_efficiency_ln>  (181) 
-0.581646

>  <r_i_glide_gscore>  (181) 
-2.82107

>  <r_i_glide_lipo>  (181) 
-0.144691

>  <r_i_glide_hbond>  (181) 
0

>  <r_i_glide_metal>  (181) 
-0

>  <r_i_glide_rewards>  (181) 
-0.5

>  <r_i_glide_evdw>  (181) 
-34.5772

>  <r_i_glide_ecoul>  (181) 
-2.91083

>  <r_i_glide_erotb>  (181) 
0.0500867

>  <r_i_glide_esite>  (181) 
-0.0609766

>  <r_i_glide_emodel>  (181) 
-39.3141

>  <r_i_glide_energy>  (181) 
-37.4881

>  <r_i_glide_einternal>  (181) 
20.4082

>  <r_i_glide_intrahb_reward>  (181) 
-0.5

>  <i_i_glide_confnum>  (181) 
1

>  <i_i_glide_posenum>  (181) 
1

>  <r_i_glide_eff_state_penalty>  (181) 
0

>  <ligand_id>  (181) 
75

>  <original_smiles>  (181) 
COC12CC3(OC(C)=O)C(O)CC3C3OC3C3(O)CC(OC(=O)C4CC4)c4c(-c5cccs5)oc(O)c4C(O)(C(O)[S+]1[O-])C2C31CO1

>  <smiles>  (181) 
[H]OC1([H])S(=O)C2(OC([H])([H])[H])C([H])([H])C3(OC(=O)C([H])([H])[H])C([H])(O[H])C([H])([H])C3([H])C3([H])OC3([H])C3(O[H])C([H])([H])C([H])(OC(=O)C4([H])C([H])([H])C4([H])[H])C4=C(C(=O)OC4([H])c4sc([H])c([H])c4[H])C1([O-])C2([H])C31OC1([H])[H]

$$$$
75:8:2
     RDKit          3D

 80 88  0  0  1  0  0  0  0  0999 V2000
    2.3500   -0.9895    1.8374 C   0  0  0  0  0  0  0  0  0  0  0  0
    2.7528   -1.6521    3.0328 O   0  0  0  0  0  0  0  0  0  0  0  0
    4.1584   -1.7673    3.2448 C   0  0  2  0  0  0  0  0  0  0  0  0
    4.6340   -0.4065    3.8614 C   0  0  0  0  0  0  0  0  0  0  0  0
    3.6891    0.5871    4.6756 C   0  0  2  0  0  0  0  0  0  0  0  0
    2.7700    1.2216    3.7341 O   0  0  0  0  0  0  0  0  0  0  0  0
    1.8686    2.2320    3.9785 C   0  0  0  0  0  0  0  0  0  0  0  0
    0.9587    2.5207    2.7845 C   0  0  0  0  0  0  0  0  0  0  0  0
    1.7559    2.8902    5.0155 O   0  0  0  0  0  0  0  0  0  0  0  0
    4.6407    1.5787    5.4454 C   0  0  1  0  0  0  0  0  0  0  0  0
    4.3699    2.9694    5.4900 O   0  0  0  0  0  0  0  0  0  0  0  0
    4.3749    0.8213    6.7448 C   0  0  0  0  0  0  0  0  0  0  0  0
    3.0639    0.3703    6.1121 C   0  0  2  0  0  0  0  0  0  0  0  0
    2.1446   -0.7088    6.7404 C   0  0  2  0  0  0  0  0  0  0  0  0
    2.8511   -1.4747    7.7589 O   0  0  0  0  0  0  0  0  0  0  0  0
    2.0715   -2.2392    6.8906 C   0  0  2  0  0  0  0  0  0  0  0  0
    2.6708   -3.2454    5.9299 C   0  0  2  0  0  0  0  0  0  0  0  0
    1.7385   -3.0123    4.8887 O   0  0  0  0  0  0  0  0  0  0  0  0
    2.3622   -4.7002    6.3870 C   0  0  0  0  0  0  0  0  0  0  0  0
    2.8785   -5.8607    5.4796 C   0  0  1  0  0  0  0  0  0  0  0  0
    2.2779   -7.0735    5.9259 O   0  0  0  0  0  0  0  0  0  0  0  0
    2.7953   -7.7728    6.9564 C   0  0  0  0  0  0  0  0  0  0  0  0
    3.7769   -7.4393    7.6213 O   0  0  0  0  0  0  0  0  0  0  0  0
    2.0466   -9.0536    7.2403 C   0  0  0  0  0  0  0  0  0  0  0  0
    0.5353   -9.0431    7.1701 C   0  0  0  0  0  0  0  0  0  0  0  0
    1.2147   -9.1126    8.5082 C   0  0  0  0  0  0  0  0  0  0  0  0
    2.5779   -5.6308    3.9931 C   0  0  0  0  0  0  0  0  0  0  0  0
    1.2639   -6.0425    3.3984 C   0  0  2  0  0  0  0  0  0  0  0  0
    1.0290   -7.5124    3.2444 C   0  0  0  0  0  0  0  0  0  0  0  0
    1.9187   -8.4779    2.8511 C   0  0  0  0  0  0  0  0  0  0  0  0
    1.3435   -9.7802    2.7923 C   0  0  0  0  0  0  0  0  0  0  0  0
    0.0215   -9.7917    3.1336 C   0  0  0  0  0  0  0  0  0  0  0  0
   -0.5646   -8.1933    3.5086 S   0  0  0  0  0  0  0  0  0  0  0  0
    1.3391   -5.5321    2.0845 O   0  0  0  0  0  0  0  0  0  0  0  0
    2.4895   -4.9014    1.8431 C   0  0  0  0  0  0  0  0  0  0  0  0
    2.7346   -4.3298    0.7825 O   0  0  0  0  0  0  0  0  0  0  0  0
    3.3084   -4.9631    3.0684 C   0  0  0  0  0  0  0  0  0  0  0  0
    4.7055   -4.3224    3.2480 C   0  0  1  0  0  0  0  0  0  0  0  0
    5.4824   -5.2028    3.8413 O   0  0  0  0  0  0  0  0  0  0  0  0
    5.5222   -3.9004    1.9858 C   0  0  1  0  0  0  0  0  0  0  0  0
    5.5187   -4.7758    0.8741 O   0  0  0  0  0  0  0  0  0  0  0  0
    5.1005   -2.1167    1.6599 S   0  0  0  0  0  0  0  0  0  0  0  0
    6.4308   -1.3480    1.6976 O   0  0  0  0  0  0  0  0  0  0  0  0
    4.6147   -3.0001    4.1035 C   0  0  2  0  0  0  0  0  0  0  0  0
    4.1959   -3.0498    5.5960 C   0  0  1  0  0  0  0  0  0  0  0  0
    5.2110   -2.5457    6.6470 C   0  0  0  0  0  0  0  0  0  0  0  0
    5.0139   -3.9264    6.4076 O   0  0  0  0  0  0  0  0  0  0  0  0
    1.3242   -0.6628    1.9835 H   0  0  0  0  0  0  0  0  0  0  0  0
    2.3813   -1.6301    0.9536 H   0  0  0  0  0  0  0  0  0  0  0  0
    2.9574   -0.1093    1.6346 H   0  0  0  0  0  0  0  0  0  0  0  0
    5.5074   -0.6430    4.4620 H   0  0  0  0  0  0  0  0  0  0  0  0
    5.0752    0.1893    3.0597 H   0  0  0  0  0  0  0  0  0  0  0  0
    1.5174    2.6597    1.8487 H   0  0  0  0  0  0  0  0  0  0  0  0
    0.4169    3.4514    2.9733 H   0  0  0  0  0  0  0  0  0  0  0  0
    0.2063    1.7321    2.6564 H   0  0  0  0  0  0  0  0  0  0  0  0
    5.6787    1.4376    5.1585 H   0  0  0  0  0  0  0  0  0  0  0  0
    3.4229    3.1016    5.4470 H   0  0  0  0  0  0  0  0  0  0  0  0
    5.1359    0.0565    6.9362 H   0  0  0  0  0  0  0  0  0  0  0  0
    4.2094    1.4879    7.5929 H   0  0  0  0  0  0  0  0  0  0  0  0
    2.4971    1.2538    6.3154 H   0  0  0  0  0  0  0  0  0  0  0  0
    1.2177   -0.2676    7.0501 H   0  0  0  0  0  0  0  0  0  0  0  0
    1.1415   -2.5974    7.3402 H   0  0  0  0  0  0  0  0  0  0  0  0
    2.0278   -2.2487    4.3881 H   0  0  0  0  0  0  0  0  0  0  0  0
    2.7826   -4.8168    7.3818 H   0  0  0  0  0  0  0  0  0  0  0  0
    1.2835   -4.7942    6.5215 H   0  0  0  0  0  0  0  0  0  0  0  0
    3.9566   -5.9646    5.5955 H   0  0  0  0  0  0  0  0  0  0  0  0
    2.5656   -9.9781    6.9869 H   0  0  0  0  0  0  0  0  0  0  0  0
    0.0369   -8.1133    6.9044 H   0  0  0  0  0  0  0  0  0  0  0  0
    0.0768   -9.9544    6.7926 H   0  0  0  0  0  0  0  0  0  0  0  0
    1.1674  -10.0703    9.0209 H   0  0  0  0  0  0  0  0  0  0  0  0
    1.1610   -8.2343    9.1497 H   0  0  0  0  0  0  0  0  0  0  0  0
    2.9548   -8.2970    2.6041 H   0  0  0  0  0  0  0  0  0  0  0  0
    1.9152  -10.6495    2.5234 H   0  0  0  0  0  0  0  0  0  0  0  0
   -0.6391  -10.6492    3.2053 H   0  0  0  0  0  0  0  0  0  0  0  0
    0.4516   -5.5668    3.9490 H   0  0  0  0  0  0  0  0  0  0  0  0
    6.5831   -3.8728    2.2350 H   0  0  0  0  0  0  0  0  0  0  0  0
    6.1621   -5.4458    1.0578 H   0  0  0  0  0  0  0  0  0  0  0  0
    5.6748   -2.8025    4.2041 H   0  0  0  0  0  0  0  0  0  0  0  0
    6.1869   -2.1959    6.3073 H   0  0  0  0  0  0  0  0  0  0  0  0
    4.9846   -2.3091    7.6919 H   0  0  0  0  0  0  0  0  0  0  0  0
  1  2  1  0
  1 48  1  0
  1 49  1  0
  1 50  1  0
  3  2  1  6
 42  3  1  1
  3 44  1  0
  3  4  1  0
  4  5  1  0
  4 51  1  0
  4 52  1  0
  5 13  1  0
  5  6  1  6
  5 10  1  0
  6  7  1  0
  7  8  1  0
  7  9  2  0
  8 53  1  0
  8 54  1  0
  8 55  1  0
 10 11  1  0
 10 12  1  0
 10 56  1  6
 11 57  1  0
 12 13  1  0
 12 58  1  0
 12 59  1  0
 13 14  1  0
 13 60  1  1
 14 16  1  0
 14 15  1  0
 14 61  1  1
 15 16  1  0
 16 17  1  0
 16 62  1  1
 17 45  1  0
 17 18  1  6
 17 19  1  0
 18 63  1  0
 19 20  1  0
 19 64  1  0
 19 65  1  0
 20 21  1  0
 20 66  1  6
 20 27  1  0
 21 22  1  0
 22 23  2  0
 22 24  1  0
 24 26  1  0
 24 25  1  0
 24 67  1  0
 25 26  1  0
 25 68  1  0
 25 69  1  0
 26 70  1  0
 26 71  1  0
 27 37  2  0
 27 28  1  0
 28 34  1  0
 28 29  1  0
 28 75  1  1
 29 33  1  0
 29 30  2  0
 30 31  1  0
 30 72  1  0
 31 32  2  0
 31 73  1  0
 32 33  1  0
 32 74  1  0
 34 35  1  0
 35 37  1  0
 35 36  2  0
 37 38  1  0
 38 39  1  1
 38 40  1  0
 38 44  1  0
 40 41  1  0
 40 42  1  0
 40 76  1  1
 41 77  1  0
 42 43  2  0
 44 45  1  0
 44 78  1  1
 45 47  1  1
 45 46  1  0
 46 47  1  0
 46 79  1  0
 46 80  1  0
M  CHG  1  39  -1
M  END
>  <i_m_ct_stereo_status>  (182) 
1

>  <s_m_source_file>  (182) 
/var/tmp/pbs.5075288.sched01/tmpo2oug7hv/195455be7ie.sdf

>  <i_m_source_file_index>  (182) 
2

>  <i_lp_mmshare_version>  (182) 
48012

>  <i_f3d_flags>  (182) 
0

>  <s_epik_input>  (182) 
TzFbQ0gyXUMxMltDQF0zKFtPSF0pW0NAQEhdNFtDQEBIXShPNClbQ0BASF01W0NAXShbQ0BASF0oW09IXSlbQ0gyXTUpKE9DKD1PKVtDSDNdKVtDSDJdW0NAXTYoT1tDSDNdKVtDQEBIXTJbQ0BdKFtPSF0pKFtDQEBIXShbT0hdKVtTK102W08tXSljN2MoYyhvYzdbT0hdKS1jOFtjSF1bY0hdW2NIXXM4KVtDQEBIXShbQ0gyXTMpT0MoPU8pW0NIXTlbQ0gyXVtDSDJdOQ==

>  <s_epik_cmdline>  (182) 
J2VwaWtfcHl0aG9uJywgJy1waHQnLCAnMi4wJywgJy1waCcsICc3LjAnLCAnLXRuJywgJzgnLCAnLW1hJywgJzIwMCcsICctaW1hZScsICc8aW5maWxlLm1hZT4nLCAnLW9tYWUnLCAnPG91dGZpbGUubWFlPic=

>  <r_epik_Ionization_Penalty>  (182) 
0.799191

>  <r_epik_Ionization_Penalty_Charging>  (182) 
0.792041

>  <r_epik_Ionization_Penalty_Neutral>  (182) 
0.00714968

>  <r_epik_State_Penalty>  (182) 
1.95546

>  <r_epik_Charging_Adjusted_Penalty>  (182) 
2.7475

>  <i_epik_Tot_Q>  (182) 
-1

>  <i_epik_Tot_abs_Q>  (182) 
1

>  <s_epik_Chemistry_Notes>  (182) 
This compound has an ester and may undergo hydrolysis at high or low pH. This compound contains an acetal/aminal-like group ( X-CH(R)-Y where X, Y are N, S, or O) that may be acid/base labile, releasing an aldehyde.

>  <s_lp_Force_Field>  (182) 
OPLS3e

>  <r_lp_Energy>  (182) 
102.925

>  <b_lp_Chiralities_Consistent>  (182) 
1

>  <s_lp_Variant>  (182) 
75:0-9

>  <s_i_glide_gridfile>  (182) 
pfpi4k_grid

>  <i_i_glide_lignum>  (182) 
2

>  <i_i_glide_rotatable_bonds>  (182) 
10

>  <r_i_docking_score>  (182) 
-2.80392

>  <r_i_glide_ligand_efficiency>  (182) 
-0.0596578

>  <r_i_glide_ligand_efficiency_sa>  (182) 
-0.215295

>  <r_i_glide_ligand_efficiency_ln>  (182) 
-0.57811

>  <r_i_glide_gscore>  (182) 
-2.80392

>  <r_i_glide_lipo>  (182) 
-0.235793

>  <r_i_glide_hbond>  (182) 
-0.0629815

>  <r_i_glide_metal>  (182) 
-0

>  <r_i_glide_rewards>  (182) 
-1.07803

>  <r_i_glide_evdw>  (182) 
-31.6804

>  <r_i_glide_ecoul>  (182) 
0.937553

>  <r_i_glide_erotb>  (182) 
0.0500867

>  <r_i_glide_esite>  (182) 
-0.0338181

>  <r_i_glide_emodel>  (182) 
-37.4831

>  <r_i_glide_energy>  (182) 
-30.7428

>  <r_i_glide_einternal>  (182) 
20.2169

>  <r_i_glide_intrahb_reward>  (182) 
-1

>  <i_i_glide_confnum>  (182) 
1

>  <i_i_glide_posenum>  (182) 
20

>  <r_i_glide_eff_state_penalty>  (182) 
0

>  <ligand_id>  (182) 
75

>  <original_smiles>  (182) 
COC12CC3(OC(C)=O)C(O)CC3C3OC3C3(O)CC(OC(=O)C4CC4)c4c(-c5cccs5)oc(O)c4C(O)(C(O)[S+]1[O-])C2C31CO1

>  <smiles>  (182) 
[H]OC1([H])S(=O)C2(OC([H])([H])[H])C([H])([H])C3(OC(=O)C([H])([H])[H])C([H])(O[H])C([H])([H])C3([H])C3([H])OC3([H])C3(O[H])C([H])([H])C([H])(OC(=O)C4([H])C([H])([H])C4([H])[H])C4=C(C(=O)OC4([H])c4sc([H])c([H])c4[H])C1([O-])C2([H])C31OC1([H])[H]

$$$$
75:9:0
     RDKit          3D

 80 88  0  0  1  0  0  0  0  0999 V2000
    3.0685    2.4179    7.0304 C   0  0  0  0  0  0  0  0  0  0  0  0
    2.1801    1.5232    6.3825 O   0  0  0  0  0  0  0  0  0  0  0  0
    0.8083    1.5325    6.7883 C   0  0  2  0  0  0  0  0  0  0  0  0
    0.0145    2.6909    6.0606 C   0  0  0  0  0  0  0  0  0  0  0  0
    0.4009    3.3280    4.6603 C   0  0  2  0  0  0  0  0  0  0  0  0
    1.7904    3.7024    4.5668 O   0  0  0  0  0  0  0  0  0  0  0  0
    2.3492    4.7567    5.2133 C   0  0  0  0  0  0  0  0  0  0  0  0
    3.8535    4.8612    4.9617 C   0  0  0  0  0  0  0  0  0  0  0  0
    1.7794    5.5152    6.0007 O   0  0  0  0  0  0  0  0  0  0  0  0
   -0.6022    4.5076    4.3405 C   0  0  1  0  0  0  0  0  0  0  0  0
   -0.1693    5.7244    3.7606 O   0  0  0  0  0  0  0  0  0  0  0  0
   -1.3453    3.5973    3.3782 C   0  0  0  0  0  0  0  0  0  0  0  0
   -0.0229    2.8568    3.2114 C   0  0  2  0  0  0  0  0  0  0  0  0
   -0.0286    1.5368    2.4318 C   0  0  2  0  0  0  0  0  0  0  0  0
   -1.1691    0.7669    2.7861 O   0  0  0  0  0  0  0  0  0  0  0  0
    0.0396    0.0362    2.8092 C   0  0  2  0  0  0  0  0  0  0  0  0
    0.5319   -0.5221    4.1390 C   0  0  2  0  0  0  0  0  0  0  0  0
    1.7400    0.1840    4.2314 O   0  0  0  0  0  0  0  0  0  0  0  0
    0.9992   -1.9914    3.9506 C   0  0  0  0  0  0  0  0  0  0  0  0
    1.3557   -2.8127    5.2219 C   0  0  1  0  0  0  0  0  0  0  0  0
    1.8656   -4.0748    4.7861 O   0  0  0  0  0  0  0  0  0  0  0  0
    1.0840   -5.1801    4.7266 C   0  0  0  0  0  0  0  0  0  0  0  0
   -0.1002   -5.2354    5.0572 O   0  0  0  0  0  0  0  0  0  0  0  0
    1.8316   -6.3870    4.1860 C   0  0  0  0  0  0  0  0  0  0  0  0
    1.0672   -7.3572    3.2973 C   0  0  0  0  0  0  0  0  0  0  0  0
    1.4215   -7.7622    4.6961 C   0  0  0  0  0  0  0  0  0  0  0  0
    2.3323   -2.1410    6.1852 C   0  0  0  0  0  0  0  0  0  0  0  0
    3.8144   -2.4272    6.0982 C   0  0  1  0  0  0  0  0  0  0  0  0
    4.4887   -1.9374    4.8420 C   0  0  0  0  0  0  0  0  0  0  0  0
    4.7288   -2.6536    3.7015 C   0  0  0  0  0  0  0  0  0  0  0  0
    5.4067   -1.9135    2.6861 C   0  0  0  0  0  0  0  0  0  0  0  0
    5.6819   -0.6323    3.0704 C   0  0  0  0  0  0  0  0  0  0  0  0
    5.1130   -0.3078    4.6850 S   0  0  0  0  0  0  0  0  0  0  0  0
    4.3390   -1.7285    7.2044 O   0  0  0  0  0  0  0  0  0  0  0  0
    3.3888   -1.0839    7.8943 C   0  0  0  0  0  0  0  0  0  0  0  0
    3.6397   -0.4109    8.8895 O   0  0  0  0  0  0  0  0  0  0  0  0
    2.0823   -1.3522    7.2551 C   0  0  0  0  0  0  0  0  0  0  0  0
    0.6734   -0.8575    7.7657 C   0  0  1  0  0  0  0  0  0  0  0  0
   -0.1127   -1.8570    7.9536 O   0  0  0  0  0  0  0  0  0  0  0  0
    0.5778   -0.0051    9.0976 C   0  0  1  0  0  0  0  0  0  0  0  0
    1.3175   -0.4260   10.2203 O   0  0  0  0  0  0  0  0  0  0  0  0
    0.6923    1.7948    8.6441 S   0  0  0  0  0  0  0  0  0  0  0  0
   -0.6516    2.4534    8.9541 O   0  0  0  0  0  0  0  0  0  0  0  0
    0.0801    0.1532    6.7064 C   0  0  2  0  0  0  0  0  0  0  0  0
   -0.4687   -0.3656    5.3364 C   0  0  1  0  0  0  0  0  0  0  0  0
   -1.9895   -0.2975    5.0888 C   0  0  0  0  0  0  0  0  0  0  0  0
   -1.3661   -1.4934    5.4725 O   0  0  0  0  0  0  0  0  0  0  0  0
    3.9207    2.5176    6.3662 H   0  0  0  0  0  0  0  0  0  0  0  0
    3.4569    2.0373    7.9796 H   0  0  0  0  0  0  0  0  0  0  0  0
    2.5989    3.3816    7.1651 H   0  0  0  0  0  0  0  0  0  0  0  0
   -1.0337    2.4016    6.0296 H   0  0  0  0  0  0  0  0  0  0  0  0
   -0.0068    3.5283    6.7601 H   0  0  0  0  0  0  0  0  0  0  0  0
    4.2599    3.8762    4.7514 H   0  0  0  0  0  0  0  0  0  0  0  0
    4.3422    5.2461    5.8549 H   0  0  0  0  0  0  0  0  0  0  0  0
    4.0962    5.5178    4.1235 H   0  0  0  0  0  0  0  0  0  0  0  0
   -1.2172    4.7490    5.2095 H   0  0  0  0  0  0  0  0  0  0  0  0
    0.2291    5.5256    2.9198 H   0  0  0  0  0  0  0  0  0  0  0  0
   -2.1276    3.0056    3.8577 H   0  0  0  0  0  0  0  0  0  0  0  0
   -1.7050    4.0925    2.4757 H   0  0  0  0  0  0  0  0  0  0  0  0
    0.6313    3.4685    2.5796 H   0  0  0  0  0  0  0  0  0  0  0  0
    0.0896    1.7233    1.3638 H   0  0  0  0  0  0  0  0  0  0  0  0
    0.1950   -0.6256    1.9525 H   0  0  0  0  0  0  0  0  0  0  0  0
    1.5483    1.1105    4.3128 H   0  0  0  0  0  0  0  0  0  0  0  0
    0.2027   -2.5293    3.4384 H   0  0  0  0  0  0  0  0  0  0  0  0
    1.8441   -2.0040    3.2603 H   0  0  0  0  0  0  0  0  0  0  0  0
    0.4397   -2.9943    5.7819 H   0  0  0  0  0  0  0  0  0  0  0  0
    2.8914   -6.2393    3.9551 H   0  0  0  0  0  0  0  0  0  0  0  0
    0.0148   -7.1639    3.0857 H   0  0  0  0  0  0  0  0  0  0  0  0
    1.6194   -7.8421    2.4946 H   0  0  0  0  0  0  0  0  0  0  0  0
    2.2113   -8.5029    4.8113 H   0  0  0  0  0  0  0  0  0  0  0  0
    0.6096   -7.8301    5.4215 H   0  0  0  0  0  0  0  0  0  0  0  0
    4.4390   -3.6836    3.5527 H   0  0  0  0  0  0  0  0  0  0  0  0
    5.6616   -2.3398    1.7270 H   0  0  0  0  0  0  0  0  0  0  0  0
    6.1876    0.1416    2.5086 H   0  0  0  0  0  0  0  0  0  0  0  0
    3.9891   -3.4937    6.2252 H   0  0  0  0  0  0  0  0  0  0  0  0
   -0.4510   -0.0509    9.4657 H   0  0  0  0  0  0  0  0  0  0  0  0
    2.1440   -0.7563    9.8955 H   0  0  0  0  0  0  0  0  0  0  0  0
   -0.8717    0.3910    7.1856 H   0  0  0  0  0  0  0  0  0  0  0  0
   -2.5868    0.1664    5.8697 H   0  0  0  0  0  0  0  0  0  0  0  0
   -2.4416   -0.3904    4.0952 H   0  0  0  0  0  0  0  0  0  0  0  0
  1  2  1  0
  1 48  1  0
  1 49  1  0
  1 50  1  0
  3  2  1  6
 42  3  1  6
  3 44  1  0
  3  4  1  0
  4  5  1  0
  4 51  1  0
  4 52  1  0
  5 13  1  0
  5  6  1  6
  5 10  1  0
  6  7  1  0
  7  8  1  0
  7  9  2  0
  8 53  1  0
  8 54  1  0
  8 55  1  0
 10 11  1  0
 10 12  1  0
 10 56  1  1
 11 57  1  0
 12 13  1  0
 12 58  1  0
 12 59  1  0
 13 14  1  0
 13 60  1  6
 14 16  1  0
 14 15  1  0
 14 61  1  6
 15 16  1  0
 16 17  1  0
 16 62  1  6
 17 45  1  0
 17 18  1  1
 17 19  1  0
 18 63  1  0
 19 20  1  0
 19 64  1  0
 19 65  1  0
 20 21  1  0
 20 66  1  1
 20 27  1  0
 21 22  1  0
 22 23  2  0
 22 24  1  0
 24 26  1  0
 24 25  1  0
 24 67  1  0
 25 26  1  0
 25 68  1  0
 25 69  1  0
 26 70  1  0
 26 71  1  0
 27 37  2  0
 27 28  1  0
 28 34  1  0
 28 29  1  0
 28 75  1  1
 29 33  1  0
 29 30  2  0
 30 31  1  0
 30 72  1  0
 31 32  2  0
 31 73  1  0
 32 33  1  0
 32 74  1  0
 34 35  1  0
 35 37  1  0
 35 36  2  0
 37 38  1  0
 38 39  1  1
 38 40  1  0
 38 44  1  0
 40 41  1  0
 40 42  1  0
 40 76  1  1
 41 77  1  0
 42 43  2  0
 44 45  1  0
 44 78  1  1
 45 47  1  1
 45 46  1  0
 46 47  1  0
 46 79  1  0
 46 80  1  0
M  CHG  1  39  -1
M  END
>  <i_m_ct_stereo_status>  (183) 
1

>  <s_m_source_file>  (183) 
/var/tmp/pbs.5075288.sched01/tmpo2oug7hv/195455be7ie.sdf

>  <i_m_source_file_index>  (183) 
3

>  <i_lp_mmshare_version>  (183) 
48012

>  <i_f3d_flags>  (183) 
0

>  <s_epik_input>  (183) 
TzFbQ0gyXUMxMltDQF0zKFtPSF0pW0NAQEhdNFtDQEBIXShPNClbQ0BASF01W0NAXShbQ0BASF0oW09IXSlbQ0gyXTUpKE9DKD1PKVtDSDNdKVtDSDJdW0NAXTYoT1tDSDNdKVtDQEBIXTJbQ0BdKFtPSF0pKFtDQEBIXShbT0hdKVtTK102W08tXSljN2MoYyhvYzdbT0hdKS1jOFtjSF1bY0hdW2NIXXM4KVtDQEBIXShbQ0gyXTMpT0MoPU8pW0NIXTlbQ0gyXVtDSDJdOQ==

>  <s_epik_cmdline>  (183) 
J2VwaWtfcHl0aG9uJywgJy1waHQnLCAnMi4wJywgJy1waCcsICc3LjAnLCAnLXRuJywgJzgnLCAnLW1hJywgJzIwMCcsICctaW1hZScsICc8aW5maWxlLm1hZT4nLCAnLW9tYWUnLCAnPG91dGZpbGUubWFlPic=

>  <r_epik_Ionization_Penalty>  (183) 
0.799191

>  <r_epik_Ionization_Penalty_Charging>  (183) 
0.792041

>  <r_epik_Ionization_Penalty_Neutral>  (183) 
0.00714968

>  <r_epik_State_Penalty>  (183) 
1.95546

>  <r_epik_Charging_Adjusted_Penalty>  (183) 
2.7475

>  <i_epik_Tot_Q>  (183) 
-1

>  <i_epik_Tot_abs_Q>  (183) 
1

>  <s_epik_Chemistry_Notes>  (183) 
This compound has an ester and may undergo hydrolysis at high or low pH. This compound contains an acetal/aminal-like group ( X-CH(R)-Y where X, Y are N, S, or O) that may be acid/base labile, releasing an aldehyde.

>  <s_lp_Force_Field>  (183) 
OPLS3e

>  <r_lp_Energy>  (183) 
102.084

>  <b_lp_Chiralities_Consistent>  (183) 
1

>  <s_lp_Variant>  (183) 
75:0-10

>  <s_i_glide_gridfile>  (183) 
pfpi4k_grid

>  <i_i_glide_lignum>  (183) 
3

>  <i_i_glide_rotatable_bonds>  (183) 
10

>  <r_i_docking_score>  (183) 
-3.06997

>  <r_i_glide_ligand_efficiency>  (183) 
-0.0653185

>  <r_i_glide_ligand_efficiency_sa>  (183) 
-0.235723

>  <r_i_glide_ligand_efficiency_ln>  (183) 
-0.632964

>  <r_i_glide_gscore>  (183) 
-3.06997

>  <r_i_glide_lipo>  (183) 
-0.318418

>  <r_i_glide_hbond>  (183) 
-0.119586

>  <r_i_glide_metal>  (183) 
-0

>  <r_i_glide_rewards>  (183) 
-0.5

>  <r_i_glide_evdw>  (183) 
-27.0189

>  <r_i_glide_ecoul>  (183) 
-5.49771

>  <r_i_glide_erotb>  (183) 
0.0500867

>  <r_i_glide_esite>  (183) 
-0.00644939

>  <r_i_glide_emodel>  (183) 
-45.606

>  <r_i_glide_energy>  (183) 
-32.5166

>  <r_i_glide_einternal>  (183) 
0.464688

>  <r_i_glide_intrahb_reward>  (183) 
-0.5

>  <i_i_glide_confnum>  (183) 
4

>  <i_i_glide_posenum>  (183) 
29

>  <r_i_glide_eff_state_penalty>  (183) 
0

>  <ligand_id>  (183) 
75

>  <original_smiles>  (183) 
COC12CC3(OC(C)=O)C(O)CC3C3OC3C3(O)CC(OC(=O)C4CC4)c4c(-c5cccs5)oc(O)c4C(O)(C(O)[S+]1[O-])C2C31CO1

>  <smiles>  (183) 
[H]OC1([H])S(=O)C2(OC([H])([H])[H])C([H])([H])C3(OC(=O)C([H])([H])[H])C([H])(O[H])C([H])([H])C3([H])C3([H])OC3([H])C3(O[H])C([H])([H])C([H])(OC(=O)C4([H])C([H])([H])C4([H])[H])C4=C(C(=O)OC4([H])c4sc([H])c([H])c4[H])C1([O-])C2([H])C31OC1([H])[H]

$$$$
75:9:1
     RDKit          3D

 80 88  0  0  1  0  0  0  0  0999 V2000
    3.1763    2.1519    7.0643 C   0  0  0  0  0  0  0  0  0  0  0  0
    2.2652    1.3310    6.3491 O   0  0  0  0  0  0  0  0  0  0  0  0
    0.8949    1.3486    6.7561 C   0  0  2  0  0  0  0  0  0  0  0  0
    0.1267    2.5684    6.1084 C   0  0  0  0  0  0  0  0  0  0  0  0
    0.5319    3.2898    4.7567 C   0  0  2  0  0  0  0  0  0  0  0  0
    1.9300    3.6369    4.6928 O   0  0  0  0  0  0  0  0  0  0  0  0
    2.5147    4.6258    5.4144 C   0  0  0  0  0  0  0  0  0  0  0  0
    4.0227    4.7093    5.1750 C   0  0  0  0  0  0  0  0  0  0  0  0
    1.9667    5.3225    6.2733 O   0  0  0  0  0  0  0  0  0  0  0  0
   -0.4406    4.5145    4.5221 C   0  0  1  0  0  0  0  0  0  0  0  0
    0.0302    5.7555    4.0323 O   0  0  0  0  0  0  0  0  0  0  0  0
   -1.2023    3.6948    3.4922 C   0  0  0  0  0  0  0  0  0  0  0  0
    0.1015    2.9339    3.2756 C   0  0  2  0  0  0  0  0  0  0  0  0
    0.0682    1.6719    2.4043 C   0  0  2  0  0  0  0  0  0  0  0  0
   -1.0994    0.9143    2.6946 O   0  0  0  0  0  0  0  0  0  0  0  0
    0.0892    0.1434    2.6736 C   0  0  2  0  0  0  0  0  0  0  0  0
    0.5700   -0.5126    3.9679 C   0  0  2  0  0  0  0  0  0  0  0  0
    1.7935    0.1587    4.1119 O   0  0  0  0  0  0  0  0  0  0  0  0
    1.0116   -1.9759    3.6802 C   0  0  0  0  0  0  0  0  0  0  0  0
    1.3394   -2.8896    4.8919 C   0  0  1  0  0  0  0  0  0  0  0  0
    1.8196   -4.1251    4.3560 O   0  0  0  0  0  0  0  0  0  0  0  0
    1.0699   -5.2530    4.3663 C   0  0  0  0  0  0  0  0  0  0  0  0
   -0.0496   -5.3707    4.8654 O   0  0  0  0  0  0  0  0  0  0  0  0
    1.7600   -6.4197    3.6914 C   0  0  0  0  0  0  0  0  0  0  0  0
    2.3820   -6.2105    2.3234 C   0  0  0  0  0  0  0  0  0  0  0  0
    1.1090   -6.9968    2.4403 C   0  0  0  0  0  0  0  0  0  0  0  0
    2.3313   -2.3134    5.8989 C   0  0  0  0  0  0  0  0  0  0  0  0
    3.8037   -2.6262    5.7943 C   0  0  1  0  0  0  0  0  0  0  0  0
    4.4922   -2.0662    4.5764 C   0  0  0  0  0  0  0  0  0  0  0  0
    4.7706   -2.7289    3.4088 C   0  0  0  0  0  0  0  0  0  0  0  0
    5.4435   -1.9304    2.4400 C   0  0  0  0  0  0  0  0  0  0  0  0
    5.6905   -0.6556    2.8857 C   0  0  0  0  0  0  0  0  0  0  0  0
    5.0776   -0.4183    4.4989 S   0  0  0  0  0  0  0  0  0  0  0  0
    4.3441   -2.0180    6.9455 O   0  0  0  0  0  0  0  0  0  0  0  0
    3.4081   -1.4021    7.6810 C   0  0  0  0  0  0  0  0  0  0  0  0
    3.6711   -0.8071    8.7202 O   0  0  0  0  0  0  0  0  0  0  0  0
    2.0887   -1.5962    7.0285 C   0  0  0  0  0  0  0  0  0  0  0  0
    0.7009   -1.0950    7.5676 C   0  0  1  0  0  0  0  0  0  0  0  0
   -0.1272   -2.0844    7.6890 O   0  0  0  0  0  0  0  0  0  0  0  0
    0.6205   -0.3394    8.9531 C   0  0  1  0  0  0  0  0  0  0  0  0
    1.3503   -0.8531   10.0430 O   0  0  0  0  0  0  0  0  0  0  0  0
    0.7752    1.4873    8.6258 S   0  0  0  0  0  0  0  0  0  0  0  0
   -0.5499    2.1500    8.9786 O   0  0  0  0  0  0  0  0  0  0  0  0
    0.1337   -0.0038    6.5828 C   0  0  2  0  0  0  0  0  0  0  0  0
   -0.4181   -0.4182    5.1835 C   0  0  1  0  0  0  0  0  0  0  0  0
   -1.9313   -0.2929    4.9484 C   0  0  0  0  0  0  0  0  0  0  0  0
   -1.3463   -1.5299    5.2484 O   0  0  0  0  0  0  0  0  0  0  0  0
    4.0339    2.2824    6.4091 H   0  0  0  0  0  0  0  0  0  0  0  0
    3.5557    1.6852    7.9778 H   0  0  0  0  0  0  0  0  0  0  0  0
    2.7350    3.1090    7.2815 H   0  0  0  0  0  0  0  0  0  0  0  0
   -0.9274    2.3078    6.0552 H   0  0  0  0  0  0  0  0  0  0  0  0
    0.1251    3.3565    6.8631 H   0  0  0  0  0  0  0  0  0  0  0  0
    4.4053    3.7405    4.8718 H   0  0  0  0  0  0  0  0  0  0  0  0
    4.5245    5.0005    6.0962 H   0  0  0  0  0  0  0  0  0  0  0  0
    4.2732    5.4348    4.3997 H   0  0  0  0  0  0  0  0  0  0  0  0
   -1.0536    4.7118    5.4043 H   0  0  0  0  0  0  0  0  0  0  0  0
    0.4132    5.6089    3.1750 H   0  0  0  0  0  0  0  0  0  0  0  0
   -2.0010    3.0894    3.9244 H   0  0  0  0  0  0  0  0  0  0  0  0
   -1.5428    4.2532    2.6183 H   0  0  0  0  0  0  0  0  0  0  0  0
    0.7671    3.5833    2.6922 H   0  0  0  0  0  0  0  0  0  0  0  0
    0.1947    1.9265    1.3531 H   0  0  0  0  0  0  0  0  0  0  0  0
    0.2230   -0.4662    1.7744 H   0  0  0  0  0  0  0  0  0  0  0  0
    1.6219    1.0787    4.2708 H   0  0  0  0  0  0  0  0  0  0  0  0
    0.2077   -2.4640    3.1358 H   0  0  0  0  0  0  0  0  0  0  0  0
    1.8588   -1.9600    2.9935 H   0  0  0  0  0  0  0  0  0  0  0  0
    0.4161   -3.0841    5.4324 H   0  0  0  0  0  0  0  0  0  0  0  0
    2.2143   -7.1509    4.3655 H   0  0  0  0  0  0  0  0  0  0  0  0
    2.3237   -5.2144    1.8842 H   0  0  0  0  0  0  0  0  0  0  0  0
    3.2944   -6.7672    2.1146 H   0  0  0  0  0  0  0  0  0  0  0  0
    1.1833   -8.0731    2.2862 H   0  0  0  0  0  0  0  0  0  0  0  0
    0.1955   -6.5365    2.0655 H   0  0  0  0  0  0  0  0  0  0  0  0
    4.5187   -3.7602    3.2128 H   0  0  0  0  0  0  0  0  0  0  0  0
    5.7404   -2.3081    1.4739 H   0  0  0  0  0  0  0  0  0  0  0  0
    6.1942    0.1439    2.3734 H   0  0  0  0  0  0  0  0  0  0  0  0
    3.9548   -3.7032    5.8464 H   0  0  0  0  0  0  0  0  0  0  0  0
   -0.4084   -0.3826    9.3176 H   0  0  0  0  0  0  0  0  0  0  0  0
    2.1924   -1.1276    9.7052 H   0  0  0  0  0  0  0  0  0  0  0  0
   -0.8167    0.2226    7.0696 H   0  0  0  0  0  0  0  0  0  0  0  0
   -2.5500    0.1174    5.7411 H   0  0  0  0  0  0  0  0  0  0  0  0
   -2.3646   -0.3135    3.9617 H   0  0  0  0  0  0  0  0  0  0  0  0
  1  2  1  0
  1 48  1  0
  1 49  1  0
  1 50  1  0
  3  2  1  1
 42  3  1  6
  3 44  1  0
  3  4  1  0
  4  5  1  0
  4 51  1  0
  4 52  1  0
  5 13  1  0
  5  6  1  6
  5 10  1  0
  6  7  1  0
  7  8  1  0
  7  9  2  0
  8 53  1  0
  8 54  1  0
  8 55  1  0
 10 11  1  0
 10 12  1  0
 10 56  1  1
 11 57  1  0
 12 13  1  0
 12 58  1  0
 12 59  1  0
 13 14  1  0
 13 60  1  6
 14 16  1  0
 14 15  1  0
 14 61  1  6
 15 16  1  0
 16 17  1  0
 16 62  1  6
 17 45  1  0
 17 18  1  1
 17 19  1  0
 18 63  1  0
 19 20  1  0
 19 64  1  0
 19 65  1  0
 20 21  1  0
 20 66  1  1
 20 27  1  0
 21 22  1  0
 22 23  2  0
 22 24  1  0
 24 26  1  0
 24 25  1  0
 24 67  1  0
 25 26  1  0
 25 68  1  0
 25 69  1  0
 26 70  1  0
 26 71  1  0
 27 37  2  0
 27 28  1  0
 28 34  1  0
 28 29  1  0
 28 75  1  1
 29 33  1  0
 29 30  2  0
 30 31  1  0
 30 72  1  0
 31 32  2  0
 31 73  1  0
 32 33  1  0
 32 74  1  0
 34 35  1  0
 35 37  1  0
 35 36  2  0
 37 38  1  0
 38 39  1  1
 38 40  1  0
 38 44  1  0
 40 41  1  0
 40 42  1  0
 40 76  1  1
 41 77  1  0
 42 43  2  0
 44 45  1  0
 44 78  1  1
 45 47  1  1
 45 46  1  0
 46 47  1  0
 46 79  1  0
 46 80  1  0
M  CHG  1  39  -1
M  END
>  <i_m_ct_stereo_status>  (184) 
1

>  <s_m_source_file>  (184) 
/var/tmp/pbs.5075288.sched01/tmpo2oug7hv/195455be7ie.sdf

>  <i_m_source_file_index>  (184) 
3

>  <i_lp_mmshare_version>  (184) 
48012

>  <i_f3d_flags>  (184) 
0

>  <s_epik_input>  (184) 
TzFbQ0gyXUMxMltDQF0zKFtPSF0pW0NAQEhdNFtDQEBIXShPNClbQ0BASF01W0NAXShbQ0BASF0oW09IXSlbQ0gyXTUpKE9DKD1PKVtDSDNdKVtDSDJdW0NAXTYoT1tDSDNdKVtDQEBIXTJbQ0BdKFtPSF0pKFtDQEBIXShbT0hdKVtTK102W08tXSljN2MoYyhvYzdbT0hdKS1jOFtjSF1bY0hdW2NIXXM4KVtDQEBIXShbQ0gyXTMpT0MoPU8pW0NIXTlbQ0gyXVtDSDJdOQ==

>  <s_epik_cmdline>  (184) 
J2VwaWtfcHl0aG9uJywgJy1waHQnLCAnMi4wJywgJy1waCcsICc3LjAnLCAnLXRuJywgJzgnLCAnLW1hJywgJzIwMCcsICctaW1hZScsICc8aW5maWxlLm1hZT4nLCAnLW9tYWUnLCAnPG91dGZpbGUubWFlPic=

>  <r_epik_Ionization_Penalty>  (184) 
0.799191

>  <r_epik_Ionization_Penalty_Charging>  (184) 
0.792041

>  <r_epik_Ionization_Penalty_Neutral>  (184) 
0.00714968

>  <r_epik_State_Penalty>  (184) 
1.95546

>  <r_epik_Charging_Adjusted_Penalty>  (184) 
2.7475

>  <i_epik_Tot_Q>  (184) 
-1

>  <i_epik_Tot_abs_Q>  (184) 
1

>  <s_epik_Chemistry_Notes>  (184) 
This compound has an ester and may undergo hydrolysis at high or low pH. This compound contains an acetal/aminal-like group ( X-CH(R)-Y where X, Y are N, S, or O) that may be acid/base labile, releasing an aldehyde.

>  <s_lp_Force_Field>  (184) 
OPLS3e

>  <r_lp_Energy>  (184) 
102.084

>  <b_lp_Chiralities_Consistent>  (184) 
1

>  <s_lp_Variant>  (184) 
75:0-10

>  <s_i_glide_gridfile>  (184) 
pfpi4k_grid

>  <i_i_glide_lignum>  (184) 
3

>  <i_i_glide_rotatable_bonds>  (184) 
10

>  <r_i_docking_score>  (184) 
-2.91916

>  <r_i_glide_ligand_efficiency>  (184) 
-0.0621097

>  <r_i_glide_ligand_efficiency_sa>  (184) 
-0.224143

>  <r_i_glide_ligand_efficiency_ln>  (184) 
-0.60187

>  <r_i_glide_gscore>  (184) 
-2.91916

>  <r_i_glide_lipo>  (184) 
-0.329694

>  <r_i_glide_hbond>  (184) 
-0.084583

>  <r_i_glide_metal>  (184) 
-0

>  <r_i_glide_rewards>  (184) 
-0.5

>  <r_i_glide_evdw>  (184) 
-27.8873

>  <r_i_glide_ecoul>  (184) 
-4.35263

>  <r_i_glide_erotb>  (184) 
0.0500867

>  <r_i_glide_esite>  (184) 
-0.00770821

>  <r_i_glide_emodel>  (184) 
-44.053

>  <r_i_glide_energy>  (184) 
-32.2399

>  <r_i_glide_einternal>  (184) 
0.927467

>  <r_i_glide_intrahb_reward>  (184) 
-0.5

>  <i_i_glide_confnum>  (184) 
2

>  <i_i_glide_posenum>  (184) 
40

>  <r_i_glide_eff_state_penalty>  (184) 
0

>  <ligand_id>  (184) 
75

>  <original_smiles>  (184) 
COC12CC3(OC(C)=O)C(O)CC3C3OC3C3(O)CC(OC(=O)C4CC4)c4c(-c5cccs5)oc(O)c4C(O)(C(O)[S+]1[O-])C2C31CO1

>  <smiles>  (184) 
[H]OC1([H])S(=O)C2(OC([H])([H])[H])C([H])([H])C3(OC(=O)C([H])([H])[H])C([H])(O[H])C([H])([H])C3([H])C3([H])OC3([H])C3(O[H])C([H])([H])C([H])(OC(=O)C4([H])C([H])([H])C4([H])[H])C4=C(C(=O)OC4([H])c4sc([H])c([H])c4[H])C1([O-])C2([H])C31OC1([H])[H]

$$$$
75:9:2
     RDKit          3D

 80 88  0  0  1  0  0  0  0  0999 V2000
    1.4552   -1.8481    2.4182 C   0  0  0  0  0  0  0  0  0  0  0  0
    2.3085   -2.7209    3.1220 O   0  0  0  0  0  0  0  0  0  0  0  0
    3.6379   -2.2995    3.4532 C   0  0  2  0  0  0  0  0  0  0  0  0
    3.6422   -1.3602    4.7342 C   0  0  0  0  0  0  0  0  0  0  0  0
    2.5556   -1.3589    5.9000 C   0  0  2  0  0  0  0  0  0  0  0  0
    1.1855   -1.3176    5.4423 O   0  0  0  0  0  0  0  0  0  0  0  0
    0.6063   -0.2284    4.8488 C   0  0  0  0  0  0  0  0  0  0  0  0
   -0.8184   -0.5157    4.3815 C   0  0  0  0  0  0  0  0  0  0  0  0
    1.1599    0.8429    4.5802 O   0  0  0  0  0  0  0  0  0  0  0  0
    2.9009   -0.2023    6.9115 C   0  0  1  0  0  0  0  0  0  0  0  0
    1.8813    0.6124    7.4570 O   0  0  0  0  0  0  0  0  0  0  0  0
    3.4722   -1.2358    7.8723 C   0  0  0  0  0  0  0  0  0  0  0  0
    2.5223   -2.2317    7.2297 C   0  0  2  0  0  0  0  0  0  0  0  0
    2.6805   -3.7184    7.5981 C   0  0  2  0  0  0  0  0  0  0  0  0
    4.0547   -4.0440    7.7062 O   0  0  0  0  0  0  0  0  0  0  0  0
    3.3258   -4.9575    6.9000 C   0  0  2  0  0  0  0  0  0  0  0  0
    3.5897   -5.0508    5.3916 C   0  0  2  0  0  0  0  0  0  0  0  0
    2.4236   -4.4339    5.0037 O   0  0  0  0  0  0  0  0  0  0  0  0
    3.5674   -6.5557    4.9685 C   0  0  0  0  0  0  0  0  0  0  0  0
    3.9909   -6.9361    3.5202 C   0  0  1  0  0  0  0  0  0  0  0  0
    3.8033   -8.3445    3.3978 O   0  0  0  0  0  0  0  0  0  0  0  0
    4.5222   -9.0940    2.5087 C   0  0  0  0  0  0  0  0  0  0  0  0
    5.2667   -8.6465    1.6311 O   0  0  0  0  0  0  0  0  0  0  0  0
    4.3213  -10.5859    2.6792 C   0  0  0  0  0  0  0  0  0  0  0  0
    2.9145  -11.1117    2.9075 C   0  0  0  0  0  0  0  0  0  0  0  0
    3.9001  -11.1148    4.0425 C   0  0  0  0  0  0  0  0  0  0  0  0
    3.2668   -6.1750    2.3920 C   0  0  0  0  0  0  0  0  0  0  0  0
    2.0480   -6.7800    1.7049 C   0  0  1  0  0  0  0  0  0  0  0  0
    0.7764   -6.9387    2.5305 C   0  0  0  0  0  0  0  0  0  0  0  0
    0.5084   -6.4194    3.7645 C   0  0  0  0  0  0  0  0  0  0  0  0
   -0.7433   -6.7302    4.3029 C   0  0  0  0  0  0  0  0  0  0  0  0
   -1.4866   -7.5262    3.4936 C   0  0  0  0  0  0  0  0  0  0  0  0
   -0.6138   -7.8893    2.0163 S   0  0  0  0  0  0  0  0  0  0  0  0
    1.8000   -5.8347    0.6737 O   0  0  0  0  0  0  0  0  0  0  0  0
    2.6790   -4.8150    0.6813 C   0  0  0  0  0  0  0  0  0  0  0  0
    2.6208   -3.8854   -0.1146 O   0  0  0  0  0  0  0  0  0  0  0  0
    3.6452   -5.0326    1.7946 C   0  0  0  0  0  0  0  0  0  0  0  0
    4.8801   -4.1080    2.1202 C   0  0  1  0  0  0  0  0  0  0  0  0
    5.9818   -4.8226    2.0835 O   0  0  0  0  0  0  0  0  0  0  0  0
    5.2208   -2.8339    1.2440 C   0  0  1  0  0  0  0  0  0  0  0  0
    5.1524   -2.9588   -0.1645 O   0  0  0  0  0  0  0  0  0  0  0  0
    4.3444   -1.3696    1.9907 S   0  0  0  0  0  0  0  0  0  0  0  0
    5.4019   -0.3775    2.4911 O   0  0  0  0  0  0  0  0  0  0  0  0
    4.7048   -3.4629    3.5454 C   0  0  2  0  0  0  0  0  0  0  0  0
    4.8400   -4.3276    4.8502 C   0  0  1  0  0  0  0  0  0  0  0  0
    6.0260   -4.0526    5.8026 C   0  0  0  0  0  0  0  0  0  0  0  0
    6.0459   -5.1248    4.8940 O   0  0  0  0  0  0  0  0  0  0  0  0
    0.4522   -2.1688    2.6659 H   0  0  0  0  0  0  0  0  0  0  0  0
    1.5714   -1.8712    1.3435 H   0  0  0  0  0  0  0  0  0  0  0  0
    1.6297   -0.8378    2.7315 H   0  0  0  0  0  0  0  0  0  0  0  0
    4.6309   -1.4409    5.1880 H   0  0  0  0  0  0  0  0  0  0  0  0
    3.6499   -0.3432    4.3473 H   0  0  0  0  0  0  0  0  0  0  0  0
   -0.9474   -1.5758    4.1620 H   0  0  0  0  0  0  0  0  0  0  0  0
   -1.0296    0.0308    3.4621 H   0  0  0  0  0  0  0  0  0  0  0  0
   -1.5539   -0.2357    5.1339 H   0  0  0  0  0  0  0  0  0  0  0  0
    3.6824    0.4507    6.5224 H   0  0  0  0  0  0  0  0  0  0  0  0
    1.2702    0.0501    7.9051 H   0  0  0  0  0  0  0  0  0  0  0  0
    4.5255   -1.4576    7.6889 H   0  0  0  0  0  0  0  0  0  0  0  0
    3.2743   -1.0440    8.9285 H   0  0  0  0  0  0  0  0  0  0  0  0
    1.5237   -2.0176    7.6252 H   0  0  0  0  0  0  0  0  0  0  0  0
    2.0953   -3.9646    8.4898 H   0  0  0  0  0  0  0  0  0  0  0  0
    3.1159   -5.9074    7.3908 H   0  0  0  0  0  0  0  0  0  0  0  0
    2.4809   -3.5048    5.1655 H   0  0  0  0  0  0  0  0  0  0  0  0
    4.2407   -7.1131    5.6248 H   0  0  0  0  0  0  0  0  0  0  0  0
    2.6102   -7.0113    5.2037 H   0  0  0  0  0  0  0  0  0  0  0  0
    5.0651   -6.7590    3.4315 H   0  0  0  0  0  0  0  0  0  0  0  0
    5.0033  -11.2194    2.1074 H   0  0  0  0  0  0  0  0  0  0  0  0
    2.1002  -10.3908    2.9369 H   0  0  0  0  0  0  0  0  0  0  0  0
    2.6656  -12.0793    2.4817 H   0  0  0  0  0  0  0  0  0  0  0  0
    4.2954  -12.0813    4.3488 H   0  0  0  0  0  0  0  0  0  0  0  0
    3.7477  -10.4011    4.8492 H   0  0  0  0  0  0  0  0  0  0  0  0
    1.1482   -5.8697    4.3415 H   0  0  0  0  0  0  0  0  0  0  0  0
   -1.0081   -6.3715    5.2919 H   0  0  0  0  0  0  0  0  0  0  0  0
   -2.4751   -7.9516    3.6827 H   0  0  0  0  0  0  0  0  0  0  0  0
    2.3309   -7.7332    1.2532 H   0  0  0  0  0  0  0  0  0  0  0  0
    6.2632   -2.5516    1.4111 H   0  0  0  0  0  0  0  0  0  0  0  0
    4.4697   -3.5888   -0.3489 H   0  0  0  0  0  0  0  0  0  0  0  0
    5.6312   -2.8810    3.6371 H   0  0  0  0  0  0  0  0  0  0  0  0
    6.6620   -3.2074    5.5557 H   0  0  0  0  0  0  0  0  0  0  0  0
    6.0511   -4.4086    6.8369 H   0  0  0  0  0  0  0  0  0  0  0  0
  1  2  1  0
  1 48  1  0
  1 49  1  0
  1 50  1  0
  3  2  1  6
 42  3  1  1
  3 44  1  0
  3  4  1  0
  4  5  1  0
  4 51  1  0
  4 52  1  0
  5 13  1  0
  5  6  1  6
  5 10  1  0
  6  7  1  0
  7  8  1  0
  7  9  2  0
  8 53  1  0
  8 54  1  0
  8 55  1  0
 10 11  1  0
 10 12  1  0
 10 56  1  6
 11 57  1  0
 12 13  1  0
 12 58  1  0
 12 59  1  0
 13 14  1  0
 13 60  1  1
 14 16  1  0
 14 15  1  0
 14 61  1  1
 15 16  1  0
 16 17  1  0
 16 62  1  1
 17 45  1  0
 17 18  1  6
 17 19  1  0
 18 63  1  0
 19 20  1  0
 19 64  1  0
 19 65  1  0
 20 21  1  0
 20 66  1  1
 20 27  1  0
 21 22  1  0
 22 23  2  0
 22 24  1  0
 24 26  1  0
 24 25  1  0
 24 67  1  0
 25 26  1  0
 25 68  1  0
 25 69  1  0
 26 70  1  0
 26 71  1  0
 27 37  2  0
 27 28  1  0
 28 34  1  0
 28 29  1  0
 28 75  1  6
 29 33  1  0
 29 30  2  0
 30 31  1  0
 30 72  1  0
 31 32  2  0
 31 73  1  0
 32 33  1  0
 32 74  1  0
 34 35  1  0
 35 37  1  0
 35 36  2  0
 37 38  1  0
 38 39  1  1
 38 40  1  0
 38 44  1  0
 40 41  1  0
 40 42  1  0
 40 76  1  6
 41 77  1  0
 42 43  2  0
 44 45  1  0
 44 78  1  1
 45 47  1  6
 45 46  1  0
 46 47  1  0
 46 79  1  0
 46 80  1  0
M  CHG  1  39  -1
M  END
>  <i_m_ct_stereo_status>  (185) 
1

>  <s_m_source_file>  (185) 
/var/tmp/pbs.5075288.sched01/tmpo2oug7hv/195455be7ie.sdf

>  <i_m_source_file_index>  (185) 
3

>  <i_lp_mmshare_version>  (185) 
48012

>  <i_f3d_flags>  (185) 
0

>  <s_epik_input>  (185) 
TzFbQ0gyXUMxMltDQF0zKFtPSF0pW0NAQEhdNFtDQEBIXShPNClbQ0BASF01W0NAXShbQ0BASF0oW09IXSlbQ0gyXTUpKE9DKD1PKVtDSDNdKVtDSDJdW0NAXTYoT1tDSDNdKVtDQEBIXTJbQ0BdKFtPSF0pKFtDQEBIXShbT0hdKVtTK102W08tXSljN2MoYyhvYzdbT0hdKS1jOFtjSF1bY0hdW2NIXXM4KVtDQEBIXShbQ0gyXTMpT0MoPU8pW0NIXTlbQ0gyXVtDSDJdOQ==

>  <s_epik_cmdline>  (185) 
J2VwaWtfcHl0aG9uJywgJy1waHQnLCAnMi4wJywgJy1waCcsICc3LjAnLCAnLXRuJywgJzgnLCAnLW1hJywgJzIwMCcsICctaW1hZScsICc8aW5maWxlLm1hZT4nLCAnLW9tYWUnLCAnPG91dGZpbGUubWFlPic=

>  <r_epik_Ionization_Penalty>  (185) 
0.799191

>  <r_epik_Ionization_Penalty_Charging>  (185) 
0.792041

>  <r_epik_Ionization_Penalty_Neutral>  (185) 
0.00714968

>  <r_epik_State_Penalty>  (185) 
1.95546

>  <r_epik_Charging_Adjusted_Penalty>  (185) 
2.7475

>  <i_epik_Tot_Q>  (185) 
-1

>  <i_epik_Tot_abs_Q>  (185) 
1

>  <s_epik_Chemistry_Notes>  (185) 
This compound has an ester and may undergo hydrolysis at high or low pH. This compound contains an acetal/aminal-like group ( X-CH(R)-Y where X, Y are N, S, or O) that may be acid/base labile, releasing an aldehyde.

>  <s_lp_Force_Field>  (185) 
OPLS3e

>  <r_lp_Energy>  (185) 
102.084

>  <b_lp_Chiralities_Consistent>  (185) 
1

>  <s_lp_Variant>  (185) 
75:0-10

>  <s_i_glide_gridfile>  (185) 
pfpi4k_grid

>  <i_i_glide_lignum>  (185) 
3

>  <i_i_glide_rotatable_bonds>  (185) 
10

>  <r_i_docking_score>  (185) 
-2.65395

>  <r_i_glide_ligand_efficiency>  (185) 
-0.0564669

>  <r_i_glide_ligand_efficiency_sa>  (185) 
-0.203779

>  <r_i_glide_ligand_efficiency_ln>  (185) 
-0.547189

>  <r_i_glide_gscore>  (185) 
-2.65395

>  <r_i_glide_lipo>  (185) 
-0.112268

>  <r_i_glide_hbond>  (185) 
-0.154453

>  <r_i_glide_metal>  (185) 
-0

>  <r_i_glide_rewards>  (185) 
-0.522822

>  <r_i_glide_evdw>  (185) 
-35.333

>  <r_i_glide_ecoul>  (185) 
-0.891171

>  <r_i_glide_erotb>  (185) 
0.0500867

>  <r_i_glide_esite>  (185) 
-0.0568331

>  <r_i_glide_emodel>  (185) 
-43.8945

>  <r_i_glide_energy>  (185) 
-36.2241

>  <r_i_glide_einternal>  (185) 
2.70007

>  <r_i_glide_intrahb_reward>  (185) 
-0.5

>  <i_i_glide_confnum>  (185) 
3

>  <i_i_glide_posenum>  (185) 
3

>  <r_i_glide_eff_state_penalty>  (185) 
0

>  <ligand_id>  (185) 
75

>  <original_smiles>  (185) 
COC12CC3(OC(C)=O)C(O)CC3C3OC3C3(O)CC(OC(=O)C4CC4)c4c(-c5cccs5)oc(O)c4C(O)(C(O)[S+]1[O-])C2C31CO1

>  <smiles>  (185) 
[H]OC1([H])S(=O)C2(OC([H])([H])[H])C([H])([H])C3(OC(=O)C([H])([H])[H])C([H])(O[H])C([H])([H])C3([H])C3([H])OC3([H])C3(O[H])C([H])([H])C([H])(OC(=O)C4([H])C([H])([H])C4([H])[H])C4=C(C(=O)OC4([H])c4sc([H])c([H])c4[H])C1([O-])C2([H])C31OC1([H])[H]

$$$$
75:10:0
     RDKit          3D

 80 88  0  0  1  0  0  0  0  0999 V2000
    1.6650   -0.6617    1.8597 C   0  0  0  0  0  0  0  0  0  0  0  0
    1.8022   -0.8717    3.2672 O   0  0  0  0  0  0  0  0  0  0  0  0
    3.0668   -0.5749    3.8487 C   0  0  2  0  0  0  0  0  0  0  0  0
    3.1833    0.9703    4.1120 C   0  0  0  0  0  0  0  0  0  0  0  0
    1.9662    1.9311    4.4150 C   0  0  2  0  0  0  0  0  0  0  0  0
    1.1037    2.0624    3.2558 O   0  0  0  0  0  0  0  0  0  0  0  0
   -0.0370    1.3455    3.1292 C   0  0  0  0  0  0  0  0  0  0  0  0
   -0.7805    1.5997    1.8180 C   0  0  0  0  0  0  0  0  0  0  0  0
   -0.4534    0.4819    3.9186 O   0  0  0  0  0  0  0  0  0  0  0  0
    2.5691    3.3313    4.8135 C   0  0  1  0  0  0  0  0  0  0  0  0
    1.9701    4.5023    4.2890 O   0  0  0  0  0  0  0  0  0  0  0  0
    2.2467    3.0428    6.2893 C   0  0  0  0  0  0  0  0  0  0  0  0
    1.1432    2.1512    5.7546 C   0  0  2  0  0  0  0  0  0  0  0  0
    0.2766    1.2674    6.6578 C   0  0  2  0  0  0  0  0  0  0  0  0
    0.9675    0.8680    7.8695 O   0  0  0  0  0  0  0  0  0  0  0  0
    0.3378   -0.1870    7.1480 C   0  0  2  0  0  0  0  0  0  0  0  0
    1.1540   -1.3402    6.5530 C   0  0  2  0  0  0  0  0  0  0  0  0
    0.4627   -1.5345    5.3498 O   0  0  0  0  0  0  0  0  0  0  0  0
    0.8151   -2.6449    7.3303 C   0  0  0  0  0  0  0  0  0  0  0  0
    1.6121   -3.9171    6.9270 C   0  0  1  0  0  0  0  0  0  0  0  0
    1.0336   -5.0003    7.6447 O   0  0  0  0  0  0  0  0  0  0  0  0
    1.3892   -5.2857    8.9177 C   0  0  0  0  0  0  0  0  0  0  0  0
    0.8566   -6.2053    9.5555 O   0  0  0  0  0  0  0  0  0  0  0  0
    2.4640   -4.4022    9.5177 C   0  0  0  0  0  0  0  0  0  0  0  0
    3.3968   -4.9862   10.5663 C   0  0  0  0  0  0  0  0  0  0  0  0
    2.3272   -4.0008   10.9760 C   0  0  0  0  0  0  0  0  0  0  0  0
    1.6563   -4.1850    5.4145 C   0  0  0  0  0  0  0  0  0  0  0  0
    0.5824   -4.9993    4.7234 C   0  0  2  0  0  0  0  0  0  0  0  0
    0.5685   -6.4738    5.0458 C   0  0  0  0  0  0  0  0  0  0  0  0
    1.4687   -7.2077    5.7583 C   0  0  0  0  0  0  0  0  0  0  0  0
    1.1053   -8.5929    5.8715 C   0  0  0  0  0  0  0  0  0  0  0  0
   -0.0435   -8.8771    5.2161 C   0  0  0  0  0  0  0  0  0  0  0  0
   -0.7312   -7.4771    4.4462 S   0  0  0  0  0  0  0  0  0  0  0  0
    0.9346   -4.8961    3.3572 O   0  0  0  0  0  0  0  0  0  0  0  0
    2.0544   -4.1685    3.1674 C   0  0  0  0  0  0  0  0  0  0  0  0
    2.5020   -3.9107    2.0606 O   0  0  0  0  0  0  0  0  0  0  0  0
    2.5251   -3.7305    4.5045 C   0  0  0  0  0  0  0  0  0  0  0  0
    3.8314   -2.8896    4.7844 C   0  0  1  0  0  0  0  0  0  0  0  0
    4.4845   -3.3902    5.7437 O   0  0  0  0  0  0  0  0  0  0  0  0
    4.8660   -2.6857    3.6152 C   0  0  1  0  0  0  0  0  0  0  0  0
    5.1940   -3.8233    2.8432 O   0  0  0  0  0  0  0  0  0  0  0  0
    4.4619   -1.1209    2.7120 S   0  0  0  0  0  0  0  0  0  0  0  0
    5.6556   -0.1683    2.8384 O   0  0  0  0  0  0  0  0  0  0  0  0
    3.4361   -1.4006    5.1210 C   0  0  2  0  0  0  0  0  0  0  0  0
    2.6981   -1.1137    6.4602 C   0  0  2  0  0  0  0  0  0  0  0  0
    3.4734   -1.2299    7.7771 C   0  0  0  0  0  0  0  0  0  0  0  0
    3.2454    0.0283    7.1576 O   0  0  0  0  0  0  0  0  0  0  0  0
    0.5810   -0.5773    1.7233 H   0  0  0  0  0  0  0  0  0  0  0  0
    2.1495   -1.4012    1.2310 H   0  0  0  0  0  0  0  0  0  0  0  0
    2.0874    0.3012    1.5798 H   0  0  0  0  0  0  0  0  0  0  0  0
    3.9462    1.1094    4.8763 H   0  0  0  0  0  0  0  0  0  0  0  0
    3.6763    1.4025    3.2454 H   0  0  0  0  0  0  0  0  0  0  0  0
   -0.9641    2.6714    1.6851 H   0  0  0  0  0  0  0  0  0  0  0  0
   -1.7496    1.1034    1.8433 H   0  0  0  0  0  0  0  0  0  0  0  0
   -0.1935    1.2002    0.9873 H   0  0  0  0  0  0  0  0  0  0  0  0
    3.6491    3.3848    4.6693 H   0  0  0  0  0  0  0  0  0  0  0  0
    1.8278    4.3532    3.3654 H   0  0  0  0  0  0  0  0  0  0  0  0
    3.0295    2.4992    6.8229 H   0  0  0  0  0  0  0  0  0  0  0  0
    1.8816    3.9075    6.8541 H   0  0  0  0  0  0  0  0  0  0  0  0
    0.3749    2.8612    5.4279 H   0  0  0  0  0  0  0  0  0  0  0  0
   -0.7056    1.7071    6.8278 H   0  0  0  0  0  0  0  0  0  0  0  0
   -0.5770   -0.5203    7.6231 H   0  0  0  0  0  0  0  0  0  0  0  0
    0.6673   -0.7952    4.7673 H   0  0  0  0  0  0  0  0  0  0  0  0
    0.9670   -2.4774    8.3970 H   0  0  0  0  0  0  0  0  0  0  0  0
   -0.2541   -2.8449    7.2463 H   0  0  0  0  0  0  0  0  0  0  0  0
    2.6422   -3.8333    7.2295 H   0  0  0  0  0  0  0  0  0  0  0  0
    2.8963   -3.6518    8.8716 H   0  0  0  0  0  0  0  0  0  0  0  0
    3.2797   -6.0376   10.8448 H   0  0  0  0  0  0  0  0  0  0  0  0
    4.4250   -4.6398   10.5006 H   0  0  0  0  0  0  0  0  0  0  0  0
    2.6201   -2.9782   11.1951 H   0  0  0  0  0  0  0  0  0  0  0  0
    1.4648   -4.3663   11.5413 H   0  0  0  0  0  0  0  0  0  0  0  0
    2.3644   -6.8251    6.2236 H   0  0  0  0  0  0  0  0  0  0  0  0
    1.6990   -9.2960    6.4366 H   0  0  0  0  0  0  0  0  0  0  0  0
   -0.5522   -9.8386    5.1392 H   0  0  0  0  0  0  0  0  0  0  0  0
   -0.3849   -4.5499    4.9258 H   0  0  0  0  0  0  0  0  0  0  0  0
    5.8135   -2.4024    4.0863 H   0  0  0  0  0  0  0  0  0  0  0  0
    5.8236   -4.3218    3.3345 H   0  0  0  0  0  0  0  0  0  0  0  0
    4.4224   -0.9845    5.3771 H   0  0  0  0  0  0  0  0  0  0  0  0
    2.9206   -1.3895    8.7072 H   0  0  0  0  0  0  0  0  0  0  0  0
    4.5039   -1.5834    7.7623 H   0  0  0  0  0  0  0  0  0  0  0  0
  1  2  1  0
  1 48  1  0
  1 49  1  0
  1 50  1  0
  3  2  1  6
 42  3  1  1
  3 44  1  0
  3  4  1  0
  4  5  1  0
  4 51  1  0
  4 52  1  0
  5 13  1  0
  5  6  1  6
  5 10  1  0
  6  7  1  0
  7  8  1  0
  7  9  2  0
  8 53  1  0
  8 54  1  0
  8 55  1  0
 10 11  1  0
 10 12  1  0
 10 56  1  1
 11 57  1  0
 12 13  1  0
 12 58  1  0
 12 59  1  0
 13 14  1  0
 13 60  1  6
 14 16  1  0
 14 15  1  0
 14 61  1  1
 15 16  1  0
 16 17  1  0
 16 62  1  1
 17 45  1  0
 17 18  1  6
 17 19  1  0
 18 63  1  0
 19 20  1  0
 19 64  1  0
 19 65  1  0
 20 21  1  0
 20 66  1  1
 20 27  1  0
 21 22  1  0
 22 23  2  0
 22 24  1  0
 24 26  1  0
 24 25  1  0
 24 67  1  0
 25 26  1  0
 25 68  1  0
 25 69  1  0
 26 70  1  0
 26 71  1  0
 27 37  2  0
 27 28  1  0
 28 34  1  0
 28 29  1  0
 28 75  1  6
 29 33  1  0
 29 30  2  0
 30 31  1  0
 30 72  1  0
 31 32  2  0
 31 73  1  0
 32 33  1  0
 32 74  1  0
 34 35  1  0
 35 37  1  0
 35 36  2  0
 37 38  1  0
 38 39  1  1
 38 40  1  0
 38 44  1  0
 40 41  1  0
 40 42  1  0
 40 76  1  1
 41 77  1  0
 42 43  2  0
 44 45  1  0
 44 78  1  1
 45 47  1  6
 45 46  1  0
 46 47  1  0
 46 79  1  0
 46 80  1  0
M  CHG  1  39  -1
M  END
>  <i_m_ct_stereo_status>  (186) 
1

>  <s_m_source_file>  (186) 
/var/tmp/pbs.5075288.sched01/tmpo2oug7hv/195455be7ie.sdf

>  <i_m_source_file_index>  (186) 
4

>  <i_lp_mmshare_version>  (186) 
48012

>  <i_f3d_flags>  (186) 
0

>  <s_epik_input>  (186) 
TzFbQ0gyXUMxMltDQF0zKFtPSF0pW0NAQEhdNFtDQEBIXShPNClbQ0BASF01W0NAXShbQ0BASF0oW09IXSlbQ0gyXTUpKE9DKD1PKVtDSDNdKVtDSDJdW0NAXTYoT1tDSDNdKVtDQEBIXTJbQ0BdKFtPSF0pKFtDQEBIXShbT0hdKVtTK102W08tXSljN2MoYyhvYzdbT0hdKS1jOFtjSF1bY0hdW2NIXXM4KVtDQEBIXShbQ0gyXTMpT0MoPU8pW0NIXTlbQ0gyXVtDSDJdOQ==

>  <s_epik_cmdline>  (186) 
J2VwaWtfcHl0aG9uJywgJy1waHQnLCAnMi4wJywgJy1waCcsICc3LjAnLCAnLXRuJywgJzgnLCAnLW1hJywgJzIwMCcsICctaW1hZScsICc8aW5maWxlLm1hZT4nLCAnLW9tYWUnLCAnPG91dGZpbGUubWFlPic=

>  <r_epik_Ionization_Penalty>  (186) 
0.799191

>  <r_epik_Ionization_Penalty_Charging>  (186) 
0.792041

>  <r_epik_Ionization_Penalty_Neutral>  (186) 
0.00714968

>  <r_epik_State_Penalty>  (186) 
1.95546

>  <r_epik_Charging_Adjusted_Penalty>  (186) 
2.7475

>  <i_epik_Tot_Q>  (186) 
-1

>  <i_epik_Tot_abs_Q>  (186) 
1

>  <s_epik_Chemistry_Notes>  (186) 
This compound has an ester and may undergo hydrolysis at high or low pH. This compound contains an acetal/aminal-like group ( X-CH(R)-Y where X, Y are N, S, or O) that may be acid/base labile, releasing an aldehyde.

>  <s_lp_Force_Field>  (186) 
OPLS3e

>  <r_lp_Energy>  (186) 
97.9525

>  <b_lp_Chiralities_Consistent>  (186) 
1

>  <s_lp_Variant>  (186) 
75:0-11

>  <s_i_glide_gridfile>  (186) 
pfpi4k_grid

>  <i_i_glide_lignum>  (186) 
4

>  <i_i_glide_rotatable_bonds>  (186) 
10

>  <r_i_docking_score>  (186) 
-3.02034

>  <r_i_glide_ligand_efficiency>  (186) 
-0.0642625

>  <r_i_glide_ligand_efficiency_sa>  (186) 
-0.231912

>  <r_i_glide_ligand_efficiency_ln>  (186) 
-0.622731

>  <r_i_glide_gscore>  (186) 
-3.02034

>  <r_i_glide_lipo>  (186) 
-0.0416172

>  <r_i_glide_hbond>  (186) 
-0.144

>  <r_i_glide_metal>  (186) 
-0

>  <r_i_glide_rewards>  (186) 
-1.06403

>  <r_i_glide_evdw>  (186) 
-29.0919

>  <r_i_glide_ecoul>  (186) 
-2.16578

>  <r_i_glide_erotb>  (186) 
0.0500867

>  <r_i_glide_esite>  (186) 
-0.0413114

>  <r_i_glide_emodel>  (186) 
-40.9481

>  <r_i_glide_energy>  (186) 
-31.2577

>  <r_i_glide_einternal>  (186) 
9.42595

>  <r_i_glide_intrahb_reward>  (186) 
-1

>  <i_i_glide_confnum>  (186) 
2

>  <i_i_glide_posenum>  (186) 
9

>  <r_i_glide_eff_state_penalty>  (186) 
0

>  <ligand_id>  (186) 
75

>  <original_smiles>  (186) 
COC12CC3(OC(C)=O)C(O)CC3C3OC3C3(O)CC(OC(=O)C4CC4)c4c(-c5cccs5)oc(O)c4C(O)(C(O)[S+]1[O-])C2C31CO1

>  <smiles>  (186) 
[H]OC1([H])S(=O)C2(OC([H])([H])[H])C([H])([H])C3(OC(=O)C([H])([H])[H])C([H])(O[H])C([H])([H])C3([H])C3([H])OC3([H])C3(O[H])C([H])([H])C([H])(OC(=O)C4([H])C([H])([H])C4([H])[H])C4=C(C(=O)OC4([H])c4sc([H])c([H])c4[H])C1([O-])C2([H])C31OC1([H])[H]

$$$$
75:10:1
     RDKit          3D

 80 88  0  0  1  0  0  0  0  0999 V2000
    2.3473   -1.4341    1.2435 C   0  0  0  0  0  0  0  0  0  0  0  0
    2.6723   -2.0330    2.4814 O   0  0  0  0  0  0  0  0  0  0  0  0
    4.0044   -1.9180    2.9221 C   0  0  2  0  0  0  0  0  0  0  0  0
    4.2419   -0.4871    3.5228 C   0  0  0  0  0  0  0  0  0  0  0  0
    3.1443    0.4235    4.2014 C   0  0  2  0  0  0  0  0  0  0  0  0
    2.1644    0.8741    3.2267 O   0  0  0  0  0  0  0  0  0  0  0  0
    0.9355    0.3011    3.1112 C   0  0  0  0  0  0  0  0  0  0  0  0
    0.0880    0.9421    2.0043 C   0  0  0  0  0  0  0  0  0  0  0  0
    0.4835   -0.6114    3.8025 O   0  0  0  0  0  0  0  0  0  0  0  0
    3.9005    1.6397    4.8554 C   0  0  1  0  0  0  0  0  0  0  0  0
    3.3763    2.9406    4.6655 O   0  0  0  0  0  0  0  0  0  0  0  0
    3.7241    1.0184    6.2482 C   0  0  0  0  0  0  0  0  0  0  0  0
    2.5093    0.3324    5.6535 C   0  0  2  0  0  0  0  0  0  0  0  0
    1.6891   -0.7215    6.4310 C   0  0  2  0  0  0  0  0  0  0  0  0
    2.4706   -1.4528    7.3967 O   0  0  0  0  0  0  0  0  0  0  0  0
    1.6855   -2.2442    6.5385 C   0  0  2  0  0  0  0  0  0  0  0  0
    2.3245   -3.2568    5.5797 C   0  0  2  0  0  0  0  0  0  0  0  0
    1.4989   -3.0872    4.4509 O   0  0  0  0  0  0  0  0  0  0  0  0
    2.0077   -4.7101    6.0646 C   0  0  0  0  0  0  0  0  0  0  0  0
    2.6560   -5.8846    5.2637 C   0  0  1  0  0  0  0  0  0  0  0  0
    2.0734   -7.1037    5.7014 O   0  0  0  0  0  0  0  0  0  0  0  0
    2.4803   -7.7259    6.8212 C   0  0  0  0  0  0  0  0  0  0  0  0
    3.3398   -7.2955    7.5980 O   0  0  0  0  0  0  0  0  0  0  0  0
    1.7638   -9.0353    7.0453 C   0  0  0  0  0  0  0  0  0  0  0  0
    0.2794   -9.1139    6.7291 C   0  0  0  0  0  0  0  0  0  0  0  0
    0.7272   -9.0931    8.1576 C   0  0  0  0  0  0  0  0  0  0  0  0
    2.5040   -5.7376    3.7313 C   0  0  0  0  0  0  0  0  0  0  0  0
    1.2884   -6.2956    3.0205 C   0  0  2  0  0  0  0  0  0  0  0  0
    1.1974   -7.7946    2.9639 C   0  0  0  0  0  0  0  0  0  0  0  0
    2.1599   -8.6933    2.6372 C   0  0  0  0  0  0  0  0  0  0  0  0
    1.7130  -10.0538    2.7070 C   0  0  0  0  0  0  0  0  0  0  0  0
    0.4137  -10.1491    3.0823 C   0  0  0  0  0  0  0  0  0  0  0  0
   -0.3242   -8.5880    3.3124 S   0  0  0  0  0  0  0  0  0  0  0  0
    1.4656   -5.8510    1.6890 O   0  0  0  0  0  0  0  0  0  0  0  0
    2.6031   -5.1677    1.5289 C   0  0  0  0  0  0  0  0  0  0  0  0
    2.9198   -4.6569    0.4596 O   0  0  0  0  0  0  0  0  0  0  0  0
    3.2780   -5.1114    2.8504 C   0  0  0  0  0  0  0  0  0  0  0  0
    4.6574   -4.4052    3.1326 C   0  0  1  0  0  0  0  0  0  0  0  0
    5.4016   -5.1850    3.8818 O   0  0  0  0  0  0  0  0  0  0  0  0
    5.5772   -3.9875    1.9426 C   0  0  1  0  0  0  0  0  0  0  0  0
    5.7145   -4.9006    0.8750 O   0  0  0  0  0  0  0  0  0  0  0  0
    5.1841   -2.2211    1.5026 S   0  0  0  0  0  0  0  0  0  0  0  0
    6.4473   -1.3575    1.6807 O   0  0  0  0  0  0  0  0  0  0  0  0
    4.4318   -3.0615    3.8925 C   0  0  2  0  0  0  0  0  0  0  0  0
    3.8715   -3.0730    5.3334 C   0  0  2  0  0  0  0  0  0  0  0  0
    4.7790   -3.5616    6.4642 C   0  0  0  0  0  0  0  0  0  0  0  0
    4.5741   -2.1712    6.2068 O   0  0  0  0  0  0  0  0  0  0  0  0
    1.2656   -1.2955    1.3451 H   0  0  0  0  0  0  0  0  0  0  0  0
    2.6664   -1.9974    0.3724 H   0  0  0  0  0  0  0  0  0  0  0  0
    2.7928   -0.4504    1.1255 H   0  0  0  0  0  0  0  0  0  0  0  0
    5.0969   -0.5762    4.1859 H   0  0  0  0  0  0  0  0  0  0  0  0
    4.6513    0.1282    2.7275 H   0  0  0  0  0  0  0  0  0  0  0  0
    0.0451    2.0382    2.0764 H   0  0  0  0  0  0  0  0  0  0  0  0
   -0.9346    0.5790    2.1027 H   0  0  0  0  0  0  0  0  0  0  0  0
    0.4851    0.6070    1.0404 H   0  0  0  0  0  0  0  0  0  0  0  0
    4.9641    1.6519    4.5989 H   0  0  0  0  0  0  0  0  0  0  0  0
    2.4378    2.9037    4.7878 H   0  0  0  0  0  0  0  0  0  0  0  0
    4.5270    0.3293    6.5241 H   0  0  0  0  0  0  0  0  0  0  0  0
    3.5028    1.7315    7.0499 H   0  0  0  0  0  0  0  0  0  0  0  0
    1.7586    1.1300    5.6369 H   0  0  0  0  0  0  0  0  0  0  0  0
    0.7725   -0.2896    6.8228 H   0  0  0  0  0  0  0  0  0  0  0  0
    0.7880   -2.6469    7.0178 H   0  0  0  0  0  0  0  0  0  0  0  0
    1.9320   -3.5327    3.7361 H   0  0  0  0  0  0  0  0  0  0  0  0
    2.2877   -4.8189    7.1158 H   0  0  0  0  0  0  0  0  0  0  0  0
    0.9248   -4.8510    6.0611 H   0  0  0  0  0  0  0  0  0  0  0  0
    3.7248   -5.9149    5.5020 H   0  0  0  0  0  0  0  0  0  0  0  0
    2.3715   -9.9321    6.9002 H   0  0  0  0  0  0  0  0  0  0  0  0
   -0.1967   -8.2178    6.3350 H   0  0  0  0  0  0  0  0  0  0  0  0
   -0.0699  -10.0619    6.3240 H   0  0  0  0  0  0  0  0  0  0  0  0
    0.6491  -10.0299    8.7051 H   0  0  0  0  0  0  0  0  0  0  0  0
    0.5315   -8.1885    8.7325 H   0  0  0  0  0  0  0  0  0  0  0  0
    3.1726   -8.4417    2.3518 H   0  0  0  0  0  0  0  0  0  0  0  0
    2.3679  -10.8823    2.4897 H   0  0  0  0  0  0  0  0  0  0  0  0
   -0.1826  -11.0483    3.2375 H   0  0  0  0  0  0  0  0  0  0  0  0
    0.3993   -5.8623    3.4551 H   0  0  0  0  0  0  0  0  0  0  0  0
    6.5974   -3.8777    2.3137 H   0  0  0  0  0  0  0  0  0  0  0  0
    6.3433   -5.5463    1.1629 H   0  0  0  0  0  0  0  0  0  0  0  0
    5.4582   -2.7526    4.1010 H   0  0  0  0  0  0  0  0  0  0  0  0
    4.3440   -3.9161    7.3993 H   0  0  0  0  0  0  0  0  0  0  0  0
    5.7819   -3.9302    6.2335 H   0  0  0  0  0  0  0  0  0  0  0  0
  1  2  1  0
  1 48  1  0
  1 49  1  0
  1 50  1  0
  3  2  1  6
 42  3  1  1
  3 44  1  0
  3  4  1  0
  4  5  1  0
  4 51  1  0
  4 52  1  0
  5 13  1  0
  5  6  1  6
  5 10  1  0
  6  7  1  0
  7  8  1  0
  7  9  2  0
  8 53  1  0
  8 54  1  0
  8 55  1  0
 10 11  1  0
 10 12  1  0
 10 56  1  6
 11 57  1  0
 12 13  1  0
 12 58  1  0
 12 59  1  0
 13 14  1  0
 13 60  1  6
 14 16  1  0
 14 15  1  0
 14 61  1  1
 15 16  1  0
 16 17  1  0
 16 62  1  1
 17 45  1  0
 17 18  1  6
 17 19  1  0
 18 63  1  0
 19 20  1  0
 19 64  1  0
 19 65  1  0
 20 21  1  0
 20 66  1  6
 20 27  1  0
 21 22  1  0
 22 23  2  0
 22 24  1  0
 24 26  1  0
 24 25  1  0
 24 67  1  0
 25 26  1  0
 25 68  1  0
 25 69  1  0
 26 70  1  0
 26 71  1  0
 27 37  2  0
 27 28  1  0
 28 34  1  0
 28 29  1  0
 28 75  1  1
 29 33  1  0
 29 30  2  0
 30 31  1  0
 30 72  1  0
 31 32  2  0
 31 73  1  0
 32 33  1  0
 32 74  1  0
 34 35  1  0
 35 37  1  0
 35 36  2  0
 37 38  1  0
 38 39  1  1
 38 40  1  0
 38 44  1  0
 40 41  1  0
 40 42  1  0
 40 76  1  1
 41 77  1  0
 42 43  2  0
 44 45  1  0
 44 78  1  1
 45 47  1  1
 45 46  1  0
 46 47  1  0
 46 79  1  0
 46 80  1  0
M  CHG  1  39  -1
M  END
>  <i_m_ct_stereo_status>  (187) 
1

>  <s_m_source_file>  (187) 
/var/tmp/pbs.5075288.sched01/tmpo2oug7hv/195455be7ie.sdf

>  <i_m_source_file_index>  (187) 
4

>  <i_lp_mmshare_version>  (187) 
48012

>  <i_f3d_flags>  (187) 
0

>  <s_epik_input>  (187) 
TzFbQ0gyXUMxMltDQF0zKFtPSF0pW0NAQEhdNFtDQEBIXShPNClbQ0BASF01W0NAXShbQ0BASF0oW09IXSlbQ0gyXTUpKE9DKD1PKVtDSDNdKVtDSDJdW0NAXTYoT1tDSDNdKVtDQEBIXTJbQ0BdKFtPSF0pKFtDQEBIXShbT0hdKVtTK102W08tXSljN2MoYyhvYzdbT0hdKS1jOFtjSF1bY0hdW2NIXXM4KVtDQEBIXShbQ0gyXTMpT0MoPU8pW0NIXTlbQ0gyXVtDSDJdOQ==

>  <s_epik_cmdline>  (187) 
J2VwaWtfcHl0aG9uJywgJy1waHQnLCAnMi4wJywgJy1waCcsICc3LjAnLCAnLXRuJywgJzgnLCAnLW1hJywgJzIwMCcsICctaW1hZScsICc8aW5maWxlLm1hZT4nLCAnLW9tYWUnLCAnPG91dGZpbGUubWFlPic=

>  <r_epik_Ionization_Penalty>  (187) 
0.799191

>  <r_epik_Ionization_Penalty_Charging>  (187) 
0.792041

>  <r_epik_Ionization_Penalty_Neutral>  (187) 
0.00714968

>  <r_epik_State_Penalty>  (187) 
1.95546

>  <r_epik_Charging_Adjusted_Penalty>  (187) 
2.7475

>  <i_epik_Tot_Q>  (187) 
-1

>  <i_epik_Tot_abs_Q>  (187) 
1

>  <s_epik_Chemistry_Notes>  (187) 
This compound has an ester and may undergo hydrolysis at high or low pH. This compound contains an acetal/aminal-like group ( X-CH(R)-Y where X, Y are N, S, or O) that may be acid/base labile, releasing an aldehyde.

>  <s_lp_Force_Field>  (187) 
OPLS3e

>  <r_lp_Energy>  (187) 
97.9525

>  <b_lp_Chiralities_Consistent>  (187) 
1

>  <s_lp_Variant>  (187) 
75:0-11

>  <s_i_glide_gridfile>  (187) 
pfpi4k_grid

>  <i_i_glide_lignum>  (187) 
4

>  <i_i_glide_rotatable_bonds>  (187) 
10

>  <r_i_docking_score>  (187) 
-1.77009

>  <r_i_glide_ligand_efficiency>  (187) 
-0.0376614

>  <r_i_glide_ligand_efficiency_sa>  (187) 
-0.135913

>  <r_i_glide_ligand_efficiency_ln>  (187) 
-0.364955

>  <r_i_glide_gscore>  (187) 
-1.77009

>  <r_i_glide_lipo>  (187) 
-0.206767

>  <r_i_glide_hbond>  (187) 
-0.0795789

>  <r_i_glide_metal>  (187) 
-0

>  <r_i_glide_rewards>  (187) 
-0.0748961

>  <r_i_glide_evdw>  (187) 
-35.3624

>  <r_i_glide_ecoul>  (187) 
2.35749

>  <r_i_glide_erotb>  (187) 
0.0500867

>  <r_i_glide_esite>  (187) 
-0.044436

>  <r_i_glide_emodel>  (187) 
-33.7113

>  <r_i_glide_energy>  (187) 
-33.0049

>  <r_i_glide_einternal>  (187) 
2.38587

>  <r_i_glide_intrahb_reward>  (187) 
-0

>  <i_i_glide_confnum>  (187) 
5

>  <i_i_glide_posenum>  (187) 
5

>  <r_i_glide_eff_state_penalty>  (187) 
0

>  <ligand_id>  (187) 
75

>  <original_smiles>  (187) 
COC12CC3(OC(C)=O)C(O)CC3C3OC3C3(O)CC(OC(=O)C4CC4)c4c(-c5cccs5)oc(O)c4C(O)(C(O)[S+]1[O-])C2C31CO1

>  <smiles>  (187) 
[H]OC1([H])S(=O)C2(OC([H])([H])[H])C([H])([H])C3(OC(=O)C([H])([H])[H])C([H])(O[H])C([H])([H])C3([H])C3([H])OC3([H])C3(O[H])C([H])([H])C([H])(OC(=O)C4([H])C([H])([H])C4([H])[H])C4=C(C(=O)OC4([H])c4sc([H])c([H])c4[H])C1([O-])C2([H])C31OC1([H])[H]

$$$$
75:10:2
     RDKit          3D

 80 88  0  0  1  0  0  0  0  0999 V2000
    1.5901   -4.9113    3.5539 C   0  0  0  0  0  0  0  0  0  0  0  0
    2.2962   -3.6657    3.5098 O   0  0  0  0  0  0  0  0  0  0  0  0
    3.4989   -3.5504    4.2409 C   0  0  2  0  0  0  0  0  0  0  0  0
    4.7057   -4.1699    3.4439 C   0  0  0  0  0  0  0  0  0  0  0  0
    4.8021   -4.2442    1.8672 C   0  0  2  0  0  0  0  0  0  0  0  0
    3.8199   -5.1793    1.3215 O   0  0  0  0  0  0  0  0  0  0  0  0
    2.6737   -4.7472    0.7047 C   0  0  0  0  0  0  0  0  0  0  0  0
    1.6779   -5.8437    0.3889 C   0  0  0  0  0  0  0  0  0  0  0  0
    2.4211   -3.6023    0.3464 O   0  0  0  0  0  0  0  0  0  0  0  0
    6.2507   -4.7596    1.5337 C   0  0  1  0  0  0  0  0  0  0  0  0
    6.3944   -5.7880    0.5739 O   0  0  0  0  0  0  0  0  0  0  0  0
    6.6690   -3.3417    1.1109 C   0  0  0  0  0  0  0  0  0  0  0  0
    5.2045   -3.1264    0.8056 C   0  0  2  0  0  0  0  0  0  0  0  0
    4.6152   -1.7597    0.3972 C   0  0  2  0  0  0  0  0  0  0  0  0
    5.3478   -0.6342    0.9328 O   0  0  0  0  0  0  0  0  0  0  0  0
    3.9419   -0.6067    1.1278 C   0  0  2  0  0  0  0  0  0  0  0  0
    3.3187   -0.5854    2.5335 C   0  0  2  0  0  0  0  0  0  0  0  0
    2.1990   -1.3978    2.3016 O   0  0  0  0  0  0  0  0  0  0  0  0
    2.6757    0.8057    2.8150 C   0  0  0  0  0  0  0  0  0  0  0  0
    2.0925    1.0317    4.2463 C   0  0  1  0  0  0  0  0  0  0  0  0
    1.3885    2.2676    4.2541 O   0  0  0  0  0  0  0  0  0  0  0  0
    2.0067    3.4371    4.5141 C   0  0  0  0  0  0  0  0  0  0  0  0
    3.2133    3.5780    4.7029 O   0  0  0  0  0  0  0  0  0  0  0  0
    1.0486    4.5979    4.5757 C   0  0  0  0  0  0  0  0  0  0  0  0
   -0.1634    4.5876    3.6664 C   0  0  0  0  0  0  0  0  0  0  0  0
    0.9601    5.5270    3.3729 C   0  0  0  0  0  0  0  0  0  0  0  0
    1.1551   -0.1111    4.7132 C   0  0  0  0  0  0  0  0  0  0  0  0
   -0.3200   -0.0870    4.3928 C   0  0  2  0  0  0  0  0  0  0  0  0
   -1.1512    0.9389    5.1035 C   0  0  0  0  0  0  0  0  0  0  0  0
   -1.3140    1.1079    6.4647 C   0  0  0  0  0  0  0  0  0  0  0  0
   -2.1331    2.2249    6.7908 C   0  0  0  0  0  0  0  0  0  0  0  0
   -2.5794    2.8990    5.6803 C   0  0  0  0  0  0  0  0  0  0  0  0
   -2.0848    2.1205    4.2102 S   0  0  0  0  0  0  0  0  0  0  0  0
   -0.7529   -1.3567    4.8579 O   0  0  0  0  0  0  0  0  0  0  0  0
    0.2310   -2.0538    5.4393 C   0  0  0  0  0  0  0  0  0  0  0  0
    0.0538   -3.1842    5.9075 O   0  0  0  0  0  0  0  0  0  0  0  0
    1.4883   -1.2502    5.3591 C   0  0  0  0  0  0  0  0  0  0  0  0
    2.8707   -1.6888    5.8893 C   0  0  1  0  0  0  0  0  0  0  0  0
    3.4182   -0.6499    6.5302 O   0  0  0  0  0  0  0  0  0  0  0  0
    3.0111   -2.8691    6.8987 C   0  0  1  0  0  0  0  0  0  0  0  0
    2.0257   -2.9655    7.9042 O   0  0  0  0  0  0  0  0  0  0  0  0
    3.3328   -4.4057    5.8956 S   0  0  0  0  0  0  0  0  0  0  0  0
    4.6816   -4.9971    6.3118 O   0  0  0  0  0  0  0  0  0  0  0  0
    3.8094   -2.0928    4.7212 C   0  0  2  0  0  0  0  0  0  0  0  0
    4.2697   -1.0254    3.6876 C   0  0  2  0  0  0  0  0  0  0  0  0
    5.3046    0.0029    4.1380 C   0  0  0  0  0  0  0  0  0  0  0  0
    5.6684   -1.1323    3.3723 O   0  0  0  0  0  0  0  0  0  0  0  0
    0.9047   -4.8785    2.7359 H   0  0  0  0  0  0  0  0  0  0  0  0
    1.0818   -5.1140    4.5058 H   0  0  0  0  0  0  0  0  0  0  0  0
    2.2861   -5.7313    3.3724 H   0  0  0  0  0  0  0  0  0  0  0  0
    5.6239   -3.7254    3.8449 H   0  0  0  0  0  0  0  0  0  0  0  0
    4.8030   -5.2061    3.7757 H   0  0  0  0  0  0  0  0  0  0  0  0
    2.2952   -6.6391   -0.0402 H   0  0  0  0  0  0  0  0  0  0  0  0
    0.9851   -5.5097   -0.3865 H   0  0  0  0  0  0  0  0  0  0  0  0
    1.1544   -6.1790    1.2702 H   0  0  0  0  0  0  0  0  0  0  0  0
    6.8130   -5.0389    2.4306 H   0  0  0  0  0  0  0  0  0  0  0  0
    5.8982   -5.5424   -0.1901 H   0  0  0  0  0  0  0  0  0  0  0  0
    7.0091   -2.7197    1.9342 H   0  0  0  0  0  0  0  0  0  0  0  0
    7.3294   -3.2897    0.2369 H   0  0  0  0  0  0  0  0  0  0  0  0
    5.0809   -3.6662   -0.1386 H   0  0  0  0  0  0  0  0  0  0  0  0
    4.4366   -1.7170   -0.6748 H   0  0  0  0  0  0  0  0  0  0  0  0
    3.4389    0.0945    0.4642 H   0  0  0  0  0  0  0  0  0  0  0  0
    1.7282   -1.4745    3.1128 H   0  0  0  0  0  0  0  0  0  0  0  0
    3.4090    1.5918    2.6260 H   0  0  0  0  0  0  0  0  0  0  0  0
    1.8973    0.9921    2.0722 H   0  0  0  0  0  0  0  0  0  0  0  0
    2.9293    1.1158    4.9443 H   0  0  0  0  0  0  0  0  0  0  0  0
    0.9364    5.0683    5.5554 H   0  0  0  0  0  0  0  0  0  0  0  0
   -0.2942    3.7757    2.9417 H   0  0  0  0  0  0  0  0  0  0  0  0
   -1.0737    4.9957    4.0896 H   0  0  0  0  0  0  0  0  0  0  0  0
    0.7443    6.5813    3.5302 H   0  0  0  0  0  0  0  0  0  0  0  0
    1.5355    5.2936    2.4790 H   0  0  0  0  0  0  0  0  0  0  0  0
   -0.8666    0.4837    7.2285 H   0  0  0  0  0  0  0  0  0  0  0  0
   -2.3652    2.5148    7.8068 H   0  0  0  0  0  0  0  0  0  0  0  0
   -3.1788    3.7818    5.6319 H   0  0  0  0  0  0  0  0  0  0  0  0
   -0.4375   -0.0194    3.3204 H   0  0  0  0  0  0  0  0  0  0  0  0
    3.9457   -2.7811    7.4531 H   0  0  0  0  0  0  0  0  0  0  0  0
    2.3675   -2.5130    8.6577 H   0  0  0  0  0  0  0  0  0  0  0  0
    4.7622   -2.2550    5.2420 H   0  0  0  0  0  0  0  0  0  0  0  0
    5.3783    0.9439    3.6049 H   0  0  0  0  0  0  0  0  0  0  0  0
    5.6568    0.0082    5.1653 H   0  0  0  0  0  0  0  0  0  0  0  0
  1  2  1  0
  1 48  1  0
  1 49  1  0
  1 50  1  0
  3  2  1  6
 42  3  1  6
  3 44  1  0
  3  4  1  0
  4  5  1  0
  4 51  1  0
  4 52  1  0
  5 13  1  0
  5  6  1  6
  5 10  1  0
  6  7  1  0
  7  8  1  0
  7  9  2  0
  8 53  1  0
  8 54  1  0
  8 55  1  0
 10 11  1  0
 10 12  1  0
 10 56  1  1
 11 57  1  0
 12 13  1  0
 12 58  1  0
 12 59  1  0
 13 14  1  0
 13 60  1  6
 14 16  1  0
 14 15  1  0
 14 61  1  6
 15 16  1  0
 16 17  1  0
 16 62  1  6
 17 45  1  0
 17 18  1  6
 17 19  1  0
 18 63  1  0
 19 20  1  0
 19 64  1  0
 19 65  1  0
 20 21  1  0
 20 66  1  1
 20 27  1  0
 21 22  1  0
 22 23  2  0
 22 24  1  0
 24 26  1  0
 24 25  1  0
 24 67  1  0
 25 26  1  0
 25 68  1  0
 25 69  1  0
 26 70  1  0
 26 71  1  0
 27 37  2  0
 27 28  1  0
 28 34  1  0
 28 29  1  0
 28 75  1  6
 29 33  1  0
 29 30  2  0
 30 31  1  0
 30 72  1  0
 31 32  2  0
 31 73  1  0
 32 33  1  0
 32 74  1  0
 34 35  1  0
 35 37  1  0
 35 36  2  0
 37 38  1  0
 38 39  1  1
 38 40  1  0
 38 44  1  0
 40 41  1  0
 40 42  1  0
 40 76  1  1
 41 77  1  0
 42 43  2  0
 44 45  1  0
 44 78  1  1
 45 47  1  6
 45 46  1  0
 46 47  1  0
 46 79  1  0
 46 80  1  0
M  CHG  1  39  -1
M  END
>  <i_m_ct_stereo_status>  (188) 
1

>  <s_m_source_file>  (188) 
/var/tmp/pbs.5075288.sched01/tmpo2oug7hv/195455be7ie.sdf

>  <i_m_source_file_index>  (188) 
4

>  <i_lp_mmshare_version>  (188) 
48012

>  <i_f3d_flags>  (188) 
0

>  <s_epik_input>  (188) 
TzFbQ0gyXUMxMltDQF0zKFtPSF0pW0NAQEhdNFtDQEBIXShPNClbQ0BASF01W0NAXShbQ0BASF0oW09IXSlbQ0gyXTUpKE9DKD1PKVtDSDNdKVtDSDJdW0NAXTYoT1tDSDNdKVtDQEBIXTJbQ0BdKFtPSF0pKFtDQEBIXShbT0hdKVtTK102W08tXSljN2MoYyhvYzdbT0hdKS1jOFtjSF1bY0hdW2NIXXM4KVtDQEBIXShbQ0gyXTMpT0MoPU8pW0NIXTlbQ0gyXVtDSDJdOQ==

>  <s_epik_cmdline>  (188) 
J2VwaWtfcHl0aG9uJywgJy1waHQnLCAnMi4wJywgJy1waCcsICc3LjAnLCAnLXRuJywgJzgnLCAnLW1hJywgJzIwMCcsICctaW1hZScsICc8aW5maWxlLm1hZT4nLCAnLW9tYWUnLCAnPG91dGZpbGUubWFlPic=

>  <r_epik_Ionization_Penalty>  (188) 
0.799191

>  <r_epik_Ionization_Penalty_Charging>  (188) 
0.792041

>  <r_epik_Ionization_Penalty_Neutral>  (188) 
0.00714968

>  <r_epik_State_Penalty>  (188) 
1.95546

>  <r_epik_Charging_Adjusted_Penalty>  (188) 
2.7475

>  <i_epik_Tot_Q>  (188) 
-1

>  <i_epik_Tot_abs_Q>  (188) 
1

>  <s_epik_Chemistry_Notes>  (188) 
This compound has an ester and may undergo hydrolysis at high or low pH. This compound contains an acetal/aminal-like group ( X-CH(R)-Y where X, Y are N, S, or O) that may be acid/base labile, releasing an aldehyde.

>  <s_lp_Force_Field>  (188) 
OPLS3e

>  <r_lp_Energy>  (188) 
97.9525

>  <b_lp_Chiralities_Consistent>  (188) 
1

>  <s_lp_Variant>  (188) 
75:0-11

>  <s_i_glide_gridfile>  (188) 
pfpi4k_grid

>  <i_i_glide_lignum>  (188) 
4

>  <i_i_glide_rotatable_bonds>  (188) 
10

>  <r_i_docking_score>  (188) 
-1.74865

>  <r_i_glide_ligand_efficiency>  (188) 
-0.0372054

>  <r_i_glide_ligand_efficiency_sa>  (188) 
-0.134268

>  <r_i_glide_ligand_efficiency_ln>  (188) 
-0.360536

>  <r_i_glide_gscore>  (188) 
-1.74865

>  <r_i_glide_lipo>  (188) 
-0.421738

>  <r_i_glide_hbond>  (188) 
0

>  <r_i_glide_metal>  (188) 
-0

>  <r_i_glide_rewards>  (188) 
0

>  <r_i_glide_evdw>  (188) 
-32.3606

>  <r_i_glide_ecoul>  (188) 
1.955

>  <r_i_glide_erotb>  (188) 
0.0500867

>  <r_i_glide_esite>  (188) 
-0.0522234

>  <r_i_glide_emodel>  (188) 
-30.1285

>  <r_i_glide_energy>  (188) 
-30.4056

>  <r_i_glide_einternal>  (188) 
3.53933

>  <r_i_glide_intrahb_reward>  (188) 
-0

>  <i_i_glide_confnum>  (188) 
5

>  <i_i_glide_posenum>  (188) 
32

>  <r_i_glide_eff_state_penalty>  (188) 
0

>  <ligand_id>  (188) 
75

>  <original_smiles>  (188) 
COC12CC3(OC(C)=O)C(O)CC3C3OC3C3(O)CC(OC(=O)C4CC4)c4c(-c5cccs5)oc(O)c4C(O)(C(O)[S+]1[O-])C2C31CO1

>  <smiles>  (188) 
[H]OC1([H])S(=O)C2(OC([H])([H])[H])C([H])([H])C3(OC(=O)C([H])([H])[H])C([H])(O[H])C([H])([H])C3([H])C3([H])OC3([H])C3(O[H])C([H])([H])C([H])(OC(=O)C4([H])C([H])([H])C4([H])[H])C4=C(C(=O)OC4([H])c4sc([H])c([H])c4[H])C1([O-])C2([H])C31OC1([H])[H]

$$$$
75:11:0
     RDKit          3D

 80 88  0  0  1  0  0  0  0  0999 V2000
    4.3051   -2.9617    8.6216 C   0  0  0  0  0  0  0  0  0  0  0  0
    3.5444   -3.2173    7.4394 O   0  0  0  0  0  0  0  0  0  0  0  0
    2.6953   -2.1732    6.9743 C   0  0  2  0  0  0  0  0  0  0  0  0
    3.4977   -1.0504    6.2096 C   0  0  0  0  0  0  0  0  0  0  0  0
    4.8161   -1.2842    5.3673 C   0  0  2  0  0  0  0  0  0  0  0  0
    5.8841   -1.8321    6.1794 O   0  0  0  0  0  0  0  0  0  0  0  0
    6.5502   -1.1548    7.1590 C   0  0  0  0  0  0  0  0  0  0  0  0
    7.5776   -2.0184    7.8886 C   0  0  0  0  0  0  0  0  0  0  0  0
    6.3436    0.0129    7.4959 O   0  0  0  0  0  0  0  0  0  0  0  0
    5.1935    0.0689    4.6389 C   0  0  1  0  0  0  0  0  0  0  0  0
    6.5368    0.5346    4.5812 O   0  0  0  0  0  0  0  0  0  0  0  0
    4.6538   -0.4965    3.3267 C   0  0  0  0  0  0  0  0  0  0  0  0
    4.9780   -1.8670    3.8999 C   0  0  2  0  0  0  0  0  0  0  0  0
    4.6383   -3.1674    3.1591 C   0  0  2  0  0  0  0  0  0  0  0  0
    3.4507   -3.0363    2.3578 O   0  0  0  0  0  0  0  0  0  0  0  0
    3.4893   -4.1666    3.1939 C   0  0  2  0  0  0  0  0  0  0  0  0
    2.5360   -4.3271    4.3582 C   0  0  2  0  0  0  0  0  0  0  0  0
    3.4950   -4.6400    5.3064 O   0  0  0  0  0  0  0  0  0  0  0  0
    1.7436   -5.6503    4.1580 C   0  0  0  0  0  0  0  0  0  0  0  0
    0.5690   -5.9684    5.1214 C   0  0  1  0  0  0  0  0  0  0  0  0
    0.0554   -7.2621    4.8017 O   0  0  0  0  0  0  0  0  0  0  0  0
   -0.6011   -7.4896    3.6400 C   0  0  0  0  0  0  0  0  0  0  0  0
   -0.8661   -6.6776    2.7942 O   0  0  0  0  0  0  0  0  0  0  0  0
   -0.9490   -8.9578    3.4747 C   0  0  0  0  0  0  0  0  0  0  0  0
   -0.0490   -9.7920    2.5879 C   0  0  0  0  0  0  0  0  0  0  0  0
   -1.4299   -9.4299    2.1062 C   0  0  0  0  0  0  0  0  0  0  0  0
    0.9903   -5.8928    6.6016 C   0  0  0  0  0  0  0  0  0  0  0  0
    1.4346   -7.1086    7.3777 C   0  0  1  0  0  0  0  0  0  0  0  0
    2.7069   -7.7910    6.9352 C   0  0  0  0  0  0  0  0  0  0  0  0
    2.8832   -9.1314    6.6258 C   0  0  0  0  0  0  0  0  0  0  0  0
    4.1739   -9.4539    6.1699 C   0  0  0  0  0  0  0  0  0  0  0  0
    5.0039   -8.3457    6.1367 C   0  0  0  0  0  0  0  0  0  0  0  0
    4.2444   -6.9764    6.8729 S   0  0  0  0  0  0  0  0  0  0  0  0
    1.6724   -6.5887    8.6668 O   0  0  0  0  0  0  0  0  0  0  0  0
    1.4016   -5.2805    8.7503 C   0  0  0  0  0  0  0  0  0  0  0  0
    1.5172   -4.6294    9.7797 O   0  0  0  0  0  0  0  0  0  0  0  0
    0.9211   -4.8133    7.4166 C   0  0  0  0  0  0  0  0  0  0  0  0
    0.4301   -3.3816    7.0929 C   0  0  1  0  0  0  0  0  0  0  0  0
   -0.7701   -3.4446    6.5044 O   0  0  0  0  0  0  0  0  0  0  0  0
    0.2183   -2.3252    8.2344 C   0  0  1  0  0  0  0  0  0  0  0  0
   -0.3986   -2.7491    9.4231 O   0  0  0  0  0  0  0  0  0  0  0  0
    1.8116   -1.3804    8.4282 S   0  0  0  0  0  0  0  0  0  0  0  0
    1.5434    0.0797    8.0858 O   0  0  0  0  0  0  0  0  0  0  0  0
    1.4503   -2.6507    6.1655 C   0  0  2  0  0  0  0  0  0  0  0  0
    1.6134   -3.0920    4.6972 C   0  0  2  0  0  0  0  0  0  0  0  0
    0.4808   -2.8377    3.7189 C   0  0  0  0  0  0  0  0  0  0  0  0
    1.6235   -1.9801    3.7766 O   0  0  0  0  0  0  0  0  0  0  0  0
    5.1543   -3.6406    8.5480 H   0  0  0  0  0  0  0  0  0  0  0  0
    3.7534   -3.2301    9.5415 H   0  0  0  0  0  0  0  0  0  0  0  0
    4.6463   -1.9509    8.6553 H   0  0  0  0  0  0  0  0  0  0  0  0
    2.7847   -0.5142    5.5823 H   0  0  0  0  0  0  0  0  0  0  0  0
    3.7505   -0.2766    6.9444 H   0  0  0  0  0  0  0  0  0  0  0  0
    7.0963   -2.9125    8.2657 H   0  0  0  0  0  0  0  0  0  0  0  0
    7.9929   -1.4758    8.7377 H   0  0  0  0  0  0  0  0  0  0  0  0
    8.4151   -2.3259    7.2473 H   0  0  0  0  0  0  0  0  0  0  0  0
    4.5645    0.8944    4.9735 H   0  0  0  0  0  0  0  0  0  0  0  0
    7.0526   -0.1368    4.1503 H   0  0  0  0  0  0  0  0  0  0  0  0
    3.5820   -0.3481    3.1831 H   0  0  0  0  0  0  0  0  0  0  0  0
    5.2445   -0.2400    2.4403 H   0  0  0  0  0  0  0  0  0  0  0  0
    6.0552   -1.9317    3.7872 H   0  0  0  0  0  0  0  0  0  0  0  0
    5.4884   -3.5402    2.6089 H   0  0  0  0  0  0  0  0  0  0  0  0
    3.7152   -5.1101    2.7113 H   0  0  0  0  0  0  0  0  0  0  0  0
    3.0333   -4.7708    6.1226 H   0  0  0  0  0  0  0  0  0  0  0  0
    1.3618   -5.6268    3.1437 H   0  0  0  0  0  0  0  0  0  0  0  0
    2.4375   -6.4833    4.1812 H   0  0  0  0  0  0  0  0  0  0  0  0
   -0.2533   -5.2694    4.9472 H   0  0  0  0  0  0  0  0  0  0  0  0
   -1.3608   -9.4471    4.3607 H   0  0  0  0  0  0  0  0  0  0  0  0
    0.7940   -9.3186    2.0823 H   0  0  0  0  0  0  0  0  0  0  0  0
    0.1068  -10.8306    2.8748 H   0  0  0  0  0  0  0  0  0  0  0  0
   -2.1571  -10.2267    2.0718 H   0  0  0  0  0  0  0  0  0  0  0  0
   -1.4905   -8.7195    1.2853 H   0  0  0  0  0  0  0  0  0  0  0  0
    2.1056   -9.8774    6.7126 H   0  0  0  0  0  0  0  0  0  0  0  0
    4.4561  -10.4490    5.8579 H   0  0  0  0  0  0  0  0  0  0  0  0
    6.0132   -8.2990    5.7535 H   0  0  0  0  0  0  0  0  0  0  0  0
    0.6102   -7.8132    7.4073 H   0  0  0  0  0  0  0  0  0  0  0  0
   -0.4243   -1.5268    7.8710 H   0  0  0  0  0  0  0  0  0  0  0  0
    0.0734   -3.5189    9.7110 H   0  0  0  0  0  0  0  0  0  0  0  0
    0.9418   -1.7064    5.9886 H   0  0  0  0  0  0  0  0  0  0  0  0
    0.4491   -3.5273    2.8817 H   0  0  0  0  0  0  0  0  0  0  0  0
   -0.4675   -2.4213    4.0489 H   0  0  0  0  0  0  0  0  0  0  0  0
  1  2  1  0
  1 48  1  0
  1 49  1  0
  1 50  1  0
  3  2  1  1
 42  3  1  6
  3 44  1  0
  3  4  1  0
  4  5  1  0
  4 51  1  0
  4 52  1  0
  5 13  1  0
  5  6  1  1
  5 10  1  0
  6  7  1  0
  7  8  1  0
  7  9  2  0
  8 53  1  0
  8 54  1  0
  8 55  1  0
 10 11  1  0
 10 12  1  0
 10 56  1  1
 11 57  1  0
 12 13  1  0
 12 58  1  0
 12 59  1  0
 13 14  1  0
 13 60  1  1
 14 16  1  0
 14 15  1  0
 14 61  1  6
 15 16  1  0
 16 17  1  0
 16 62  1  6
 17 45  1  0
 17 18  1  1
 17 19  1  0
 18 63  1  0
 19 20  1  0
 19 64  1  0
 19 65  1  0
 20 21  1  0
 20 66  1  1
 20 27  1  0
 21 22  1  0
 22 23  2  0
 22 24  1  0
 24 26  1  0
 24 25  1  0
 24 67  1  0
 25 26  1  0
 25 68  1  0
 25 69  1  0
 26 70  1  0
 26 71  1  0
 27 37  2  0
 27 28  1  0
 28 34  1  0
 28 29  1  0
 28 75  1  1
 29 33  1  0
 29 30  2  0
 30 31  1  0
 30 72  1  0
 31 32  2  0
 31 73  1  0
 32 33  1  0
 32 74  1  0
 34 35  1  0
 35 37  1  0
 35 36  2  0
 37 38  1  0
 38 39  1  6
 38 40  1  0
 38 44  1  0
 40 41  1  0
 40 42  1  0
 40 76  1  6
 41 77  1  0
 42 43  2  0
 44 45  1  0
 44 78  1  6
 45 47  1  6
 45 46  1  0
 46 47  1  0
 46 79  1  0
 46 80  1  0
M  CHG  1  39  -1
M  END
>  <i_m_ct_stereo_status>  (189) 
1

>  <s_m_source_file>  (189) 
/var/tmp/pbs.5075288.sched01/tmpo2oug7hv/195455be7ie.sdf

>  <i_m_source_file_index>  (189) 
5

>  <i_lp_mmshare_version>  (189) 
48012

>  <i_f3d_flags>  (189) 
0

>  <s_epik_input>  (189) 
TzFbQ0gyXUMxMltDQF0zKFtPSF0pW0NAQEhdNFtDQEBIXShPNClbQ0BASF01W0NAXShbQ0BASF0oW09IXSlbQ0gyXTUpKE9DKD1PKVtDSDNdKVtDSDJdW0NAXTYoT1tDSDNdKVtDQEBIXTJbQ0BdKFtPSF0pKFtDQEBIXShbT0hdKVtTK102W08tXSljN2MoYyhvYzdbT0hdKS1jOFtjSF1bY0hdW2NIXXM4KVtDQEBIXShbQ0gyXTMpT0MoPU8pW0NIXTlbQ0gyXVtDSDJdOQ==

>  <s_epik_cmdline>  (189) 
J2VwaWtfcHl0aG9uJywgJy1waHQnLCAnMi4wJywgJy1waCcsICc3LjAnLCAnLXRuJywgJzgnLCAnLW1hJywgJzIwMCcsICctaW1hZScsICc8aW5maWxlLm1hZT4nLCAnLW9tYWUnLCAnPG91dGZpbGUubWFlPic=

>  <r_epik_Ionization_Penalty>  (189) 
0.799191

>  <r_epik_Ionization_Penalty_Charging>  (189) 
0.792041

>  <r_epik_Ionization_Penalty_Neutral>  (189) 
0.00714968

>  <r_epik_State_Penalty>  (189) 
1.95546

>  <r_epik_Charging_Adjusted_Penalty>  (189) 
2.7475

>  <i_epik_Tot_Q>  (189) 
-1

>  <i_epik_Tot_abs_Q>  (189) 
1

>  <s_epik_Chemistry_Notes>  (189) 
This compound has an ester and may undergo hydrolysis at high or low pH. This compound contains an acetal/aminal-like group ( X-CH(R)-Y where X, Y are N, S, or O) that may be acid/base labile, releasing an aldehyde.

>  <s_lp_Force_Field>  (189) 
OPLS3e

>  <r_lp_Energy>  (189) 
97.6867

>  <b_lp_Chiralities_Consistent>  (189) 
1

>  <s_lp_Variant>  (189) 
75:0-12

>  <s_i_glide_gridfile>  (189) 
pfpi4k_grid

>  <i_i_glide_lignum>  (189) 
5

>  <i_i_glide_rotatable_bonds>  (189) 
10

>  <r_i_docking_score>  (189) 
-3.50496

>  <r_i_glide_ligand_efficiency>  (189) 
-0.0745736

>  <r_i_glide_ligand_efficiency_sa>  (189) 
-0.269123

>  <r_i_glide_ligand_efficiency_ln>  (189) 
-0.72265

>  <r_i_glide_gscore>  (189) 
-3.50496

>  <r_i_glide_lipo>  (189) 
-0.577858

>  <r_i_glide_hbond>  (189) 
-0.16

>  <r_i_glide_metal>  (189) 
-0

>  <r_i_glide_rewards>  (189) 
-0.551076

>  <r_i_glide_evdw>  (189) 
-22.0149

>  <r_i_glide_ecoul>  (189) 
-7.36966

>  <r_i_glide_erotb>  (189) 
0.0500867

>  <r_i_glide_esite>  (189) 
-0.0599214

>  <r_i_glide_emodel>  (189) 
-40.7704

>  <r_i_glide_energy>  (189) 
-29.3845

>  <r_i_glide_einternal>  (189) 
3.09748

>  <r_i_glide_intrahb_reward>  (189) 
-0.5

>  <i_i_glide_confnum>  (189) 
4

>  <i_i_glide_posenum>  (189) 
12

>  <r_i_glide_eff_state_penalty>  (189) 
0

>  <ligand_id>  (189) 
75

>  <original_smiles>  (189) 
COC12CC3(OC(C)=O)C(O)CC3C3OC3C3(O)CC(OC(=O)C4CC4)c4c(-c5cccs5)oc(O)c4C(O)(C(O)[S+]1[O-])C2C31CO1

>  <smiles>  (189) 
[H]OC1([H])S(=O)C2(OC([H])([H])[H])C([H])([H])C3(OC(=O)C([H])([H])[H])C([H])(O[H])C([H])([H])C3([H])C3([H])OC3([H])C3(O[H])C([H])([H])C([H])(OC(=O)C4([H])C([H])([H])C4([H])[H])C4=C(C(=O)OC4([H])c4sc([H])c([H])c4[H])C1([O-])C2([H])C31OC1([H])[H]

$$$$
75:11:1
     RDKit          3D

 80 88  0  0  1  0  0  0  0  0999 V2000
    3.4409    2.3456    6.6306 C   0  0  0  0  0  0  0  0  0  0  0  0
    2.4978    1.4331    6.1013 O   0  0  0  0  0  0  0  0  0  0  0  0
    1.1843    1.4384    6.6516 C   0  0  2  0  0  0  0  0  0  0  0  0
    0.3370    2.6357    6.0769 C   0  0  0  0  0  0  0  0  0  0  0  0
    0.5119    3.2648    4.6385 C   0  0  2  0  0  0  0  0  0  0  0  0
    1.8412    3.7917    4.4185 O   0  0  0  0  0  0  0  0  0  0  0  0
    2.3509    4.8783    5.0456 C   0  0  0  0  0  0  0  0  0  0  0  0
    3.7863    5.1771    4.6175 C   0  0  0  0  0  0  0  0  0  0  0  0
    1.7691    5.5745    5.8775 O   0  0  0  0  0  0  0  0  0  0  0  0
   -0.6424    4.3183    4.4069 C   0  0  1  0  0  0  0  0  0  0  0  0
   -0.3864    5.5617    3.7752 O   0  0  0  0  0  0  0  0  0  0  0  0
   -1.3733    3.3173    3.5210 C   0  0  0  0  0  0  0  0  0  0  0  0
    0.0042    2.7268    3.2409 C   0  0  2  0  0  0  0  0  0  0  0  0
    0.1711    1.4675    2.3820 C   0  0  2  0  0  0  0  0  0  0  0  0
   -0.9390    0.5620    2.5351 O   0  0  0  0  0  0  0  0  0  0  0  0
    0.3337   -0.0302    2.6624 C   0  0  2  0  0  0  0  0  0  0  0  0
    0.7675   -0.6438    3.9883 C   0  0  2  0  0  0  0  0  0  0  0  0
    2.0254   -0.0304    4.0775 O   0  0  0  0  0  0  0  0  0  0  0  0
    1.0711   -2.1611    3.7738 C   0  0  0  0  0  0  0  0  0  0  0  0
    1.3844   -3.0049    5.0355 C   0  0  1  0  0  0  0  0  0  0  0  0
    1.7552   -4.3148    4.6097 O   0  0  0  0  0  0  0  0  0  0  0  0
    0.9263   -5.3692    4.7402 C   0  0  0  0  0  0  0  0  0  0  0  0
   -0.1904   -5.3321    5.2779 O   0  0  0  0  0  0  0  0  0  0  0  0
    1.4934   -6.6359    4.1462 C   0  0  0  0  0  0  0  0  0  0  0  0
    0.5277   -7.6026    3.4769 C   0  0  0  0  0  0  0  0  0  0  0  0
    1.1300   -7.9629    4.8009 C   0  0  0  0  0  0  0  0  0  0  0  0
    2.4722   -2.3957    5.9302 C   0  0  0  0  0  0  0  0  0  0  0  0
    3.9181   -2.7744    5.7561 C   0  0  1  0  0  0  0  0  0  0  0  0
    4.5311   -2.4126    4.4345 C   0  0  0  0  0  0  0  0  0  0  0  0
    4.8344   -3.2726    3.4028 C   0  0  0  0  0  0  0  0  0  0  0  0
    5.4100   -2.6284    2.2732 C   0  0  0  0  0  0  0  0  0  0  0  0
    5.5690   -1.2769    2.4498 C   0  0  0  0  0  0  0  0  0  0  0  0
    5.0301   -0.7827    4.0306 S   0  0  0  0  0  0  0  0  0  0  0  0
    4.5581   -2.0256    6.7696 O   0  0  0  0  0  0  0  0  0  0  0  0
    3.7010   -1.2934    7.4899 C   0  0  0  0  0  0  0  0  0  0  0  0
    4.0402   -0.5736    8.4089 O   0  0  0  0  0  0  0  0  0  0  0  0
    2.3250   -1.5549    6.9625 C   0  0  0  0  0  0  0  0  0  0  0  0
    1.0009   -0.9708    7.5529 C   0  0  1  0  0  0  0  0  0  0  0  0
    0.1122   -1.9299    7.7268 O   0  0  0  0  0  0  0  0  0  0  0  0
    1.0132   -0.1949    8.9118 C   0  0  1  0  0  0  0  0  0  0  0  0
    1.7921   -0.7194    9.9628 O   0  0  0  0  0  0  0  0  0  0  0  0
    1.2631    1.6050    8.5152 S   0  0  0  0  0  0  0  0  0  0  0  0
    0.0145    2.3648    8.9745 O   0  0  0  0  0  0  0  0  0  0  0  0
    0.4173    0.0811    6.5605 C   0  0  2  0  0  0  0  0  0  0  0  0
   -0.1768   -0.3847    5.2095 C   0  0  2  0  0  0  0  0  0  0  0  0
   -1.4672   -1.2011    5.2025 C   0  0  0  0  0  0  0  0  0  0  0  0
   -1.4694    0.2028    4.9506 O   0  0  0  0  0  0  0  0  0  0  0  0
    4.1841    2.4743    5.8482 H   0  0  0  0  0  0  0  0  0  0  0  0
    3.9614    1.9366    7.5060 H   0  0  0  0  0  0  0  0  0  0  0  0
    2.9749    3.2946    6.8501 H   0  0  0  0  0  0  0  0  0  0  0  0
   -0.7131    2.3838    6.2194 H   0  0  0  0  0  0  0  0  0  0  0  0
    0.4542    3.4659    6.7762 H   0  0  0  0  0  0  0  0  0  0  0  0
    4.3956    4.2987    4.7959 H   0  0  0  0  0  0  0  0  0  0  0  0
    4.1958    5.9954    5.2082 H   0  0  0  0  0  0  0  0  0  0  0  0
    3.8670    5.4426    3.5556 H   0  0  0  0  0  0  0  0  0  0  0  0
   -1.2030    4.5029    5.3279 H   0  0  0  0  0  0  0  0  0  0  0  0
    0.0472    5.3926    2.9458 H   0  0  0  0  0  0  0  0  0  0  0  0
   -2.0313    2.6386    4.0684 H   0  0  0  0  0  0  0  0  0  0  0  0
   -1.8587    3.7561    2.6443 H   0  0  0  0  0  0  0  0  0  0  0  0
    0.5175    3.4221    2.5742 H   0  0  0  0  0  0  0  0  0  0  0  0
    0.3569    1.7185    1.3458 H   0  0  0  0  0  0  0  0  0  0  0  0
    0.6427   -0.6068    1.7925 H   0  0  0  0  0  0  0  0  0  0  0  0
    2.4859   -0.1546    3.2637 H   0  0  0  0  0  0  0  0  0  0  0  0
    0.2169   -2.6225    3.2824 H   0  0  0  0  0  0  0  0  0  0  0  0
    1.8901   -2.2666    3.0628 H   0  0  0  0  0  0  0  0  0  0  0  0
    0.4706   -3.0697    5.6244 H   0  0  0  0  0  0  0  0  0  0  0  0
    2.4985   -6.5597    3.7041 H   0  0  0  0  0  0  0  0  0  0  0  0
   -0.5371   -7.3639    3.4669 H   0  0  0  0  0  0  0  0  0  0  0  0
    0.8923   -8.1506    2.6117 H   0  0  0  0  0  0  0  0  0  0  0  0
    1.8950   -8.7360    4.7998 H   0  0  0  0  0  0  0  0  0  0  0  0
    0.4709   -7.9516    5.6706 H   0  0  0  0  0  0  0  0  0  0  0  0
    4.6693   -4.3357    3.4319 H   0  0  0  0  0  0  0  0  0  0  0  0
    5.7104   -3.1706    1.3900 H   0  0  0  0  0  0  0  0  0  0  0  0
    5.9893   -0.5540    1.7687 H   0  0  0  0  0  0  0  0  0  0  0  0
    4.0327   -3.8361    5.9544 H   0  0  0  0  0  0  0  0  0  0  0  0
    0.0095   -0.1839    9.3385 H   0  0  0  0  0  0  0  0  0  0  0  0
    2.5176   -1.1687    9.5630 H   0  0  0  0  0  0  0  0  0  0  0  0
   -0.5098    0.3464    7.0660 H   0  0  0  0  0  0  0  0  0  0  0  0
   -1.6780   -1.8213    4.3380 H   0  0  0  0  0  0  0  0  0  0  0  0
   -1.9471   -1.4975    6.1307 H   0  0  0  0  0  0  0  0  0  0  0  0
  1  2  1  0
  1 48  1  0
  1 49  1  0
  1 50  1  0
  3  2  1  6
 42  3  1  6
  3 44  1  0
  3  4  1  0
  4  5  1  0
  4 51  1  0
  4 52  1  0
  5 13  1  0
  5  6  1  6
  5 10  1  0
  6  7  1  0
  7  8  1  0
  7  9  2  0
  8 53  1  0
  8 54  1  0
  8 55  1  0
 10 11  1  0
 10 12  1  0
 10 56  1  1
 11 57  1  0
 12 13  1  0
 12 58  1  0
 12 59  1  0
 13 14  1  0
 13 60  1  6
 14 16  1  0
 14 15  1  0
 14 61  1  6
 15 16  1  0
 16 17  1  0
 16 62  1  6
 17 45  1  0
 17 18  1  1
 17 19  1  0
 18 63  1  0
 19 20  1  0
 19 64  1  0
 19 65  1  0
 20 21  1  0
 20 66  1  1
 20 27  1  0
 21 22  1  0
 22 23  2  0
 22 24  1  0
 24 26  1  0
 24 25  1  0
 24 67  1  0
 25 26  1  0
 25 68  1  0
 25 69  1  0
 26 70  1  0
 26 71  1  0
 27 37  2  0
 27 28  1  0
 28 34  1  0
 28 29  1  0
 28 75  1  1
 29 33  1  0
 29 30  2  0
 30 31  1  0
 30 72  1  0
 31 32  2  0
 31 73  1  0
 32 33  1  0
 32 74  1  0
 34 35  1  0
 35 37  1  0
 35 36  2  0
 37 38  1  0
 38 39  1  1
 38 40  1  0
 38 44  1  0
 40 41  1  0
 40 42  1  0
 40 76  1  1
 41 77  1  0
 42 43  2  0
 44 45  1  0
 44 78  1  1
 45 47  1  6
 45 46  1  0
 46 47  1  0
 46 79  1  0
 46 80  1  0
M  CHG  1  39  -1
M  END
>  <i_m_ct_stereo_status>  (190) 
1

>  <s_m_source_file>  (190) 
/var/tmp/pbs.5075288.sched01/tmpo2oug7hv/195455be7ie.sdf

>  <i_m_source_file_index>  (190) 
5

>  <i_lp_mmshare_version>  (190) 
48012

>  <i_f3d_flags>  (190) 
0

>  <s_epik_input>  (190) 
TzFbQ0gyXUMxMltDQF0zKFtPSF0pW0NAQEhdNFtDQEBIXShPNClbQ0BASF01W0NAXShbQ0BASF0oW09IXSlbQ0gyXTUpKE9DKD1PKVtDSDNdKVtDSDJdW0NAXTYoT1tDSDNdKVtDQEBIXTJbQ0BdKFtPSF0pKFtDQEBIXShbT0hdKVtTK102W08tXSljN2MoYyhvYzdbT0hdKS1jOFtjSF1bY0hdW2NIXXM4KVtDQEBIXShbQ0gyXTMpT0MoPU8pW0NIXTlbQ0gyXVtDSDJdOQ==

>  <s_epik_cmdline>  (190) 
J2VwaWtfcHl0aG9uJywgJy1waHQnLCAnMi4wJywgJy1waCcsICc3LjAnLCAnLXRuJywgJzgnLCAnLW1hJywgJzIwMCcsICctaW1hZScsICc8aW5maWxlLm1hZT4nLCAnLW9tYWUnLCAnPG91dGZpbGUubWFlPic=

>  <r_epik_Ionization_Penalty>  (190) 
0.799191

>  <r_epik_Ionization_Penalty_Charging>  (190) 
0.792041

>  <r_epik_Ionization_Penalty_Neutral>  (190) 
0.00714968

>  <r_epik_State_Penalty>  (190) 
1.95546

>  <r_epik_Charging_Adjusted_Penalty>  (190) 
2.7475

>  <i_epik_Tot_Q>  (190) 
-1

>  <i_epik_Tot_abs_Q>  (190) 
1

>  <s_epik_Chemistry_Notes>  (190) 
This compound has an ester and may undergo hydrolysis at high or low pH. This compound contains an acetal/aminal-like group ( X-CH(R)-Y where X, Y are N, S, or O) that may be acid/base labile, releasing an aldehyde.

>  <s_lp_Force_Field>  (190) 
OPLS3e

>  <r_lp_Energy>  (190) 
97.6867

>  <b_lp_Chiralities_Consistent>  (190) 
1

>  <s_lp_Variant>  (190) 
75:0-12

>  <s_i_glide_gridfile>  (190) 
pfpi4k_grid

>  <i_i_glide_lignum>  (190) 
5

>  <i_i_glide_rotatable_bonds>  (190) 
10

>  <r_i_docking_score>  (190) 
-3.0454

>  <r_i_glide_ligand_efficiency>  (190) 
-0.0647958

>  <r_i_glide_ligand_efficiency_sa>  (190) 
-0.233837

>  <r_i_glide_ligand_efficiency_ln>  (190) 
-0.627899

>  <r_i_glide_gscore>  (190) 
-3.0454

>  <r_i_glide_lipo>  (190) 
-0.335799

>  <r_i_glide_hbond>  (190) 
-0.0403265

>  <r_i_glide_metal>  (190) 
-0

>  <r_i_glide_rewards>  (190) 
-0.5

>  <r_i_glide_evdw>  (190) 
-27.6018

>  <r_i_glide_ecoul>  (190) 
-5.52694

>  <r_i_glide_erotb>  (190) 
0.0500867

>  <r_i_glide_esite>  (190) 
-0.0102353

>  <r_i_glide_emodel>  (190) 
-45.8133

>  <r_i_glide_energy>  (190) 
-33.1287

>  <r_i_glide_einternal>  (190) 
0.514089

>  <r_i_glide_intrahb_reward>  (190) 
-0.5

>  <i_i_glide_confnum>  (190) 
4

>  <i_i_glide_posenum>  (190) 
34

>  <r_i_glide_eff_state_penalty>  (190) 
0

>  <ligand_id>  (190) 
75

>  <original_smiles>  (190) 
COC12CC3(OC(C)=O)C(O)CC3C3OC3C3(O)CC(OC(=O)C4CC4)c4c(-c5cccs5)oc(O)c4C(O)(C(O)[S+]1[O-])C2C31CO1

>  <smiles>  (190) 
[H]OC1([H])S(=O)C2(OC([H])([H])[H])C([H])([H])C3(OC(=O)C([H])([H])[H])C([H])(O[H])C([H])([H])C3([H])C3([H])OC3([H])C3(O[H])C([H])([H])C([H])(OC(=O)C4([H])C([H])([H])C4([H])[H])C4=C(C(=O)OC4([H])c4sc([H])c([H])c4[H])C1([O-])C2([H])C31OC1([H])[H]

$$$$
75:11:2
     RDKit          3D

 80 88  0  0  1  0  0  0  0  0999 V2000
    3.4712    2.1425    6.6024 C   0  0  0  0  0  0  0  0  0  0  0  0
    2.4903    1.2649    6.0614 O   0  0  0  0  0  0  0  0  0  0  0  0
    1.1796    1.3095    6.6222 C   0  0  2  0  0  0  0  0  0  0  0  0
    0.3340    2.5278    6.0585 C   0  0  0  0  0  0  0  0  0  0  0  0
    0.5577    3.1784    4.6306 C   0  0  2  0  0  0  0  0  0  0  0  0
    1.8886    3.7202    4.4681 O   0  0  0  0  0  0  0  0  0  0  0  0
    2.4790    4.7656    5.0971 C   0  0  0  0  0  0  0  0  0  0  0  0
    1.6414    5.5515    6.1222 C   0  0  0  0  0  0  0  0  0  0  0  0
    3.6445    5.0834    4.8321 O   0  0  0  0  0  0  0  0  0  0  0  0
   -0.5430    4.2629    4.3430 C   0  0  1  0  0  0  0  0  0  0  0  0
   -0.2371    5.4832    3.6991 O   0  0  0  0  0  0  0  0  0  0  0  0
   -1.2898    3.2694    3.4775 C   0  0  0  0  0  0  0  0  0  0  0  0
    0.0895    2.6709    3.1990 C   0  0  2  0  0  0  0  0  0  0  0  0
    0.2253    1.4012    2.3508 C   0  0  2  0  0  0  0  0  0  0  0  0
   -0.9312    0.5536    2.5031 O   0  0  0  0  0  0  0  0  0  0  0  0
    0.3112   -0.0965    2.6405 C   0  0  2  0  0  0  0  0  0  0  0  0
    0.7098   -0.7330    3.9673 C   0  0  2  0  0  0  0  0  0  0  0  0
    1.9915   -0.1790    4.0294 O   0  0  0  0  0  0  0  0  0  0  0  0
    0.9513   -2.2548    3.7583 C   0  0  0  0  0  0  0  0  0  0  0  0
    1.2214   -3.1195    5.0144 C   0  0  1  0  0  0  0  0  0  0  0  0
    1.5337   -4.4399    4.5681 O   0  0  0  0  0  0  0  0  0  0  0  0
    0.7392   -5.4929    4.8604 C   0  0  0  0  0  0  0  0  0  0  0  0
   -0.2788   -5.4507    5.5496 O   0  0  0  0  0  0  0  0  0  0  0  0
    1.2300   -6.7767    4.2160 C   0  0  0  0  0  0  0  0  0  0  0  0
    0.1853   -7.7276    3.6522 C   0  0  0  0  0  0  0  0  0  0  0  0
    0.9106   -8.0917    4.9146 C   0  0  0  0  0  0  0  0  0  0  0  0
    2.3255   -2.5677    5.9106 C   0  0  0  0  0  0  0  0  0  0  0  0
    3.7576   -3.0009    5.7484 C   0  0  1  0  0  0  0  0  0  0  0  0
    4.4077   -2.6622    4.4359 C   0  0  0  0  0  0  0  0  0  0  0  0
    4.7217   -3.5358    3.4232 C   0  0  0  0  0  0  0  0  0  0  0  0
    5.3263   -2.9156    2.2970 C   0  0  0  0  0  0  0  0  0  0  0  0
    5.4827   -1.5562    2.4556 C   0  0  0  0  0  0  0  0  0  0  0  0
    4.9478   -1.0481    4.0307 S   0  0  0  0  0  0  0  0  0  0  0  0
    4.4202   -2.2853    6.7686 O   0  0  0  0  0  0  0  0  0  0  0  0
    3.5758   -1.5272    7.4877 C   0  0  0  0  0  0  0  0  0  0  0  0
    3.9444   -0.8137    8.4186 O   0  0  0  0  0  0  0  0  0  0  0  0
    2.2014   -1.7296    6.9662 C   0  0  0  0  0  0  0  0  0  0  0  0
    0.8988   -1.0968    7.5367 C   0  0  1  0  0  0  0  0  0  0  0  0
   -0.0261   -2.0164    7.7004 O   0  0  0  0  0  0  0  0  0  0  0  0
    0.9362   -0.3153    8.9009 C   0  0  1  0  0  0  0  0  0  0  0  0
    1.6840   -0.8747    9.9543 O   0  0  0  0  0  0  0  0  0  0  0  0
    1.2698    1.4651    8.4867 S   0  0  0  0  0  0  0  0  0  0  0  0
    0.0669    2.2722    8.9620 O   0  0  0  0  0  0  0  0  0  0  0  0
    0.3753   -0.0184    6.5382 C   0  0  2  0  0  0  0  0  0  0  0  0
   -0.2325   -0.4509    5.1860 C   0  0  2  0  0  0  0  0  0  0  0  0
   -1.5665   -1.1949    5.1615 C   0  0  0  0  0  0  0  0  0  0  0  0
   -1.4919    0.2007    4.9202 O   0  0  0  0  0  0  0  0  0  0  0  0
    4.2269    2.2950    5.8318 H   0  0  0  0  0  0  0  0  0  0  0  0
    3.9770    1.7442    7.4880 H   0  0  0  0  0  0  0  0  0  0  0  0
    3.0353    3.0944    6.8516 H   0  0  0  0  0  0  0  0  0  0  0  0
   -0.7293    2.2266    6.1123 H   0  0  0  0  0  0  0  0  0  0  0  0
    0.4052    3.3061    6.7692 H   0  0  0  0  0  0  0  0  0  0  0  0
    0.7489    5.9884    5.6753 H   0  0  0  0  0  0  0  0  0  0  0  0
    2.2685    6.3857    6.5256 H   0  0  0  0  0  0  0  0  0  0  0  0
    1.4311    4.8987    6.9397 H   0  0  0  0  0  0  0  0  0  0  0  0
   -1.0989    4.4865    5.2577 H   0  0  0  0  0  0  0  0  0  0  0  0
    0.2027    5.2775    2.8860 H   0  0  0  0  0  0  0  0  0  0  0  0
   -1.9670    2.6161    4.0346 H   0  0  0  0  0  0  0  0  0  0  0  0
   -1.7677    3.7202    2.6014 H   0  0  0  0  0  0  0  0  0  0  0  0
    0.6305    3.3533    2.5383 H   0  0  0  0  0  0  0  0  0  0  0  0
    0.4194    1.6386    1.3038 H   0  0  0  0  0  0  0  0  0  0  0  0
    0.6106   -0.6807    1.7709 H   0  0  0  0  0  0  0  0  0  0  0  0
    1.9093    0.7593    4.1324 H   0  0  0  0  0  0  0  0  0  0  0  0
    0.0676   -2.6735    3.2834 H   0  0  0  0  0  0  0  0  0  0  0  0
    1.7596   -2.3919    3.0399 H   0  0  0  0  0  0  0  0  0  0  0  0
    0.2926   -3.1438    5.5840 H   0  0  0  0  0  0  0  0  0  0  0  0
    2.1791   -6.7220    3.6752 H   0  0  0  0  0  0  0  0  0  0  0  0
   -0.8713   -7.4739    3.7431 H   0  0  0  0  0  0  0  0  0  0  0  0
    0.4521   -8.2915    2.7612 H   0  0  0  0  0  0  0  0  0  0  0  0
    1.6559   -8.8796    4.8445 H   0  0  0  0  0  0  0  0  0  0  0  0
    0.3415   -8.0678    5.8447 H   0  0  0  0  0  0  0  0  0  0  0  0
    4.5365   -4.6003    3.4595 H   0  0  0  0  0  0  0  0  0  0  0  0
    5.6306   -3.4690    1.4228 H   0  0  0  0  0  0  0  0  0  0  0  0
    5.9008   -0.8414    1.7633 H   0  0  0  0  0  0  0  0  0  0  0  0
    3.8242   -4.0716    5.9449 H   0  0  0  0  0  0  0  0  0  0  0  0
   -0.0706   -0.2628    9.3235 H   0  0  0  0  0  0  0  0  0  0  0  0
    2.3989   -1.3480    9.5596 H   0  0  0  0  0  0  0  0  0  0  0  0
   -0.5477    0.2760    7.0476 H   0  0  0  0  0  0  0  0  0  0  0  0
   -1.7826   -1.8069    4.2920 H   0  0  0  0  0  0  0  0  0  0  0  0
   -2.0620   -1.4763    6.0820 H   0  0  0  0  0  0  0  0  0  0  0  0
  1  2  1  0
  1 48  1  0
  1 49  1  0
  1 50  1  0
  3  2  1  6
 42  3  1  6
  3 44  1  0
  3  4  1  0
  4  5  1  0
  4 51  1  0
  4 52  1  0
  5 13  1  0
  5  6  1  6
  5 10  1  0
  6  7  1  0
  7  8  1  0
  7  9  2  0
  8 53  1  0
  8 54  1  0
  8 55  1  0
 10 11  1  0
 10 12  1  0
 10 56  1  1
 11 57  1  0
 12 13  1  0
 12 58  1  0
 12 59  1  0
 13 14  1  0
 13 60  1  6
 14 16  1  0
 14 15  1  0
 14 61  1  6
 15 16  1  0
 16 17  1  0
 16 62  1  6
 17 45  1  0
 17 18  1  1
 17 19  1  0
 18 63  1  0
 19 20  1  0
 19 64  1  0
 19 65  1  0
 20 21  1  0
 20 66  1  1
 20 27  1  0
 21 22  1  0
 22 23  2  0
 22 24  1  0
 24 26  1  0
 24 25  1  0
 24 67  1  0
 25 26  1  0
 25 68  1  0
 25 69  1  0
 26 70  1  0
 26 71  1  0
 27 37  2  0
 27 28  1  0
 28 34  1  0
 28 29  1  0
 28 75  1  1
 29 33  1  0
 29 30  2  0
 30 31  1  0
 30 72  1  0
 31 32  2  0
 31 73  1  0
 32 33  1  0
 32 74  1  0
 34 35  1  0
 35 37  1  0
 35 36  2  0
 37 38  1  0
 38 39  1  1
 38 40  1  0
 38 44  1  0
 40 41  1  0
 40 42  1  0
 40 76  1  1
 41 77  1  0
 42 43  2  0
 44 45  1  0
 44 78  1  1
 45 47  1  6
 45 46  1  0
 46 47  1  0
 46 79  1  0
 46 80  1  0
M  CHG  1  39  -1
M  END
>  <i_m_ct_stereo_status>  (191) 
1

>  <s_m_source_file>  (191) 
/var/tmp/pbs.5075288.sched01/tmpo2oug7hv/195455be7ie.sdf

>  <i_m_source_file_index>  (191) 
5

>  <i_lp_mmshare_version>  (191) 
48012

>  <i_f3d_flags>  (191) 
0

>  <s_epik_input>  (191) 
TzFbQ0gyXUMxMltDQF0zKFtPSF0pW0NAQEhdNFtDQEBIXShPNClbQ0BASF01W0NAXShbQ0BASF0oW09IXSlbQ0gyXTUpKE9DKD1PKVtDSDNdKVtDSDJdW0NAXTYoT1tDSDNdKVtDQEBIXTJbQ0BdKFtPSF0pKFtDQEBIXShbT0hdKVtTK102W08tXSljN2MoYyhvYzdbT0hdKS1jOFtjSF1bY0hdW2NIXXM4KVtDQEBIXShbQ0gyXTMpT0MoPU8pW0NIXTlbQ0gyXVtDSDJdOQ==

>  <s_epik_cmdline>  (191) 
J2VwaWtfcHl0aG9uJywgJy1waHQnLCAnMi4wJywgJy1waCcsICc3LjAnLCAnLXRuJywgJzgnLCAnLW1hJywgJzIwMCcsICctaW1hZScsICc8aW5maWxlLm1hZT4nLCAnLW9tYWUnLCAnPG91dGZpbGUubWFlPic=

>  <r_epik_Ionization_Penalty>  (191) 
0.799191

>  <r_epik_Ionization_Penalty_Charging>  (191) 
0.792041

>  <r_epik_Ionization_Penalty_Neutral>  (191) 
0.00714968

>  <r_epik_State_Penalty>  (191) 
1.95546

>  <r_epik_Charging_Adjusted_Penalty>  (191) 
2.7475

>  <i_epik_Tot_Q>  (191) 
-1

>  <i_epik_Tot_abs_Q>  (191) 
1

>  <s_epik_Chemistry_Notes>  (191) 
This compound has an ester and may undergo hydrolysis at high or low pH. This compound contains an acetal/aminal-like group ( X-CH(R)-Y where X, Y are N, S, or O) that may be acid/base labile, releasing an aldehyde.

>  <s_lp_Force_Field>  (191) 
OPLS3e

>  <r_lp_Energy>  (191) 
97.6867

>  <b_lp_Chiralities_Consistent>  (191) 
1

>  <s_lp_Variant>  (191) 
75:0-12

>  <s_i_glide_gridfile>  (191) 
pfpi4k_grid

>  <i_i_glide_lignum>  (191) 
5

>  <i_i_glide_rotatable_bonds>  (191) 
10

>  <r_i_docking_score>  (191) 
-2.92465

>  <r_i_glide_ligand_efficiency>  (191) 
-0.0622265

>  <r_i_glide_ligand_efficiency_sa>  (191) 
-0.224565

>  <r_i_glide_ligand_efficiency_ln>  (191) 
-0.603002

>  <r_i_glide_gscore>  (191) 
-2.92465

>  <r_i_glide_lipo>  (191) 
-0.29522

>  <r_i_glide_hbond>  (191) 
-0.0666609

>  <r_i_glide_metal>  (191) 
-0

>  <r_i_glide_rewards>  (191) 
-0.5

>  <r_i_glide_evdw>  (191) 
-28.2105

>  <r_i_glide_ecoul>  (191) 
-4.60679

>  <r_i_glide_erotb>  (191) 
0.0500867

>  <r_i_glide_esite>  (191) 
-0.0113109

>  <r_i_glide_emodel>  (191) 
-42.5672

>  <r_i_glide_energy>  (191) 
-32.8173

>  <r_i_glide_einternal>  (191) 
5.13431

>  <r_i_glide_intrahb_reward>  (191) 
-0.5

>  <i_i_glide_confnum>  (191) 
4

>  <i_i_glide_posenum>  (191) 
31

>  <r_i_glide_eff_state_penalty>  (191) 
0

>  <ligand_id>  (191) 
75

>  <original_smiles>  (191) 
COC12CC3(OC(C)=O)C(O)CC3C3OC3C3(O)CC(OC(=O)C4CC4)c4c(-c5cccs5)oc(O)c4C(O)(C(O)[S+]1[O-])C2C31CO1

>  <smiles>  (191) 
[H]OC1([H])S(=O)C2(OC([H])([H])[H])C([H])([H])C3(OC(=O)C([H])([H])[H])C([H])(O[H])C([H])([H])C3([H])C3([H])OC3([H])C3(O[H])C([H])([H])C([H])(OC(=O)C4([H])C([H])([H])C4([H])[H])C4=C(C(=O)OC4([H])c4sc([H])c([H])c4[H])C1([O-])C2([H])C31OC1([H])[H]

$$$$
78:0:0
     RDKit          3D

109119  0  0  1  0  0  0  0  0999 V2000
    5.7900   -8.7180    6.1242 C   0  0  0  0  0  0  0  0  0  0  0  0
    4.8209   -8.3217    5.2742 C   0  0  0  0  0  0  0  0  0  0  0  0
    3.5990   -7.4560    5.6138 C   0  0  2  0  0  0  0  0  0  0  0  0
    3.0564   -7.7546    7.0720 C   0  0  0  0  0  0  0  0  0  0  0  0
    2.3756   -6.5008    7.5743 C   0  0  2  0  0  0  0  0  0  0  0  0
    3.2893   -5.3329    7.6123 C   0  0  2  0  0  0  0  0  0  0  0  0
    3.4680   -4.0284    6.9626 C   0  0  1  0  0  0  0  0  0  0  0  0
    2.1469   -4.3184    7.5781 C   0  0  2  0  0  0  0  0  0  0  0  0
    1.5338   -4.4188    8.9523 C   0  0  1  0  0  0  0  0  0  0  0  0
   -0.0214   -4.5328    8.9601 C   0  0  0  0  0  0  0  0  0  0  0  0
    1.8681   -6.2542    9.3562 S   0  0  0  0  0  0  0  0  0  0  0  0
    3.0783   -6.4383   10.2744 O   0  0  0  0  0  0  0  0  0  0  0  0
    2.0990   -3.1937    9.8019 C   0  0  1  0  0  0  0  0  0  0  0  0
    1.4745   -3.3216   11.2266 C   0  0  0  0  0  0  0  0  0  0  0  0
    3.6265   -3.3122   10.0778 C   0  0  0  0  0  0  0  0  0  0  0  0
    4.6568   -2.9382    9.0009 C   0  0  0  0  0  0  0  0  0  0  0  0
    4.2576   -2.8689    7.5052 C   0  0  1  0  0  0  0  0  0  0  0  0
    5.5289   -2.9103    6.8765 O   0  0  0  0  0  0  0  0  0  0  0  0
    3.5851   -1.5207    7.1446 C   0  0  1  0  0  0  0  0  0  0  0  0
    3.7430   -1.2296    5.7496 O   0  0  0  0  0  0  0  0  0  0  0  0
    4.6477   -0.3363    5.2812 C   0  0  0  0  0  0  0  0  0  0  0  0
    4.5958   -0.2035    3.7643 C   0  0  0  0  0  0  0  0  0  0  0  0
    5.4432    0.3200    5.9523 O   0  0  0  0  0  0  0  0  0  0  0  0
    2.0716   -1.2660    7.6051 C   0  0  2  0  0  0  0  0  0  0  0  0
    2.2322    0.2670    7.8961 C   0  0  0  0  0  0  0  0  0  0  0  0
    2.1915    1.1481    7.0375 O   0  0  0  0  0  0  0  0  0  0  0  0
    2.6170    0.5178    9.2722 C   0  0  0  0  0  0  0  0  0  0  0  0
    2.4154   -0.6021    9.9631 C   0  0  0  0  0  0  0  0  0  0  0  0
    1.7618   -1.7211    9.1624 C   0  0  2  0  0  0  0  0  0  0  0  0
    0.3920   -1.4793    9.4362 O   0  0  0  0  0  0  0  0  0  0  0  0
    0.8812   -1.6132    6.4649 C   0  0  1  0  0  0  0  0  0  0  0  0
   -0.0406   -2.5664    6.9133 O   0  0  0  0  0  0  0  0  0  0  0  0
   -0.0678   -0.4173    6.1649 C   0  0  0  0  0  0  0  0  0  0  0  0
   -0.7773    0.1294    7.0121 O   0  0  0  0  0  0  0  0  0  0  0  0
   -0.1145   -0.0100    4.6963 C   0  0  0  0  0  0  0  0  0  0  0  0
   -1.5716   -0.0359    4.1987 C   0  0  0  0  0  0  0  0  0  0  0  0
    0.5245    1.3674    4.4486 C   0  0  0  0  0  0  0  0  0  0  0  0
    0.6969   -1.1306    4.1111 C   0  0  0  0  0  0  0  0  0  0  0  0
    1.2023   -2.0174    4.9834 C   0  0  0  0  0  0  0  0  0  0  0  0
    1.8937   -3.2830    4.4584 C   0  0  2  0  0  0  0  0  0  0  0  0
    1.2408   -3.7669    3.2977 O   0  0  0  0  0  0  0  0  0  0  0  0
    1.3810   -4.7820    4.2996 C   0  0  2  0  0  0  0  0  0  0  0  0
   -0.0181   -5.1008    4.8355 C   0  0  0  0  0  0  0  0  0  0  0  0
    2.1786   -6.0255    3.6422 C   0  0  2  0  0  0  0  0  0  0  0  0
    3.3364   -5.4792    3.0294 O   0  0  0  0  0  0  0  0  0  0  0  0
    1.2031   -6.6397    2.6188 C   0  0  0  0  0  0  0  0  0  0  0  0
    0.9798   -6.2143    1.4872 O   0  0  0  0  0  0  0  0  0  0  0  0
    0.6077   -7.6920    3.2008 O   0  0  0  0  0  0  0  0  0  0  0  0
    1.1977   -8.0693    4.4479 C   0  0  1  0  0  0  0  0  0  0  0  0
    1.0552   -9.5905    4.6235 C   0  0  0  0  0  0  0  0  0  0  0  0
    2.6118   -7.4281    4.3405 C   0  0  2  0  0  0  0  0  0  0  0  0
    3.4485   -8.2686    3.3141 C   0  0  2  0  0  0  0  0  0  0  0  0
    3.7659   -9.6508    3.6047 O   0  0  0  0  0  0  0  0  0  0  0  0
    4.7784   -8.6861    3.8509 C   0  0  2  0  0  0  0  0  0  0  0  0
    6.0641   -8.8273    3.0245 C   0  0  0  0  0  0  0  0  0  0  0  0
    6.8900   -7.5276    3.0248 C   0  0  0  0  0  0  0  0  0  0  0  0
    5.8189   -9.2953    1.5749 C   0  0  0  0  0  0  0  0  0  0  0  0
    6.5958   -9.3476    5.7848 H   0  0  0  0  0  0  0  0  0  0  0  0
    5.8087   -8.4439    7.1657 H   0  0  0  0  0  0  0  0  0  0  0  0
    4.0810   -6.4817    5.6017 H   0  0  0  0  0  0  0  0  0  0  0  0
    2.3630   -8.5936    7.0725 H   0  0  0  0  0  0  0  0  0  0  0  0
    3.8399   -8.0249    7.7758 H   0  0  0  0  0  0  0  0  0  0  0  0
    1.4919   -6.4127    6.9493 H   0  0  0  0  0  0  0  0  0  0  0  0
    4.0519   -5.4299    8.3855 H   0  0  0  0  0  0  0  0  0  0  0  0
    3.6457   -4.1937    5.9101 H   0  0  0  0  0  0  0  0  0  0  0  0
    1.4060   -4.3964    6.8097 H   0  0  0  0  0  0  0  0  0  0  0  0
   -0.5659   -3.6010    9.0178 H   0  0  0  0  0  0  0  0  0  0  0  0
   -0.3691   -5.0822    9.8337 H   0  0  0  0  0  0  0  0  0  0  0  0
   -0.3967   -5.0751    8.0939 H   0  0  0  0  0  0  0  0  0  0  0  0
    1.8246   -2.5462   11.9085 H   0  0  0  0  0  0  0  0  0  0  0  0
    1.7416   -4.2781   11.6789 H   0  0  0  0  0  0  0  0  0  0  0  0
    0.3863   -3.2703   11.2306 H   0  0  0  0  0  0  0  0  0  0  0  0
    3.8833   -2.7099   10.9505 H   0  0  0  0  0  0  0  0  0  0  0  0
    3.8589   -4.3124   10.4241 H   0  0  0  0  0  0  0  0  0  0  0  0
    5.0988   -1.9797    9.2786 H   0  0  0  0  0  0  0  0  0  0  0  0
    5.4802   -3.6449    9.1277 H   0  0  0  0  0  0  0  0  0  0  0  0
    5.9356   -3.7406    7.0771 H   0  0  0  0  0  0  0  0  0  0  0  0
    4.2346   -0.8105    7.6616 H   0  0  0  0  0  0  0  0  0  0  0  0
    4.7448   -1.1748    3.2909 H   0  0  0  0  0  0  0  0  0  0  0  0
    5.3729    0.4752    3.4096 H   0  0  0  0  0  0  0  0  0  0  0  0
    3.6278    0.1898    3.4512 H   0  0  0  0  0  0  0  0  0  0  0  0
    3.0272    1.4532    9.6331 H   0  0  0  0  0  0  0  0  0  0  0  0
    2.6540   -0.6907   11.0136 H   0  0  0  0  0  0  0  0  0  0  0  0
    0.2987   -1.4152   10.3772 H   0  0  0  0  0  0  0  0  0  0  0  0
    0.4413   -3.3282    7.2004 H   0  0  0  0  0  0  0  0  0  0  0  0
   -2.0513   -0.9916    4.4122 H   0  0  0  0  0  0  0  0  0  0  0  0
   -1.6238    0.1430    3.1252 H   0  0  0  0  0  0  0  0  0  0  0  0
   -2.1745    0.7373    4.6740 H   0  0  0  0  0  0  0  0  0  0  0  0
    1.5996    1.3373    4.6166 H   0  0  0  0  0  0  0  0  0  0  0  0
    0.1058    2.1252    5.1129 H   0  0  0  0  0  0  0  0  0  0  0  0
    0.3689    1.7036    3.4217 H   0  0  0  0  0  0  0  0  0  0  0  0
    0.7694   -1.2363    3.0382 H   0  0  0  0  0  0  0  0  0  0  0  0
    2.9416   -3.0900    4.2766 H   0  0  0  0  0  0  0  0  0  0  0  0
   -0.0309   -5.7201    5.7251 H   0  0  0  0  0  0  0  0  0  0  0  0
   -0.6433   -5.5740    4.0848 H   0  0  0  0  0  0  0  0  0  0  0  0
   -0.5300   -4.1710    5.0755 H   0  0  0  0  0  0  0  0  0  0  0  0
    3.7554   -6.1502    2.5120 H   0  0  0  0  0  0  0  0  0  0  0  0
    0.6529   -7.6004    5.2614 H   0  0  0  0  0  0  0  0  0  0  0  0
    1.6428   -9.9762    5.4557 H   0  0  0  0  0  0  0  0  0  0  0  0
    1.3418  -10.1362    3.7246 H   0  0  0  0  0  0  0  0  0  0  0  0
    0.0117   -9.8404    4.8175 H   0  0  0  0  0  0  0  0  0  0  0  0
    3.3430   -8.0801    2.2473 H   0  0  0  0  0  0  0  0  0  0  0  0
    6.6691   -9.6010    3.4975 H   0  0  0  0  0  0  0  0  0  0  0  0
    6.3263   -6.7086    2.5771 H   0  0  0  0  0  0  0  0  0  0  0  0
    7.8164   -7.6430    2.4562 H   0  0  0  0  0  0  0  0  0  0  0  0
    7.1694   -7.2268    4.0348 H   0  0  0  0  0  0  0  0  0  0  0  0
    5.2524   -8.5602    1.0001 H   0  0  0  0  0  0  0  0  0  0  0  0
    5.2709  -10.2408    1.5460 H   0  0  0  0  0  0  0  0  0  0  0  0
    6.7628   -9.4587    1.0480 H   0  0  0  0  0  0  0  0  0  0  0  0
  1  2  2  0
  1 58  1  0
  1 59  1  0
  2 54  1  0
  2  3  1  0
  3 51  1  0
  3  4  1  0
  3 60  1  1
  4  5  1  0
  4 61  1  0
  4 62  1  0
  5 11  1  0
  5  6  1  0
  5 63  1  6
  6  8  1  0
  6  7  1  0
  6 64  1  1
  7 17  1  0
  7  8  1  0
  7 65  1  6
  8  9  1  0
  8 66  1  6
  9 10  1  6
 11  9  1  6
  9 13  1  0
 10 67  1  0
 10 68  1  0
 10 69  1  0
 11 12  2  0
 13 29  1  0
 13 14  1  1
 13 15  1  0
 14 70  1  0
 14 71  1  0
 14 72  1  0
 15 16  1  0
 15 73  1  0
 15 74  1  0
 16 17  1  0
 16 75  1  0
 16 76  1  0
 17 18  1  6
 17 19  1  0
 18 77  1  0
 19 20  1  0
 19 24  1  0
 19 78  1  1
 20 21  1  0
 21 22  1  0
 21 23  2  0
 22 79  1  0
 22 80  1  0
 22 81  1  0
 24 29  1  0
 24 25  1  1
 24 31  1  0
 25 26  2  0
 25 27  1  0
 27 28  2  0
 27 82  1  0
 28 29  1  0
 28 83  1  0
 29 30  1  6
 30 84  1  0
 31 39  1  0
 31 32  1  1
 31 33  1  0
 32 85  1  0
 33 34  2  0
 33 35  1  0
 35 36  1  0
 35 37  1  0
 35 38  1  0
 36 86  1  0
 36 87  1  0
 36 88  1  0
 37 89  1  0
 37 90  1  0
 37 91  1  0
 38 39  2  0
 38 92  1  0
 39 40  1  0
 40 42  1  0
 40 41  1  0
 40 93  1  6
 41 42  1  0
 42 43  1  1
 42 44  1  0
 43 94  1  0
 43 95  1  0
 43 96  1  0
 51 44  1  6
 44 45  1  6
 44 46  1  0
 45 97  1  0
 46 47  2  0
 46 48  1  0
 48 49  1  0
 49 50  1  0
 49 51  1  0
 49 98  1  1
 50 99  1  0
 50100  1  0
 50101  1  0
 51 52  1  0
 52 54  1  0
 52 53  1  0
 52102  1  6
 53 54  1  0
 54 55  1  6
 55 56  1  0
 55 57  1  0
 55103  1  0
 56104  1  0
 56105  1  0
 56106  1  0
 57107  1  0
 57108  1  0
 57109  1  0
M  END
>  <i_m_ct_stereo_status>  (192) 
1

>  <s_m_source_file>  (192) 
/var/tmp/pbs.5075288.sched01/tmpo2oug7hv/195455be7ie.sdf

>  <i_m_source_file_index>  (192) 
8

>  <i_lp_mmshare_version>  (192) 
48012

>  <i_f3d_flags>  (192) 
0

>  <s_epik_input>  (192) 
W0NIM11DKFtDSDNdKShbQ0hdPTEpQyg9TylbQ0BAXTIoW09IXSlDMVtDQEhdKE8zKVtDQF0zKFtDSDNdKVtDQF0oW09IXSkoQyg9TylPW0NASF00W0NIM10pW0NAQF00KFtDQEhdNVtDQF0oTzUpKEM2PVtDSDJdKVtDSF0oW0NIM10pW0NIM10pW0NAQEhdNltDSDJdW0NAQEhdKFtTK103W08tXSlbQ0BASF0oW0NAQEhdOFtDQF0oW09IXSkoW0NIMl1bQ0gyXTkpW0NASF0xT0MoPU8pW0NIM10pW0NASF04W0NAXTcoW0NIM10pW0NAXTkoW0NIM10pW0NAQF0oW0NAQF0xMjMpKFtPSF0pW0NIXT1bQ0hdQzM9Tw==

>  <s_epik_cmdline>  (192) 
J2VwaWtfcHl0aG9uJywgJy1waHQnLCAnMi4wJywgJy1waCcsICc3LjAnLCAnLXRuJywgJzgnLCAnLW1hJywgJzIwMCcsICctaW1hZScsICc8aW5maWxlLm1hZT4nLCAnLW9tYWUnLCAnPG91dGZpbGUubWFlPic=

>  <r_lp_tautomer_probability>  (192) 
1

>  <r_epik_Ionization_Penalty>  (192) 
1.83493e-05

>  <r_epik_Ionization_Penalty_Charging>  (192) 
0

>  <r_epik_Ionization_Penalty_Neutral>  (192) 
1.83493e-05

>  <r_epik_State_Penalty>  (192) 
-0

>  <r_epik_Charging_Adjusted_Penalty>  (192) 
0

>  <i_epik_Tot_Q>  (192) 
0

>  <i_epik_Tot_abs_Q>  (192) 
2

>  <s_epik_Chemistry_Notes>  (192) 
This compound has an ester and may undergo hydrolysis at high or low pH.

>  <s_lp_Force_Field>  (192) 
OPLS3e

>  <r_lp_Energy>  (192) 
218.888

>  <b_lp_Chiralities_Consistent>  (192) 
1

>  <s_lp_Variant>  (192) 
78:0-1

>  <s_i_glide_gridfile>  (192) 
pfpi4k_grid

>  <i_i_glide_lignum>  (192) 
8

>  <i_i_glide_rotatable_bonds>  (192) 
7

>  <r_i_docking_score>  (192) 
-2.48242

>  <r_i_glide_ligand_efficiency>  (192) 
-0.0435512

>  <r_i_glide_ligand_efficiency_sa>  (192) 
-0.167607

>  <r_i_glide_ligand_efficiency_ln>  (192) 
-0.492245

>  <r_i_glide_gscore>  (192) 
-2.48242

>  <r_i_glide_lipo>  (192) 
-0.0974033

>  <r_i_glide_hbond>  (192) 
-0.246092

>  <r_i_glide_metal>  (192) 
-0

>  <r_i_glide_rewards>  (192) 
-0.0293431

>  <r_i_glide_evdw>  (192) 
-26.1538

>  <r_i_glide_ecoul>  (192) 
-5.13879

>  <r_i_glide_erotb>  (192) 
0.0333214

>  <r_i_glide_esite>  (192) 
-0.0643934

>  <r_i_glide_emodel>  (192) 
-35.957

>  <r_i_glide_energy>  (192) 
-31.2926

>  <r_i_glide_einternal>  (192) 
1.88858

>  <r_i_glide_intrahb_reward>  (192) 
-0

>  <i_i_glide_confnum>  (192) 
1

>  <i_i_glide_posenum>  (192) 
21

>  <r_i_glide_eff_state_penalty>  (192) 
0

>  <ligand_id>  (192) 
78

>  <original_smiles>  (192) 
C=C1C2CC3C4C5C4C(C)([S+]3[O-])C3(C)CCC5(O)C(OC(C)=O)C4(C(=O)C=CC34O)C3(O)C(=O)C(C)(C)C=C3C3OC3(C)C3(O)C(=O)OC(C)C23C2OC12C(C)C

>  <smiles>  (192) 
[H]OC12C(=O)C(C([H])([H])[H])(C([H])([H])[H])C([H])=C1C1([H])OC1(C([H])([H])[H])C1(O[H])C(=O)OC([H])(C([H])([H])[H])C13C1([H])OC1(C([H])(C([H])([H])[H])C([H])([H])[H])C(=C([H])[H])C3([H])C([H])([H])C1([H])S(=O)C3(C([H])([H])[H])C4([H])C1([H])C4([H])C1(O[H])C([H])([H])C([H])([H])C3(C([H])([H])[H])C3(O[H])C([H])=C([H])C(=O)C23C1([H])OC(=O)C([H])([H])[H]

$$$$
78:0:1
     RDKit          3D

109119  0  0  1  0  0  0  0  0999 V2000
    5.3817   -9.6781    5.6791 C   0  0  0  0  0  0  0  0  0  0  0  0
    4.4796   -9.1723    4.8123 C   0  0  0  0  0  0  0  0  0  0  0  0
    3.3136   -8.2377    5.1730 C   0  0  2  0  0  0  0  0  0  0  0  0
    2.6967   -8.6027    6.5843 C   0  0  0  0  0  0  0  0  0  0  0  0
    2.0990   -7.3420    7.1657 C   0  0  2  0  0  0  0  0  0  0  0  0
    3.0995   -6.2579    7.3245 C   0  0  2  0  0  0  0  0  0  0  0  0
    3.3984   -4.9239    6.7888 C   0  0  1  0  0  0  0  0  0  0  0  0
    2.0388   -5.1574    7.3394 C   0  0  2  0  0  0  0  0  0  0  0  0
    1.3745   -5.3161    8.6827 C   0  0  1  0  0  0  0  0  0  0  0  0
   -0.1824   -5.3061    8.6374 C   0  0  0  0  0  0  0  0  0  0  0  0
    1.5517   -7.1984    8.9470 S   0  0  0  0  0  0  0  0  0  0  0  0
    2.7117   -7.5495    9.8815 O   0  0  0  0  0  0  0  0  0  0  0  0
    1.9996   -4.2112    9.6466 C   0  0  1  0  0  0  0  0  0  0  0  0
    1.3177   -4.4031   11.0381 C   0  0  0  0  0  0  0  0  0  0  0  0
    3.5031   -4.4717    9.9557 C   0  0  0  0  0  0  0  0  0  0  0  0
    4.5951   -4.0958    8.9427 C   0  0  0  0  0  0  0  0  0  0  0  0
    4.2538   -3.8766    7.4473 C   0  0  1  0  0  0  0  0  0  0  0  0
    5.5392   -3.9660    6.8536 O   0  0  0  0  0  0  0  0  0  0  0  0
    3.6996   -2.4555    7.1793 C   0  0  1  0  0  0  0  0  0  0  0  0
    3.9278   -2.0691    5.8179 O   0  0  0  0  0  0  0  0  0  0  0  0
    4.9098   -1.2112    5.4511 C   0  0  0  0  0  0  0  0  0  0  0  0
    4.9273   -0.9620    3.9480 C   0  0  0  0  0  0  0  0  0  0  0  0
    5.7220   -0.6666    6.1978 O   0  0  0  0  0  0  0  0  0  0  0  0
    2.1957   -2.1204    7.6150 C   0  0  2  0  0  0  0  0  0  0  0  0
    2.4620   -0.6327    8.0348 C   0  0  0  0  0  0  0  0  0  0  0  0
    2.5211    0.3142    7.2504 O   0  0  0  0  0  0  0  0  0  0  0  0
    2.8168   -0.5233    9.4374 C   0  0  0  0  0  0  0  0  0  0  0  0
    2.5064   -1.6747   10.0292 C   0  0  0  0  0  0  0  0  0  0  0  0
    1.7977   -2.6711    9.1207 C   0  0  2  0  0  0  0  0  0  0  0  0
    0.4415   -2.3466    9.3743 O   0  0  0  0  0  0  0  0  0  0  0  0
    1.0239   -2.2823    6.4147 C   0  0  1  0  0  0  0  0  0  0  0  0
    0.0165   -3.1909    6.7580 O   0  0  0  0  0  0  0  0  0  0  0  0
    0.1787   -0.9976    6.1880 C   0  0  0  0  0  0  0  0  0  0  0  0
   -0.5191   -0.4728    7.0571 O   0  0  0  0  0  0  0  0  0  0  0  0
    0.2116   -0.4693    4.7580 C   0  0  0  0  0  0  0  0  0  0  0  0
   -1.2273   -0.3386    4.2220 C   0  0  0  0  0  0  0  0  0  0  0  0
    0.9624    0.8691    4.6424 C   0  0  0  0  0  0  0  0  0  0  0  0
    0.9543   -1.6010    4.1037 C   0  0  0  0  0  0  0  0  0  0  0  0
    1.3630   -2.5917    4.9148 C   0  0  0  0  0  0  0  0  0  0  0  0
    1.9771   -3.8626    4.3134 C   0  0  2  0  0  0  0  0  0  0  0  0
    1.3381   -4.2016    3.0976 O   0  0  0  0  0  0  0  0  0  0  0  0
    1.3561   -5.2984    4.0177 C   0  0  2  0  0  0  0  0  0  0  0  0
   -0.0837   -5.5466    4.4826 C   0  0  0  0  0  0  0  0  0  0  0  0
    2.0775   -6.5448    3.2862 C   0  0  2  0  0  0  0  0  0  0  0  0
    3.2929   -6.0457    2.7509 O   0  0  0  0  0  0  0  0  0  0  0  0
    1.0915   -6.9855    2.1869 C   0  0  0  0  0  0  0  0  0  0  0  0
    0.9296   -6.4321    1.0999 O   0  0  0  0  0  0  0  0  0  0  0  0
    0.4007   -8.0375    2.6575 O   0  0  0  0  0  0  0  0  0  0  0  0
    0.9151   -8.5611    3.8872 C   0  0  1  0  0  0  0  0  0  0  0  0
    0.6573  -10.0748    3.9315 C   0  0  0  0  0  0  0  0  0  0  0  0
    2.3765   -8.0292    3.8800 C   0  0  2  0  0  0  0  0  0  0  0  0
    3.1832   -8.8460    2.8156 C   0  0  2  0  0  0  0  0  0  0  0  0
    3.3702  -10.2637    2.9781 O   0  0  0  0  0  0  0  0  0  0  0  0
    4.4631   -9.4389    3.3602 C   0  0  2  0  0  0  0  0  0  0  0  0
    5.7603   -9.5866    2.5398 C   0  0  0  0  0  0  0  0  0  0  0  0
    5.5680   -9.1978    1.0611 C   0  0  0  0  0  0  0  0  0  0  0  0
    6.3983  -10.9962    2.6012 C   0  0  0  0  0  0  0  0  0  0  0  0
    6.1646  -10.3338    5.3518 H   0  0  0  0  0  0  0  0  0  0  0  0
    5.3631   -9.4674    6.7349 H   0  0  0  0  0  0  0  0  0  0  0  0
    3.8666   -7.3044    5.2515 H   0  0  0  0  0  0  0  0  0  0  0  0
    1.9444   -9.3844    6.4966 H   0  0  0  0  0  0  0  0  0  0  0  0
    3.4287   -8.9885    7.2885 H   0  0  0  0  0  0  0  0  0  0  0  0
    1.2471   -7.1372    6.5237 H   0  0  0  0  0  0  0  0  0  0  0  0
    3.8254   -6.4759    8.1094 H   0  0  0  0  0  0  0  0  0  0  0  0
    3.5987   -5.0182    5.7318 H   0  0  0  0  0  0  0  0  0  0  0  0
    1.3198   -5.1147    6.5472 H   0  0  0  0  0  0  0  0  0  0  0  0
   -0.6604   -4.3432    8.7537 H   0  0  0  0  0  0  0  0  0  0  0  0
   -0.5874   -5.8888    9.4607 H   0  0  0  0  0  0  0  0  0  0  0  0
   -0.5717   -5.7525    7.7236 H   0  0  0  0  0  0  0  0  0  0  0  0
    1.7023   -3.7141   11.7907 H   0  0  0  0  0  0  0  0  0  0  0  0
    1.4964   -5.4106   11.4183 H   0  0  0  0  0  0  0  0  0  0  0  0
    0.2368   -4.2682   11.0163 H   0  0  0  0  0  0  0  0  0  0  0  0
    3.7745   -3.9625   10.8817 H   0  0  0  0  0  0  0  0  0  0  0  0
    3.6471   -5.5116   10.2257 H   0  0  0  0  0  0  0  0  0  0  0  0
    5.0985   -3.1999    9.3101 H   0  0  0  0  0  0  0  0  0  0  0  0
    5.3574   -4.8731    9.0339 H   0  0  0  0  0  0  0  0  0  0  0  0
    5.8747   -4.8394    6.9959 H   0  0  0  0  0  0  0  0  0  0  0  0
    4.3829   -1.8422    7.7711 H   0  0  0  0  0  0  0  0  0  0  0  0
    5.0257   -1.9038    3.4067 H   0  0  0  0  0  0  0  0  0  0  0  0
    5.7639   -0.3180    3.6711 H   0  0  0  0  0  0  0  0  0  0  0  0
    4.0021   -0.4775    3.6334 H   0  0  0  0  0  0  0  0  0  0  0  0
    3.2846    0.3452    9.8858 H   0  0  0  0  0  0  0  0  0  0  0  0
    2.7004   -1.8642   11.0761 H   0  0  0  0  0  0  0  0  0  0  0  0
    0.2976   -2.4511   10.3048 H   0  0  0  0  0  0  0  0  0  0  0  0
    0.4249   -4.0033    7.0195 H   0  0  0  0  0  0  0  0  0  0  0  0
   -1.7793   -1.2696    4.3462 H   0  0  0  0  0  0  0  0  0  0  0  0
   -1.2316   -0.0800    3.1646 H   0  0  0  0  0  0  0  0  0  0  0  0
   -1.7900    0.4391    4.7391 H   0  0  0  0  0  0  0  0  0  0  0  0
    2.0261    0.7412    4.8375 H   0  0  0  0  0  0  0  0  0  0  0  0
    0.5801    1.6023    5.3548 H   0  0  0  0  0  0  0  0  0  0  0  0
    0.8682    1.2978    3.6424 H   0  0  0  0  0  0  0  0  0  0  0  0
    1.0555   -1.6262    3.0281 H   0  0  0  0  0  0  0  0  0  0  0  0
    3.0429   -3.7358    4.1782 H   0  0  0  0  0  0  0  0  0  0  0  0
   -0.1718   -6.2317    5.3189 H   0  0  0  0  0  0  0  0  0  0  0  0
   -0.7240   -5.9019    3.6835 H   0  0  0  0  0  0  0  0  0  0  0  0
   -0.5234   -4.6020    4.7938 H   0  0  0  0  0  0  0  0  0  0  0  0
    3.6791   -6.7068    2.1962 H   0  0  0  0  0  0  0  0  0  0  0  0
    0.3780   -8.1210    4.7222 H   0  0  0  0  0  0  0  0  0  0  0  0
    1.1795  -10.5710    4.7494 H   0  0  0  0  0  0  0  0  0  0  0  0
    0.9311  -10.5699    2.9995 H   0  0  0  0  0  0  0  0  0  0  0  0
   -0.4074  -10.2497    4.0697 H   0  0  0  0  0  0  0  0  0  0  0  0
    3.0905   -8.5740    1.7652 H   0  0  0  0  0  0  0  0  0  0  0  0
    6.4770   -8.8756    2.9542 H   0  0  0  0  0  0  0  0  0  0  0  0
    4.8374   -9.8542    0.5779 H   0  0  0  0  0  0  0  0  0  0  0  0
    6.5006   -9.2790    0.4972 H   0  0  0  0  0  0  0  0  0  0  0  0
    5.2175   -8.1685    0.9579 H   0  0  0  0  0  0  0  0  0  0  0  0
    5.7519  -11.7466    2.1415 H   0  0  0  0  0  0  0  0  0  0  0  0
    6.6273  -11.3422    3.6071 H   0  0  0  0  0  0  0  0  0  0  0  0
    7.3471  -11.0095    2.0603 H   0  0  0  0  0  0  0  0  0  0  0  0
  1  2  2  0
  1 58  1  0
  1 59  1  0
  2 54  1  0
  2  3  1  0
  3 51  1  0
  3  4  1  0
  3 60  1  1
  4  5  1  0
  4 61  1  0
  4 62  1  0
  5 11  1  0
  5  6  1  0
  5 63  1  6
  6  8  1  0
  6  7  1  0
  6 64  1  1
  7 17  1  0
  7  8  1  0
  7 65  1  6
  8  9  1  0
  8 66  1  6
  9 10  1  6
 11  9  1  1
  9 13  1  0
 10 67  1  0
 10 68  1  0
 10 69  1  0
 11 12  2  0
 13 29  1  0
 13 14  1  1
 13 15  1  0
 14 70  1  0
 14 71  1  0
 14 72  1  0
 15 16  1  0
 15 73  1  0
 15 74  1  0
 16 17  1  0
 16 75  1  0
 16 76  1  0
 17 18  1  6
 17 19  1  0
 18 77  1  0
 19 20  1  0
 19 24  1  0
 19 78  1  1
 20 21  1  0
 21 22  1  0
 21 23  2  0
 22 79  1  0
 22 80  1  0
 22 81  1  0
 24 29  1  0
 24 25  1  1
 24 31  1  0
 25 26  2  0
 25 27  1  0
 27 28  2  0
 27 82  1  0
 28 29  1  0
 28 83  1  0
 29 30  1  6
 30 84  1  0
 31 39  1  0
 31 32  1  1
 31 33  1  0
 32 85  1  0
 33 34  2  0
 33 35  1  0
 35 36  1  0
 35 37  1  0
 35 38  1  0
 36 86  1  0
 36 87  1  0
 36 88  1  0
 37 89  1  0
 37 90  1  0
 37 91  1  0
 38 39  2  0
 38 92  1  0
 39 40  1  0
 40 42  1  0
 40 41  1  0
 40 93  1  6
 41 42  1  0
 42 43  1  1
 42 44  1  0
 43 94  1  0
 43 95  1  0
 43 96  1  0
 51 44  1  6
 44 45  1  6
 44 46  1  0
 45 97  1  0
 46 47  2  0
 46 48  1  0
 48 49  1  0
 49 50  1  0
 49 51  1  0
 49 98  1  1
 50 99  1  0
 50100  1  0
 50101  1  0
 51 52  1  0
 52 54  1  0
 52 53  1  0
 52102  1  6
 53 54  1  0
 54 55  1  6
 55 56  1  0
 55 57  1  0
 55103  1  0
 56104  1  0
 56105  1  0
 56106  1  0
 57107  1  0
 57108  1  0
 57109  1  0
M  END
>  <i_m_ct_stereo_status>  (193) 
1

>  <s_m_source_file>  (193) 
/var/tmp/pbs.5075288.sched01/tmpo2oug7hv/195455be7ie.sdf

>  <i_m_source_file_index>  (193) 
8

>  <i_lp_mmshare_version>  (193) 
48012

>  <i_f3d_flags>  (193) 
0

>  <s_epik_input>  (193) 
W0NIM11DKFtDSDNdKShbQ0hdPTEpQyg9TylbQ0BAXTIoW09IXSlDMVtDQEhdKE8zKVtDQF0zKFtDSDNdKVtDQF0oW09IXSkoQyg9TylPW0NASF00W0NIM10pW0NAQF00KFtDQEhdNVtDQF0oTzUpKEM2PVtDSDJdKVtDSF0oW0NIM10pW0NIM10pW0NAQEhdNltDSDJdW0NAQEhdKFtTK103W08tXSlbQ0BASF0oW0NAQEhdOFtDQF0oW09IXSkoW0NIMl1bQ0gyXTkpW0NASF0xT0MoPU8pW0NIM10pW0NASF04W0NAXTcoW0NIM10pW0NAXTkoW0NIM10pW0NAQF0oW0NAQF0xMjMpKFtPSF0pW0NIXT1bQ0hdQzM9Tw==

>  <s_epik_cmdline>  (193) 
J2VwaWtfcHl0aG9uJywgJy1waHQnLCAnMi4wJywgJy1waCcsICc3LjAnLCAnLXRuJywgJzgnLCAnLW1hJywgJzIwMCcsICctaW1hZScsICc8aW5maWxlLm1hZT4nLCAnLW9tYWUnLCAnPG91dGZpbGUubWFlPic=

>  <r_lp_tautomer_probability>  (193) 
1

>  <r_epik_Ionization_Penalty>  (193) 
1.83493e-05

>  <r_epik_Ionization_Penalty_Charging>  (193) 
0

>  <r_epik_Ionization_Penalty_Neutral>  (193) 
1.83493e-05

>  <r_epik_State_Penalty>  (193) 
-0

>  <r_epik_Charging_Adjusted_Penalty>  (193) 
0

>  <i_epik_Tot_Q>  (193) 
0

>  <i_epik_Tot_abs_Q>  (193) 
2

>  <s_epik_Chemistry_Notes>  (193) 
This compound has an ester and may undergo hydrolysis at high or low pH.

>  <s_lp_Force_Field>  (193) 
OPLS3e

>  <r_lp_Energy>  (193) 
218.888

>  <b_lp_Chiralities_Consistent>  (193) 
1

>  <s_lp_Variant>  (193) 
78:0-1

>  <s_i_glide_gridfile>  (193) 
pfpi4k_grid

>  <i_i_glide_lignum>  (193) 
8

>  <i_i_glide_rotatable_bonds>  (193) 
7

>  <r_i_docking_score>  (193) 
-2.41104

>  <r_i_glide_ligand_efficiency>  (193) 
-0.0422989

>  <r_i_glide_ligand_efficiency_sa>  (193) 
-0.162787

>  <r_i_glide_ligand_efficiency_ln>  (193) 
-0.478091

>  <r_i_glide_gscore>  (193) 
-2.41104

>  <r_i_glide_lipo>  (193) 
-0.0817196

>  <r_i_glide_hbond>  (193) 
-0.177152

>  <r_i_glide_metal>  (193) 
-0

>  <r_i_glide_rewards>  (193) 
-0.0324033

>  <r_i_glide_evdw>  (193) 
-29.1844

>  <r_i_glide_ecoul>  (193) 
-4.15751

>  <r_i_glide_erotb>  (193) 
0.0333214

>  <r_i_glide_esite>  (193) 
-0.0702359

>  <r_i_glide_emodel>  (193) 
-37.165

>  <r_i_glide_energy>  (193) 
-33.3419

>  <r_i_glide_einternal>  (193) 
2.70832

>  <r_i_glide_intrahb_reward>  (193) 
-0

>  <i_i_glide_confnum>  (193) 
1

>  <i_i_glide_posenum>  (193) 
33

>  <r_i_glide_eff_state_penalty>  (193) 
0

>  <ligand_id>  (193) 
78

>  <original_smiles>  (193) 
C=C1C2CC3C4C5C4C(C)([S+]3[O-])C3(C)CCC5(O)C(OC(C)=O)C4(C(=O)C=CC34O)C3(O)C(=O)C(C)(C)C=C3C3OC3(C)C3(O)C(=O)OC(C)C23C2OC12C(C)C

>  <smiles>  (193) 
[H]OC12C(=O)C(C([H])([H])[H])(C([H])([H])[H])C([H])=C1C1([H])OC1(C([H])([H])[H])C1(O[H])C(=O)OC([H])(C([H])([H])[H])C13C1([H])OC1(C([H])(C([H])([H])[H])C([H])([H])[H])C(=C([H])[H])C3([H])C([H])([H])C1([H])S(=O)C3(C([H])([H])[H])C4([H])C1([H])C4([H])C1(O[H])C([H])([H])C([H])([H])C3(C([H])([H])[H])C3(O[H])C([H])=C([H])C(=O)C23C1([H])OC(=O)C([H])([H])[H]

$$$$
78:0:2
     RDKit          3D

109119  0  0  1  0  0  0  0  0999 V2000
    5.3399  -10.0958    5.1550 C   0  0  0  0  0  0  0  0  0  0  0  0
    4.4176   -9.5099    4.3542 C   0  0  0  0  0  0  0  0  0  0  0  0
    3.3133   -8.5717    4.7941 C   0  0  2  0  0  0  0  0  0  0  0  0
    2.7642   -8.9873    6.2304 C   0  0  0  0  0  0  0  0  0  0  0  0
    2.2454   -7.7352    6.9042 C   0  0  2  0  0  0  0  0  0  0  0  0
    3.2995   -6.6907    7.0457 C   0  0  2  0  0  0  0  0  0  0  0  0
    3.5988   -5.3462    6.5367 C   0  0  1  0  0  0  0  0  0  0  0  0
    2.2729   -5.5585    7.1628 C   0  0  2  0  0  0  0  0  0  0  0  0
    1.6966   -5.7611    8.5534 C   0  0  1  0  0  0  0  0  0  0  0  0
    0.1352   -5.7047    8.6038 C   0  0  0  0  0  0  0  0  0  0  0  0
    1.8248   -7.6560    8.7266 S   0  0  0  0  0  0  0  0  0  0  0  0
    3.0351   -8.0742    9.5623 O   0  0  0  0  0  0  0  0  0  0  0  0
    2.4152   -4.7157    9.5063 C   0  0  1  0  0  0  0  0  0  0  0  0
    1.8219   -4.9458   10.9335 C   0  0  0  0  0  0  0  0  0  0  0  0
    3.9291   -5.0310    9.7055 C   0  0  0  0  0  0  0  0  0  0  0  0
    4.9617   -4.6407    8.6365 C   0  0  0  0  0  0  0  0  0  0  0  0
    4.5304   -4.3455    7.1816 C   0  0  1  0  0  0  0  0  0  0  0  0
    5.7660   -4.4347    6.4943 O   0  0  0  0  0  0  0  0  0  0  0  0
    4.0000   -2.9034    7.0033 C   0  0  1  0  0  0  0  0  0  0  0  0
    4.1623   -2.4773    5.6446 O   0  0  0  0  0  0  0  0  0  0  0  0
    5.0105   -1.4888    5.2788 C   0  0  0  0  0  0  0  0  0  0  0  0
    4.9810   -1.2215    3.7823 C   0  0  0  0  0  0  0  0  0  0  0  0
    5.7416   -0.8401    6.0313 O   0  0  0  0  0  0  0  0  0  0  0  0
    2.5483   -2.5461    7.5651 C   0  0  2  0  0  0  0  0  0  0  0  0
    2.8741   -1.0791    8.0155 C   0  0  0  0  0  0  0  0  0  0  0  0
    2.8913   -0.1024    7.2818 O   0  0  0  0  0  0  0  0  0  0  0  0
    3.3286   -1.0443    9.3973 C   0  0  0  0  0  0  0  0  0  0  0  0
    3.0273   -2.2094    9.9588 C   0  0  0  0  0  0  0  0  0  0  0  0
    2.2296   -3.1462    9.0563 C   0  0  2  0  0  0  0  0  0  0  0  0
    0.9115   -2.7953    9.4086 O   0  0  0  0  0  0  0  0  0  0  0  0
    1.2872   -2.6228    6.4241 C   0  0  1  0  0  0  0  0  0  0  0  0
    0.2774   -3.5169    6.8026 O   0  0  0  0  0  0  0  0  0  0  0  0
    0.4647   -1.3123    6.3153 C   0  0  0  0  0  0  0  0  0  0  0  0
   -0.1827   -0.8233    7.2410 O   0  0  0  0  0  0  0  0  0  0  0  0
    0.4252   -0.7244    4.9061 C   0  0  0  0  0  0  0  0  0  0  0  0
   -1.0443   -0.5310    4.4656 C   0  0  0  0  0  0  0  0  0  0  0  0
    1.2082    0.5990    4.7955 C   0  0  0  0  0  0  0  0  0  0  0  0
    1.0870   -1.8395    4.1620 C   0  0  0  0  0  0  0  0  0  0  0  0
    1.5210   -2.8763    4.9060 C   0  0  0  0  0  0  0  0  0  0  0  0
    2.0496   -4.1430    4.1987 C   0  0  2  0  0  0  0  0  0  0  0  0
    1.3239   -4.4117    3.0280 O   0  0  0  0  0  0  0  0  0  0  0  0
    1.3682   -5.5322    3.8854 C   0  0  2  0  0  0  0  0  0  0  0  0
   -0.0478   -5.7710    4.4416 C   0  0  0  0  0  0  0  0  0  0  0  0
    2.0015   -6.7853    3.0619 C   0  0  2  0  0  0  0  0  0  0  0  0
    3.1900   -6.2824    2.4647 O   0  0  0  0  0  0  0  0  0  0  0  0
    0.9404   -7.1437    2.0099 C   0  0  0  0  0  0  0  0  0  0  0  0
    0.7191   -6.5453    0.9573 O   0  0  0  0  0  0  0  0  0  0  0  0
    0.2398   -8.2005    2.4864 O   0  0  0  0  0  0  0  0  0  0  0  0
    0.8330   -8.7814    3.6604 C   0  0  1  0  0  0  0  0  0  0  0  0
    0.5247  -10.2903    3.6586 C   0  0  0  0  0  0  0  0  0  0  0  0
    2.3015   -8.2880    3.5769 C   0  0  2  0  0  0  0  0  0  0  0  0
    3.0349   -9.0976    2.4343 C   0  0  2  0  0  0  0  0  0  0  0  0
    3.1885  -10.5067    2.5581 O   0  0  0  0  0  0  0  0  0  0  0  0
    4.3160   -9.7346    2.8740 C   0  0  2  0  0  0  0  0  0  0  0  0
    5.5433   -9.9029    1.9675 C   0  0  0  0  0  0  0  0  0  0  0  0
    6.2984  -11.2452    2.1377 C   0  0  0  0  0  0  0  0  0  0  0  0
    6.5189   -8.7193    2.0301 C   0  0  0  0  0  0  0  0  0  0  0  0
    6.0617  -10.7966    4.7797 H   0  0  0  0  0  0  0  0  0  0  0  0
    5.3699   -9.9047    6.2252 H   0  0  0  0  0  0  0  0  0  0  0  0
    3.8882   -7.6535    4.8774 H   0  0  0  0  0  0  0  0  0  0  0  0
    1.9844   -9.7436    6.1624 H   0  0  0  0  0  0  0  0  0  0  0  0
    3.5183   -9.4184    6.8776 H   0  0  0  0  0  0  0  0  0  0  0  0
    1.3735   -7.4790    6.3333 H   0  0  0  0  0  0  0  0  0  0  0  0
    4.0539   -6.9605    7.7540 H   0  0  0  0  0  0  0  0  0  0  0  0
    3.7310   -5.4015    5.4692 H   0  0  0  0  0  0  0  0  0  0  0  0
    1.5157   -5.4729    6.4325 H   0  0  0  0  0  0  0  0  0  0  0  0
   -0.2998   -4.7333    8.7930 H   0  0  0  0  0  0  0  0  0  0  0  0
   -0.2351   -6.3161    9.4245 H   0  0  0  0  0  0  0  0  0  0  0  0
   -0.3227   -6.0975    7.6987 H   0  0  0  0  0  0  0  0  0  0  0  0
    2.2756   -4.2996   11.6850 H   0  0  0  0  0  0  0  0  0  0  0  0
    1.9933   -5.9706   11.2596 H   0  0  0  0  0  0  0  0  0  0  0  0
    0.7467   -4.7794   10.9888 H   0  0  0  0  0  0  0  0  0  0  0  0
    4.2749   -4.5679   10.6311 H   0  0  0  0  0  0  0  0  0  0  0  0
    4.0567   -6.0831    9.9227 H   0  0  0  0  0  0  0  0  0  0  0  0
    5.5169   -3.7783    9.0068 H   0  0  0  0  0  0  0  0  0  0  0  0
    5.7045   -5.4418    8.6450 H   0  0  0  0  0  0  0  0  0  0  0  0
    6.0868   -5.3311    6.5745 H   0  0  0  0  0  0  0  0  0  0  0  0
    4.7440   -2.3370    7.5752 H   0  0  0  0  0  0  0  0  0  0  0  0
    5.2126   -2.1338    3.2304 H   0  0  0  0  0  0  0  0  0  0  0  0
    5.7114   -0.4589    3.5066 H   0  0  0  0  0  0  0  0  0  0  0  0
    3.9930   -0.8748    3.4755 H   0  0  0  0  0  0  0  0  0  0  0  0
    3.8545   -0.2029    9.8470 H   0  0  0  0  0  0  0  0  0  0  0  0
    3.2854   -2.4509   10.9759 H   0  0  0  0  0  0  0  0  0  0  0  0
    0.8045   -2.9633   10.3446 H   0  0  0  0  0  0  0  0  0  0  0  0
    0.6883   -4.3586    6.9985 H   0  0  0  0  0  0  0  0  0  0  0  0
   -1.6161   -1.4499    4.5897 H   0  0  0  0  0  0  0  0  0  0  0  0
   -1.1067   -0.2385    3.4172 H   0  0  0  0  0  0  0  0  0  0  0  0
   -1.5437    0.2428    5.0486 H   0  0  0  0  0  0  0  0  0  0  0  0
    2.2768    0.4306    4.9143 H   0  0  0  0  0  0  0  0  0  0  0  0
    0.8982    1.3119    5.5601 H   0  0  0  0  0  0  0  0  0  0  0  0
    1.0638    1.0694    3.8200 H   0  0  0  0  0  0  0  0  0  0  0  0
    1.1176   -1.8261    3.0825 H   0  0  0  0  0  0  0  0  0  0  0  0
    3.1094   -4.0416    4.0073 H   0  0  0  0  0  0  0  0  0  0  0  0
   -0.1017   -6.4860    5.2524 H   0  0  0  0  0  0  0  0  0  0  0  0
   -0.7588   -6.0739    3.6777 H   0  0  0  0  0  0  0  0  0  0  0  0
   -0.4367   -4.8292    4.8167 H   0  0  0  0  0  0  0  0  0  0  0  0
    3.5335   -6.9482    1.8698 H   0  0  0  0  0  0  0  0  0  0  0  0
    0.3593   -8.3646    4.5442 H   0  0  0  0  0  0  0  0  0  0  0  0
    1.0759  -10.8341    4.4255 H   0  0  0  0  0  0  0  0  0  0  0  0
    0.7231  -10.7542    2.6930 H   0  0  0  0  0  0  0  0  0  0  0  0
   -0.5371  -10.4265    3.8479 H   0  0  0  0  0  0  0  0  0  0  0  0
    2.9166   -8.7756    1.3970 H   0  0  0  0  0  0  0  0  0  0  0  0
    5.1488   -9.9167    0.9563 H   0  0  0  0  0  0  0  0  0  0  0  0
    6.8310  -11.3329    3.0958 H   0  0  0  0  0  0  0  0  0  0  0  0
    7.0547  -11.3737    1.3538 H   0  0  0  0  0  0  0  0  0  0  0  0
    5.6141  -12.0940    2.0755 H   0  0  0  0  0  0  0  0  0  0  0  0
    6.9971   -8.6382    3.0084 H   0  0  0  0  0  0  0  0  0  0  0  0
    6.0179   -7.7725    1.8222 H   0  0  0  0  0  0  0  0  0  0  0  0
    7.3126   -8.8278    1.2892 H   0  0  0  0  0  0  0  0  0  0  0  0
  1  2  2  0
  1 58  1  0
  1 59  1  0
  2 54  1  0
  2  3  1  0
  3 51  1  0
  3  4  1  0
  3 60  1  1
  4  5  1  0
  4 61  1  0
  4 62  1  0
  5 11  1  0
  5  6  1  0
  5 63  1  6
  6  8  1  0
  6  7  1  0
  6 64  1  1
  7 17  1  0
  7  8  1  0
  7 65  1  6
  8  9  1  0
  8 66  1  6
  9 10  1  6
 11  9  1  1
  9 13  1  0
 10 67  1  0
 10 68  1  0
 10 69  1  0
 11 12  2  0
 13 29  1  0
 13 14  1  1
 13 15  1  0
 14 70  1  0
 14 71  1  0
 14 72  1  0
 15 16  1  0
 15 73  1  0
 15 74  1  0
 16 17  1  0
 16 75  1  0
 16 76  1  0
 17 18  1  6
 17 19  1  0
 18 77  1  0
 19 20  1  0
 19 24  1  0
 19 78  1  1
 20 21  1  0
 21 22  1  0
 21 23  2  0
 22 79  1  0
 22 80  1  0
 22 81  1  0
 24 29  1  0
 24 25  1  1
 24 31  1  0
 25 26  2  0
 25 27  1  0
 27 28  2  0
 27 82  1  0
 28 29  1  0
 28 83  1  0
 29 30  1  1
 30 84  1  0
 31 39  1  0
 31 32  1  1
 31 33  1  0
 32 85  1  0
 33 34  2  0
 33 35  1  0
 35 36  1  0
 35 37  1  0
 35 38  1  0
 36 86  1  0
 36 87  1  0
 36 88  1  0
 37 89  1  0
 37 90  1  0
 37 91  1  0
 38 39  2  0
 38 92  1  0
 39 40  1  0
 40 42  1  0
 40 41  1  0
 40 93  1  6
 41 42  1  0
 42 43  1  1
 42 44  1  0
 43 94  1  0
 43 95  1  0
 43 96  1  0
 51 44  1  6
 44 45  1  6
 44 46  1  0
 45 97  1  0
 46 47  2  0
 46 48  1  0
 48 49  1  0
 49 50  1  0
 49 51  1  0
 49 98  1  1
 50 99  1  0
 50100  1  0
 50101  1  0
 51 52  1  0
 52 54  1  0
 52 53  1  0
 52102  1  6
 53 54  1  0
 54 55  1  6
 55 56  1  0
 55 57  1  0
 55103  1  0
 56104  1  0
 56105  1  0
 56106  1  0
 57107  1  0
 57108  1  0
 57109  1  0
M  END
>  <i_m_ct_stereo_status>  (194) 
1

>  <s_m_source_file>  (194) 
/var/tmp/pbs.5075288.sched01/tmpo2oug7hv/195455be7ie.sdf

>  <i_m_source_file_index>  (194) 
8

>  <i_lp_mmshare_version>  (194) 
48012

>  <i_f3d_flags>  (194) 
0

>  <s_epik_input>  (194) 
W0NIM11DKFtDSDNdKShbQ0hdPTEpQyg9TylbQ0BAXTIoW09IXSlDMVtDQEhdKE8zKVtDQF0zKFtDSDNdKVtDQF0oW09IXSkoQyg9TylPW0NASF00W0NIM10pW0NAQF00KFtDQEhdNVtDQF0oTzUpKEM2PVtDSDJdKVtDSF0oW0NIM10pW0NIM10pW0NAQEhdNltDSDJdW0NAQEhdKFtTK103W08tXSlbQ0BASF0oW0NAQEhdOFtDQF0oW09IXSkoW0NIMl1bQ0gyXTkpW0NASF0xT0MoPU8pW0NIM10pW0NASF04W0NAXTcoW0NIM10pW0NAXTkoW0NIM10pW0NAQF0oW0NAQF0xMjMpKFtPSF0pW0NIXT1bQ0hdQzM9Tw==

>  <s_epik_cmdline>  (194) 
J2VwaWtfcHl0aG9uJywgJy1waHQnLCAnMi4wJywgJy1waCcsICc3LjAnLCAnLXRuJywgJzgnLCAnLW1hJywgJzIwMCcsICctaW1hZScsICc8aW5maWxlLm1hZT4nLCAnLW9tYWUnLCAnPG91dGZpbGUubWFlPic=

>  <r_lp_tautomer_probability>  (194) 
1

>  <r_epik_Ionization_Penalty>  (194) 
1.83493e-05

>  <r_epik_Ionization_Penalty_Charging>  (194) 
0

>  <r_epik_Ionization_Penalty_Neutral>  (194) 
1.83493e-05

>  <r_epik_State_Penalty>  (194) 
-0

>  <r_epik_Charging_Adjusted_Penalty>  (194) 
0

>  <i_epik_Tot_Q>  (194) 
0

>  <i_epik_Tot_abs_Q>  (194) 
2

>  <s_epik_Chemistry_Notes>  (194) 
This compound has an ester and may undergo hydrolysis at high or low pH.

>  <s_lp_Force_Field>  (194) 
OPLS3e

>  <r_lp_Energy>  (194) 
218.888

>  <b_lp_Chiralities_Consistent>  (194) 
1

>  <s_lp_Variant>  (194) 
78:0-1

>  <s_i_glide_gridfile>  (194) 
pfpi4k_grid

>  <i_i_glide_lignum>  (194) 
8

>  <i_i_glide_rotatable_bonds>  (194) 
7

>  <r_i_docking_score>  (194) 
-2.3834

>  <r_i_glide_ligand_efficiency>  (194) 
-0.0418141

>  <r_i_glide_ligand_efficiency_sa>  (194) 
-0.160921

>  <r_i_glide_ligand_efficiency_ln>  (194) 
-0.472611

>  <r_i_glide_gscore>  (194) 
-2.3834

>  <r_i_glide_lipo>  (194) 
-0.153485

>  <r_i_glide_hbond>  (194) 
-0.145843

>  <r_i_glide_metal>  (194) 
-0

>  <r_i_glide_rewards>  (194) 
-0.0413038

>  <r_i_glide_evdw>  (194) 
-30.9221

>  <r_i_glide_ecoul>  (194) 
-3.03008

>  <r_i_glide_erotb>  (194) 
0.0333214

>  <r_i_glide_esite>  (194) 
-0.0754712

>  <r_i_glide_emodel>  (194) 
-37.7424

>  <r_i_glide_energy>  (194) 
-33.9522

>  <r_i_glide_einternal>  (194) 
2.18305

>  <r_i_glide_intrahb_reward>  (194) 
-0

>  <i_i_glide_confnum>  (194) 
1

>  <i_i_glide_posenum>  (194) 
29

>  <r_i_glide_eff_state_penalty>  (194) 
0

>  <ligand_id>  (194) 
78

>  <original_smiles>  (194) 
C=C1C2CC3C4C5C4C(C)([S+]3[O-])C3(C)CCC5(O)C(OC(C)=O)C4(C(=O)C=CC34O)C3(O)C(=O)C(C)(C)C=C3C3OC3(C)C3(O)C(=O)OC(C)C23C2OC12C(C)C

>  <smiles>  (194) 
[H]OC12C(=O)C(C([H])([H])[H])(C([H])([H])[H])C([H])=C1C1([H])OC1(C([H])([H])[H])C1(O[H])C(=O)OC([H])(C([H])([H])[H])C13C1([H])OC1(C([H])(C([H])([H])[H])C([H])([H])[H])C(=C([H])[H])C3([H])C([H])([H])C1([H])S(=O)C3(C([H])([H])[H])C4([H])C1([H])C4([H])C1(O[H])C([H])([H])C([H])([H])C3(C([H])([H])[H])C3(O[H])C([H])=C([H])C(=O)C23C1([H])OC(=O)C([H])([H])[H]

$$$$
79:0:0
     RDKit          3D

137149  0  0  1  0  0  0  0  0999 V2000
    2.7896    1.5913   10.3045 C   0  0  0  0  0  0  0  0  0  0  0  0
    2.5646    0.6619    9.3602 C   0  0  0  0  0  0  0  0  0  0  0  0
    1.7448   -0.5640    9.7518 C   0  0  0  0  0  0  0  0  0  0  0  0
    3.1156    0.7232    7.9075 C   0  0  1  0  0  0  0  0  0  0  0  0
    2.2350   -0.0236    7.0200 O   0  0  0  0  0  0  0  0  0  0  0  0
    1.2537    0.6379    6.2054 C   0  0  2  0  0  0  0  0  0  0  0  0
    2.0956    1.6079    5.3538 C   0  0  0  0  0  0  0  0  0  0  0  0
    3.2880    2.1106    5.9362 O   0  0  0  0  0  0  0  0  0  0  0  0
    3.3836    2.2071    7.3163 C   0  0  2  0  0  0  0  0  0  0  0  0
    4.7209    2.5290    7.5870 O   0  0  0  0  0  0  0  0  0  0  0  0
    2.5135    3.4712    7.7511 C   0  0  1  0  0  0  0  0  0  0  0  0
    3.1341    4.4116    8.8071 C   0  0  0  0  0  0  0  0  0  0  0  0
    2.0556    4.1809    6.5843 O   0  0  0  0  0  0  0  0  0  0  0  0
    1.0369    3.8117    7.5020 C   0  0  1  0  0  0  0  0  0  0  0  0
   -0.0553    2.8769    7.0048 C   0  0  1  0  0  0  0  0  0  0  0  0
    0.1976    1.3791    7.1327 C   0  0  1  0  0  0  0  0  0  0  0  0
   -1.2516    0.8774    7.0714 C   0  0  0  0  0  0  0  0  0  0  0  0
   -2.0577    1.8121    7.7452 O   0  0  0  0  0  0  0  0  0  0  0  0
   -1.3759    3.0560    7.8210 C   0  0  0  0  0  0  0  0  0  0  0  0
   -1.2025    3.3084    9.3375 C   0  0  0  0  0  0  0  0  0  0  0  0
   -2.2813    4.1036    7.2030 C   0  0  0  0  0  0  0  0  0  0  0  0
    0.5375   -0.4849    5.3249 C   0  0  0  0  0  0  0  0  0  0  0  0
    1.2933   -1.5269    4.4203 C   0  0  1  0  0  0  0  0  0  0  0  0
    0.2745   -3.0952    4.3779 S   0  0  0  0  0  0  0  0  0  0  0  0
   -0.7079   -3.2029    5.5568 O   0  0  0  0  0  0  0  0  0  0  0  0
    1.3277   -4.6688    4.2541 C   0  0  2  0  0  0  0  0  0  0  0  0
    2.3316   -5.2495    5.3282 C   0  0  2  0  0  0  0  0  0  0  0  0
    2.7517   -4.5139    6.6614 C   0  0  2  0  0  0  0  0  0  0  0  0
    3.3650   -5.6153    7.6251 C   0  0  0  0  0  0  0  0  0  0  0  0
    2.3406   -6.5374    8.1619 C   0  0  0  0  0  0  0  0  0  0  0  0
    1.0961   -6.1629    8.2923 C   0  0  0  0  0  0  0  0  0  0  0  0
    0.0020   -7.0575    8.8154 C   0  0  0  0  0  0  0  0  0  0  0  0
    0.6233   -4.9152    7.9199 O   0  0  0  0  0  0  0  0  0  0  0  0
    1.4607   -3.9862    7.3822 C   0  0  0  0  0  0  0  0  0  0  0  0
    1.1681   -2.7883    7.4175 O   0  0  0  0  0  0  0  0  0  0  0  0
    3.7642   -3.2765    6.4766 C   0  0  1  0  0  0  0  0  0  0  0  0
    4.5220   -3.2376    7.6851 O   0  0  0  0  0  0  0  0  0  0  0  0
    4.7771   -2.9612    5.2948 C   0  0  2  0  0  0  0  0  0  0  0  0
    5.8901   -3.8048    5.6848 O   0  0  0  0  0  0  0  0  0  0  0  0
    5.4615   -1.5765    5.5848 C   0  0  1  0  0  0  0  0  0  0  0  0
    5.2031   -0.1246    5.2196 C   0  0  1  0  0  0  0  0  0  0  0  0
    5.9040    0.7367    6.1106 O   0  0  0  0  0  0  0  0  0  0  0  0
    5.2919   -0.4423    6.6304 C   0  0  2  0  0  0  0  0  0  0  0  0
    4.4133   -0.2085    7.9036 C   0  0  1  0  0  0  0  0  0  0  0  0
    5.4176   -0.0289    9.0670 C   0  0  0  0  0  0  0  0  0  0  0  0
    4.4339   -3.3033    3.6843 C   0  0  2  0  0  0  0  0  0  0  0  0
    5.7275   -3.6254    3.2043 O   0  0  0  0  0  0  0  0  0  0  0  0
    4.1092   -1.9833    2.6919 C   0  0  2  0  0  0  0  0  0  0  0  0
    5.3550   -1.0826    2.2883 C   0  0  0  0  0  0  0  0  0  0  0  0
    5.0226    0.1372    1.6404 O   0  0  0  0  0  0  0  0  0  0  0  0
    3.2579   -0.9891    3.2967 O   0  0  0  0  0  0  0  0  0  0  0  0
    1.8432   -0.9891    2.9935 C   0  0  2  0  0  0  0  0  0  0  0  0
    1.2835    0.3866    2.5264 C   0  0  0  0  0  0  0  0  0  0  0  0
    1.8667   -1.8031    1.7093 C   0  0  0  0  0  0  0  0  0  0  0  0
    3.2777   -2.2658    1.3778 C   0  0  1  0  0  0  0  0  0  0  0  0
    3.7716   -1.6988    0.1729 O   0  0  0  0  0  0  0  0  0  0  0  0
    3.8379   -3.0977    0.2232 C   0  0  0  0  0  0  0  0  0  0  0  0
    5.2463   -3.7012    0.1697 C   0  0  0  0  0  0  0  0  0  0  0  0
    2.8941   -3.7957   -0.7620 C   0  0  0  0  0  0  0  0  0  0  0  0
    3.6606   -4.7669    3.3633 C   0  0  2  0  0  0  0  0  0  0  0  0
    4.2152   -5.4364    2.2521 O   0  0  0  0  0  0  0  0  0  0  0  0
    2.1876   -4.5568    3.0470 C   0  0  1  0  0  0  0  0  0  0  0  0
    1.6337   -5.0763    1.8471 O   0  0  0  0  0  0  0  0  0  0  0  0
    3.5136   -5.8740    4.4638 C   0  0  1  0  0  0  0  0  0  0  0  0
    4.8078   -5.9963    5.0204 O   0  0  0  0  0  0  0  0  0  0  0  0
    3.2510   -7.4224    4.0415 C   0  0  0  0  0  0  0  0  0  0  0  0
    2.0426   -7.7038    3.1235 C   0  0  0  0  0  0  0  0  0  0  0  0
    4.4552   -8.2077    3.4427 C   0  0  0  0  0  0  0  0  0  0  0  0
    2.9444   -8.1725    5.2048 O   0  0  0  0  0  0  0  0  0  0  0  0
    2.3580    1.5188   11.2938 H   0  0  0  0  0  0  0  0  0  0  0  0
    3.4306    2.4286   10.1307 H   0  0  0  0  0  0  0  0  0  0  0  0
    0.8960   -0.7391    9.0944 H   0  0  0  0  0  0  0  0  0  0  0  0
    1.3547   -0.4744   10.7687 H   0  0  0  0  0  0  0  0  0  0  0  0
    2.3727   -1.4548    9.7388 H   0  0  0  0  0  0  0  0  0  0  0  0
    2.5019    1.0769    4.5145 H   0  0  0  0  0  0  0  0  0  0  0  0
    1.5055    2.4073    4.9138 H   0  0  0  0  0  0  0  0  0  0  0  0
    5.2454    1.8015    7.2646 H   0  0  0  0  0  0  0  0  0  0  0  0
    4.1671    4.2191    9.0859 H   0  0  0  0  0  0  0  0  0  0  0  0
    2.5337    4.3757    9.7181 H   0  0  0  0  0  0  0  0  0  0  0  0
    3.0845    5.4473    8.4689 H   0  0  0  0  0  0  0  0  0  0  0  0
    0.6517    4.7055    7.9850 H   0  0  0  0  0  0  0  0  0  0  0  0
   -0.2695    3.1194    5.9624 H   0  0  0  0  0  0  0  0  0  0  0  0
    0.4783    1.2345    8.1658 H   0  0  0  0  0  0  0  0  0  0  0  0
   -1.6518    0.8060    6.0618 H   0  0  0  0  0  0  0  0  0  0  0  0
   -1.3425   -0.0834    7.5559 H   0  0  0  0  0  0  0  0  0  0  0  0
   -0.8308    4.3104    9.5634 H   0  0  0  0  0  0  0  0  0  0  0  0
   -0.5234    2.5911    9.7898 H   0  0  0  0  0  0  0  0  0  0  0  0
   -2.1600    3.2172    9.8545 H   0  0  0  0  0  0  0  0  0  0  0  0
   -1.7683    5.0721    7.2914 H   0  0  0  0  0  0  0  0  0  0  0  0
   -3.2291    4.2064    7.7363 H   0  0  0  0  0  0  0  0  0  0  0  0
   -2.5051    3.8986    6.1531 H   0  0  0  0  0  0  0  0  0  0  0  0
    0.0000   -1.0824    6.0534 H   0  0  0  0  0  0  0  0  0  0  0  0
   -0.2588   -0.0567    4.7190 H   0  0  0  0  0  0  0  0  0  0  0  0
    2.1399   -1.8746    4.9660 H   0  0  0  0  0  0  0  0  0  0  0  0
    0.5555   -5.4075    4.0635 H   0  0  0  0  0  0  0  0  0  0  0  0
    1.7497   -6.0918    5.6812 H   0  0  0  0  0  0  0  0  0  0  0  0
    4.0633   -6.2590    7.1392 H   0  0  0  0  0  0  0  0  0  0  0  0
    3.8503   -5.2359    8.5181 H   0  0  0  0  0  0  0  0  0  0  0  0
    2.7052   -7.4988    8.4793 H   0  0  0  0  0  0  0  0  0  0  0  0
    0.3771   -8.0784    8.9512 H   0  0  0  0  0  0  0  0  0  0  0  0
   -0.8081   -7.0841    8.0996 H   0  0  0  0  0  0  0  0  0  0  0  0
   -0.3795   -6.6704    9.7567 H   0  0  0  0  0  0  0  0  0  0  0  0
    3.2334   -2.3401    6.5244 H   0  0  0  0  0  0  0  0  0  0  0  0
    5.0657   -4.0122    7.7120 H   0  0  0  0  0  0  0  0  0  0  0  0
    5.6367   -4.7259    5.5878 H   0  0  0  0  0  0  0  0  0  0  0  0
    6.5057   -1.7474    5.5118 H   0  0  0  0  0  0  0  0  0  0  0  0
    4.3076    0.2535    4.7779 H   0  0  0  0  0  0  0  0  0  0  0  0
    3.9631   -1.1399    8.1668 H   0  0  0  0  0  0  0  0  0  0  0  0
    5.9532    0.9126    9.0118 H   0  0  0  0  0  0  0  0  0  0  0  0
    6.1739   -0.8120    9.0336 H   0  0  0  0  0  0  0  0  0  0  0  0
    4.9566   -0.1025   10.0447 H   0  0  0  0  0  0  0  0  0  0  0  0
    6.0554   -4.3690    3.6579 H   0  0  0  0  0  0  0  0  0  0  0  0
    6.0143   -0.8613    3.1185 H   0  0  0  0  0  0  0  0  0  0  0  0
    6.0442   -1.5356    1.5881 H   0  0  0  0  0  0  0  0  0  0  0  0
    4.4418    0.6434    2.1890 H   0  0  0  0  0  0  0  0  0  0  0  0
    0.4524    0.3086    1.8054 H   0  0  0  0  0  0  0  0  0  0  0  0
    2.0716    0.9453    2.0081 H   0  0  0  0  0  0  0  0  0  0  0  0
    0.8514    1.0330    3.2643 H   0  0  0  0  0  0  0  0  0  0  0  0
    1.1207   -2.5770    1.6824 H   0  0  0  0  0  0  0  0  0  0  0  0
    1.5189   -1.1232    0.9028 H   0  0  0  0  0  0  0  0  0  0  0  0
    5.2369   -4.7903    0.2111 H   0  0  0  0  0  0  0  0  0  0  0  0
    5.8105   -3.3835    1.0206 H   0  0  0  0  0  0  0  0  0  0  0  0
    5.8430   -3.3502   -0.6720 H   0  0  0  0  0  0  0  0  0  0  0  0
    2.8318   -4.8519   -0.5088 H   0  0  0  0  0  0  0  0  0  0  0  0
    3.2890   -3.7011   -1.7755 H   0  0  0  0  0  0  0  0  0  0  0  0
    1.9001   -3.3478   -0.7293 H   0  0  0  0  0  0  0  0  0  0  0  0
    4.2270   -4.8368    1.5163 H   0  0  0  0  0  0  0  0  0  0  0  0
    2.2024   -3.5237    3.0345 H   0  0  0  0  0  0  0  0  0  0  0  0
    2.2252   -4.9269    1.1285 H   0  0  0  0  0  0  0  0  0  0  0  0
    5.3379   -6.4756    4.4154 H   0  0  0  0  0  0  0  0  0  0  0  0
    2.2390   -7.3522    2.1111 H   0  0  0  0  0  0  0  0  0  0  0  0
    1.1186   -7.2695    3.4932 H   0  0  0  0  0  0  0  0  0  0  0  0
    1.8289   -8.7694    3.0157 H   0  0  0  0  0  0  0  0  0  0  0  0
    4.8601   -7.7517    2.5431 H   0  0  0  0  0  0  0  0  0  0  0  0
    4.1562   -9.2162    3.1463 H   0  0  0  0  0  0  0  0  0  0  0  0
    5.2739   -8.3359    4.1494 H   0  0  0  0  0  0  0  0  0  0  0  0
    2.8078   -9.0754    4.9498 H   0  0  0  0  0  0  0  0  0  0  0  0
  1  2  2  0
  1 70  1  0
  1 71  1  0
  2  3  1  0
  4  2  1  1
  3 72  1  0
  3 73  1  0
  3 74  1  0
  4  9  1  0
  4 44  1  0
  4  5  1  0
  5  6  1  0
  6 16  1  0
  6  7  1  0
  6 22  1  6
  7  8  1  0
  7 75  1  0
  7 76  1  0
  8  9  1  0
  9 10  1  6
  9 11  1  0
 10 77  1  0
 11 14  1  0
 11 12  1  1
 11 13  1  0
 12 78  1  0
 12 79  1  0
 12 80  1  0
 13 14  1  0
 14 15  1  0
 14 81  1  1
 15 19  1  0
 15 16  1  0
 15 82  1  6
 16 17  1  0
 16 83  1  1
 17 18  1  0
 17 84  1  0
 17 85  1  0
 18 19  1  0
 19 20  1  0
 19 21  1  0
 20 86  1  0
 20 87  1  0
 20 88  1  0
 21 89  1  0
 21 90  1  0
 21 91  1  0
 22 23  1  0
 22 92  1  0
 22 93  1  0
 23 52  1  0
 24 23  1  1
 23 94  1  1
 24 25  2  0
 24 26  1  0
 26 62  1  0
 26 27  1  0
 26 95  1  6
 27 64  1  0
 27 28  1  0
 27 96  1  1
 28 34  1  0
 28 29  1  1
 28 36  1  0
 29 30  1  0
 29 97  1  0
 29 98  1  0
 30 31  2  0
 30 99  1  0
 31 32  1  0
 31 33  1  0
 32100  1  0
 32101  1  0
 32102  1  0
 33 34  1  0
 34 35  2  0
 36 37  1  0
 36 38  1  0
 36103  1  1
 37104  1  0
 38 39  1  1
 38 40  1  0
 38 46  1  0
 39105  1  0
 40 43  1  0
 40 41  1  0
 40106  1  6
 41 43  1  0
 41 42  1  0
 41107  1  1
 43 42  1  1
 43 44  1  0
 44 45  1  0
 44108  1  1
 45109  1  0
 45110  1  0
 45111  1  0
 46 47  1  6
 46 48  1  0
 46 60  1  0
 47112  1  0
 48 55  1  0
 48 49  1  6
 48 51  1  0
 49 50  1  0
 49113  1  0
 49114  1  0
 50115  1  0
 51 52  1  0
 52 53  1  6
 52 54  1  0
 53116  1  0
 53117  1  0
 53118  1  0
 54 55  1  0
 54119  1  0
 54120  1  0
 55 57  1  0
 55 56  1  6
 56 57  1  0
 57 58  1  0
 57 59  1  0
 58121  1  0
 58122  1  0
 58123  1  0
 59124  1  0
 59125  1  0
 59126  1  0
 60 61  1  6
 60 62  1  0
 60 64  1  0
 61127  1  0
 62 63  1  0
 62128  1  6
 63129  1  0
 64 65  1  1
 64 66  1  0
 65130  1  0
 66 67  1  0
 66 68  1  0
 66 69  1  0
 67131  1  0
 67132  1  0
 67133  1  0
 68134  1  0
 68135  1  0
 68136  1  0
 69137  1  0
M  END
>  <i_m_ct_stereo_status>  (195) 
1

>  <s_m_source_file>  (195) 
/var/tmp/pbs.5075288.sched01/tmpo2oug7hv/195455be7ie.sdf

>  <i_m_source_file_index>  (195) 
9

>  <i_lp_mmshare_version>  (195) 
48012

>  <i_f3d_flags>  (195) 
0

>  <s_epik_input>  (195) 
W0NIMl0xT0MoW0NIM10pKFtDSDNdKVtDQEhdKFtDQEBIXTFbQ0BdMjM0KVtDQEhdNVtDQEBdKE81KShbQ0gzXSlbQ0BdKFtPSF0pKE9bQ0gyXTMpW0NAXShPMikoQyg9W0NIMl0pW0NIM10pW0NASF0oW0NIM10pW0NAQF02N1tDQEhdKFtDQEBIXTZPNylbQ0BdOChbT0hdKVtDQF05KFtPSF0pW0NAQF0xKFtDSDJdW09IXSlbQ0BdMihPQzIoW0NIM10pW0NIM10pW0NIMl1bQ0BAXShPMSkoW0NIM10pW0NAQEhdKFtDSDJdNClbUytdKFtPLV0pW0NAQEhdMVtDQEBIXShbQ0BAXShbT0hdKShDKFtDSDNdKShbQ0gzXSlbT0hdKVtDQEBdOShbT0hdKVtDQEhdMVtPSF0pW0NAXTEoW0NASF04W09IXSlbQ0gyXVtDSF09QyhbQ0gzXSlPQzE9Tw==

>  <s_epik_cmdline>  (195) 
J2VwaWtfcHl0aG9uJywgJy1waHQnLCAnMi4wJywgJy1waCcsICc3LjAnLCAnLXRuJywgJzgnLCAnLW1hJywgJzIwMCcsICctaW1hZScsICc8aW5maWxlLm1hZT4nLCAnLW9tYWUnLCAnPG91dGZpbGUubWFlPic=

>  <r_lp_tautomer_probability>  (195) 
1

>  <r_epik_Ionization_Penalty>  (195) 
8.21673e-06

>  <r_epik_Ionization_Penalty_Charging>  (195) 
0

>  <r_epik_Ionization_Penalty_Neutral>  (195) 
8.21673e-06

>  <r_epik_State_Penalty>  (195) 
-0

>  <r_epik_Charging_Adjusted_Penalty>  (195) 
0

>  <i_epik_Tot_Q>  (195) 
0

>  <i_epik_Tot_abs_Q>  (195) 
2

>  <s_lp_Force_Field>  (195) 
OPLS3e

>  <r_lp_Energy>  (195) 
305.85

>  <b_lp_Chiralities_Consistent>  (195) 
1

>  <s_lp_Variant>  (195) 
79:0-1

>  <s_i_glide_gridfile>  (195) 
pfpi4k_grid

>  <i_i_glide_lignum>  (195) 
9

>  <i_i_glide_rotatable_bonds>  (195) 
12

>  <r_i_docking_score>  (195) 
-1.95927

>  <r_i_glide_ligand_efficiency>  (195) 
-0.0283952

>  <r_i_glide_ligand_efficiency_sa>  (195) 
-0.116465

>  <r_i_glide_ligand_efficiency_ln>  (195) 
-0.374327

>  <r_i_glide_gscore>  (195) 
-1.95927

>  <r_i_glide_lipo>  (195) 
-0.313089

>  <r_i_glide_hbond>  (195) 
0

>  <r_i_glide_metal>  (195) 
-0

>  <r_i_glide_rewards>  (195) 
-1.04861

>  <r_i_glide_evdw>  (195) 
-4.26405

>  <r_i_glide_ecoul>  (195) 
-6.45157

>  <r_i_glide_erotb>  (195) 
0.0677047

>  <r_i_glide_esite>  (195) 
-0.000160383

>  <r_i_glide_emodel>  (195) 
-20.9381

>  <r_i_glide_energy>  (195) 
-10.7156

>  <r_i_glide_einternal>  (195) 
2.9666

>  <r_i_glide_intrahb_reward>  (195) 
-1

>  <i_i_glide_confnum>  (195) 
2

>  <i_i_glide_posenum>  (195) 
22

>  <r_i_glide_eff_state_penalty>  (195) 
0

>  <ligand_id>  (195) 
79

>  <original_smiles>  (195) 
C=C(C)C12OC3(COC1(O)C1(C)OC1C1C3COC1(C)C)CC1[S+]([O-])C3C4C5(CC=C(C)OC5=O)C(O)C(O)(C5C6OC65C2C)C(O)(C2(CO)OC1(C)CC21OC1(C)C)C(O)(C3O)C4(O)C(C)(C)O

>  <smiles>  (195) 
[H]OC([H])([H])C12OC(C([H])([H])[H])(C([H])([H])C13OC3(C([H])([H])[H])C([H])([H])[H])C1([H])S(=O)C3([H])C([H])(O[H])C4(O[H])C(O[H])(C(O[H])(C([H])([H])[H])C([H])([H])[H])C3([H])C3(C(=O)OC(C([H])([H])[H])=C([H])C3([H])[H])C([H])(O[H])C(O[H])(C3([H])C5([H])OC53C([H])(C([H])([H])[H])C3(C(=C([H])[H])C([H])([H])[H])OC5(C([H])([H])OC3(O[H])C3(C([H])([H])[H])OC3([H])C3([H])C5([H])C([H])([H])OC3(C([H])([H])[H])C([H])([H])[H])C1([H])[H])C24O[H]

$$$$
80:0:0
     RDKit          3D

114122  0  0  1  0  0  0  0  0999 V2000
   -4.8074    3.9823    2.0515 C   0  0  0  0  0  0  0  0  0  0  0  0
   -3.7985    2.8706    1.8693 C   0  0  0  0  0  0  0  0  0  0  0  0
   -2.6172    2.8793    2.8964 C   0  0  0  0  0  0  0  0  0  0  0  0
   -2.3802    3.8272    3.6227 O   0  0  0  0  0  0  0  0  0  0  0  0
   -1.7126    1.6437    2.9513 C   0  0  0  0  0  0  0  0  0  0  0  0
   -1.6773    1.2097    4.3029 O   0  0  0  0  0  0  0  0  0  0  0  0
   -0.6566    0.2673    4.4755 N   0  0  0  0  0  0  0  0  0  0  0  0
    0.1594    0.5895    5.4088 C   0  0  0  0  0  0  0  0  0  0  0  0
    0.0022    1.9161    6.1726 C   0  0  0  0  0  0  0  0  0  0  0  0
    1.0673    2.9091    5.7172 C   0  0  0  0  0  0  0  0  0  0  0  0
    2.4710    2.3651    6.0224 C   0  0  0  0  0  0  0  0  0  0  0  0
    3.5374    3.3713    5.5161 C   0  0  0  0  0  0  0  0  0  0  0  0
    2.6820    2.4706    7.5529 C   0  0  0  0  0  0  0  0  0  0  0  0
    2.6352    0.8886    5.4091 C   0  0  2  0  0  0  0  0  0  0  0  0
    2.8770    0.8156    3.8843 C   0  0  1  0  0  0  0  0  0  0  0  0
    2.8863    2.0070    3.1417 O   0  0  0  0  0  0  0  0  0  0  0  0
    4.1122   -0.0273    3.5096 C   0  0  1  0  0  0  0  0  0  0  0  0
    5.2961    0.3669    4.1772 O   0  0  0  0  0  0  0  0  0  0  0  0
    3.9522   -1.5784    3.5687 C   0  0  1  0  0  0  0  0  0  0  0  0
    4.5987   -2.1346    2.2368 C   0  0  2  0  0  0  0  0  0  0  0  0
    5.6408   -3.0761    2.3574 O   0  0  0  0  0  0  0  0  0  0  0  0
    5.8019   -3.6869    1.0888 C   0  0  1  0  0  0  0  0  0  0  0  0
    4.9661   -4.9767    1.0627 C   0  0  1  0  0  0  0  0  0  0  0  0
    5.6146   -5.9230    1.8746 O   0  0  0  0  0  0  0  0  0  0  0  0
    3.3973   -4.8534    1.1436 C   0  0  2  0  0  0  0  0  0  0  0  0
    2.7671   -6.2232    0.7116 C   0  0  2  0  0  0  0  0  0  0  0  0
    1.2659   -6.2862    0.7567 C   0  0  0  0  0  0  0  0  0  0  0  0
    0.8411   -7.2241    1.5922 C   0  0  0  0  0  0  0  0  0  0  0  0
   -0.5589   -7.6154    2.0590 C   0  0  0  0  0  0  0  0  0  0  0  0
    1.8604   -7.9606    2.0998 O   0  0  0  0  0  0  0  0  0  0  0  0
    3.0933   -7.4388    1.6609 C   0  0  1  0  0  0  0  0  0  0  0  0
    3.8757   -8.3918    0.9814 O   0  0  0  0  0  0  0  0  0  0  0  0
    3.0440   -3.8365    0.0147 C   0  0  0  0  0  0  0  0  0  0  0  0
    4.1578   -3.1964   -0.6538 O   0  0  0  0  0  0  0  0  0  0  0  0
    5.2919   -2.6670    0.0330 C   0  0  2  0  0  0  0  0  0  0  0  0
    6.3264   -2.3277   -0.8758 O   0  0  0  0  0  0  0  0  0  0  0  0
    4.9319   -1.4334    0.9055 C   0  0  1  0  0  0  0  0  0  0  0  0
    3.8782   -0.6646    0.3356 O   0  0  0  0  0  0  0  0  0  0  0  0
    2.5901   -4.5106    2.3320 O   0  0  0  0  0  0  0  0  0  0  0  0
    2.6600   -3.7598    3.6039 C   0  0  1  0  0  0  0  0  0  0  0  0
    1.5631   -4.6427    4.2359 C   0  0  0  0  0  0  0  0  0  0  0  0
    4.0715   -4.0560    4.7785 S   0  0  0  0  0  0  0  0  0  0  0  0
    5.0978   -4.9777    4.1313 O   0  0  0  0  0  0  0  0  0  0  0  0
    4.7035   -2.3082    4.7664 C   0  0  2  0  0  0  0  0  0  0  0  0
    4.6554   -1.8499    6.2560 C   0  0  0  0  0  0  0  0  0  0  0  0
    3.5228   -2.2392    7.0631 O   0  0  0  0  0  0  0  0  0  0  0  0
    2.8793   -1.2374    7.8483 C   0  0  1  0  0  0  0  0  0  0  0  0
    3.7412   -0.1813    8.2551 O   0  0  0  0  0  0  0  0  0  0  0  0
    1.5235   -0.7544    7.1995 C   0  0  1  0  0  0  0  0  0  0  0  0
    0.7574   -0.2155    8.2621 O   0  0  0  0  0  0  0  0  0  0  0  0
    1.0603   -0.9863    9.4323 C   0  0  0  0  0  0  0  0  0  0  0  0
    2.2967   -1.8808    9.1385 C   0  0  1  0  0  0  0  0  0  0  0  0
    1.8807   -3.3643    8.9610 C   0  0  0  0  0  0  0  0  0  0  0  0
    3.1794   -1.8154   10.2465 O   0  0  0  0  0  0  0  0  0  0  0  0
    1.5045   -0.2036    5.7076 C   0  0  1  0  0  0  0  0  0  0  0  0
    1.5796   -1.6527    4.8955 C   0  0  1  0  0  0  0  0  0  0  0  0
    0.2880   -2.2323    4.7947 O   0  0  0  0  0  0  0  0  0  0  0  0
    2.4532   -2.1389    3.6399 C   0  0  1  0  0  0  0  0  0  0  0  0
    1.6535   -1.8007    2.4995 O   0  0  0  0  0  0  0  0  0  0  0  0
   -5.5025    3.9199    1.2266 H   0  0  0  0  0  0  0  0  0  0  0  0
   -4.3578    4.9651    1.9690 H   0  0  0  0  0  0  0  0  0  0  0  0
   -5.3730    3.8444    2.9627 H   0  0  0  0  0  0  0  0  0  0  0  0
   -4.3260    1.9544    1.6296 H   0  0  0  0  0  0  0  0  0  0  0  0
   -3.4000    2.9855    0.8848 H   0  0  0  0  0  0  0  0  0  0  0  0
   -2.1474    0.8512    2.3433 H   0  0  0  0  0  0  0  0  0  0  0  0
   -0.6980    1.9047    2.6174 H   0  0  0  0  0  0  0  0  0  0  0  0
   -0.9666    2.3870    6.0362 H   0  0  0  0  0  0  0  0  0  0  0  0
    0.0480    1.7508    7.2369 H   0  0  0  0  0  0  0  0  0  0  0  0
    0.9381    3.0800    4.6493 H   0  0  0  0  0  0  0  0  0  0  0  0
    0.9047    3.8814    6.1966 H   0  0  0  0  0  0  0  0  0  0  0  0
    4.4815    2.8720    5.2917 H   0  0  0  0  0  0  0  0  0  0  0  0
    3.7577    4.1614    6.2424 H   0  0  0  0  0  0  0  0  0  0  0  0
    3.2141    3.9055    4.6258 H   0  0  0  0  0  0  0  0  0  0  0  0
    3.7256    2.2840    7.8306 H   0  0  0  0  0  0  0  0  0  0  0  0
    2.0373    1.8195    8.1355 H   0  0  0  0  0  0  0  0  0  0  0  0
    2.4724    3.4915    7.9010 H   0  0  0  0  0  0  0  0  0  0  0  0
    3.5513    0.5631    5.8614 H   0  0  0  0  0  0  0  0  0  0  0  0
    2.0005    0.3934    3.4098 H   0  0  0  0  0  0  0  0  0  0  0  0
    2.0204    2.4063    3.1618 H   0  0  0  0  0  0  0  0  0  0  0  0
    4.2943    0.2946    2.4943 H   0  0  0  0  0  0  0  0  0  0  0  0
    6.0514    0.0631    3.6768 H   0  0  0  0  0  0  0  0  0  0  0  0
    3.7656   -2.6255    1.8510 H   0  0  0  0  0  0  0  0  0  0  0  0
    6.8594   -3.9176    0.9394 H   0  0  0  0  0  0  0  0  0  0  0  0
    5.1520   -5.3760    0.0652 H   0  0  0  0  0  0  0  0  0  0  0  0
    5.4666   -5.6330    2.7846 H   0  0  0  0  0  0  0  0  0  0  0  0
    3.1115   -6.4291   -0.3058 H   0  0  0  0  0  0  0  0  0  0  0  0
    0.6735   -5.6321    0.1527 H   0  0  0  0  0  0  0  0  0  0  0  0
   -1.3598   -6.9620    1.7104 H   0  0  0  0  0  0  0  0  0  0  0  0
   -0.6100   -7.5950    3.1471 H   0  0  0  0  0  0  0  0  0  0  0  0
   -0.7738   -8.6347    1.7429 H   0  0  0  0  0  0  0  0  0  0  0  0
    3.6103   -7.1334    2.5782 H   0  0  0  0  0  0  0  0  0  0  0  0
    3.9496   -9.1844    1.5206 H   0  0  0  0  0  0  0  0  0  0  0  0
    2.5037   -4.3064   -0.7972 H   0  0  0  0  0  0  0  0  0  0  0  0
    2.3502   -3.0827    0.3600 H   0  0  0  0  0  0  0  0  0  0  0  0
    5.9242   -1.8496   -1.5931 H   0  0  0  0  0  0  0  0  0  0  0  0
    5.8276   -0.8222    1.0233 H   0  0  0  0  0  0  0  0  0  0  0  0
    3.1528   -1.2479    0.1165 H   0  0  0  0  0  0  0  0  0  0  0  0
    0.6308   -4.5297    3.6852 H   0  0  0  0  0  0  0  0  0  0  0  0
    1.3823   -4.4428    5.2915 H   0  0  0  0  0  0  0  0  0  0  0  0
    1.8366   -5.6983    4.1765 H   0  0  0  0  0  0  0  0  0  0  0  0
    5.7771   -2.3145    4.5588 H   0  0  0  0  0  0  0  0  0  0  0  0
    5.4893   -2.3403    6.7663 H   0  0  0  0  0  0  0  0  0  0  0  0
    4.9551   -0.8111    6.3342 H   0  0  0  0  0  0  0  0  0  0  0  0
    3.8955    0.3789    7.5033 H   0  0  0  0  0  0  0  0  0  0  0  0
    0.9019   -1.6526    7.1278 H   0  0  0  0  0  0  0  0  0  0  0  0
    1.2424   -0.3172   10.2818 H   0  0  0  0  0  0  0  0  0  0  0  0
    0.1871   -1.5874    9.6989 H   0  0  0  0  0  0  0  0  0  0  0  0
    1.1606   -3.5187    8.1592 H   0  0  0  0  0  0  0  0  0  0  0  0
    1.4146   -3.7490    9.8705 H   0  0  0  0  0  0  0  0  0  0  0  0
    2.7405   -3.9973    8.7590 H   0  0  0  0  0  0  0  0  0  0  0  0
    2.7638   -2.2212   11.0009 H   0  0  0  0  0  0  0  0  0  0  0  0
    1.9551   -2.3856    5.5793 H   0  0  0  0  0  0  0  0  0  0  0  0
   -0.1222   -1.8320    4.0325 H   0  0  0  0  0  0  0  0  0  0  0  0
    1.7080   -0.8648    2.3227 H   0  0  0  0  0  0  0  0  0  0  0  0
  1  2  1  0
  1 60  1  0
  1 61  1  0
  1 62  1  0
  2  3  1  0
  2 63  1  0
  2 64  1  0
  3  4  2  0
  3  5  1  0
  5  6  1  0
  5 65  1  0
  5 66  1  0
  6  7  1  0
  7  8  2  3
 55  8  1  6
  8  9  1  0
  9 10  1  0
  9 67  1  0
  9 68  1  0
 10 11  1  0
 10 69  1  0
 10 70  1  0
 11 12  1  0
 11 13  1  0
 11 14  1  0
 12 71  1  0
 12 72  1  0
 12 73  1  0
 13 74  1  0
 13 75  1  0
 13 76  1  0
 14 55  1  0
 14 15  1  0
 14 77  1  1
 15 16  1  0
 15 17  1  0
 15 78  1  6
 16 79  1  0
 17 18  1  0
 17 19  1  0
 17 80  1  6
 18 81  1  0
 19 44  1  0
 19 58  1  6
 19 20  1  0
 20 37  1  0
 20 21  1  0
 20 82  1  6
 21 22  1  0
 22 35  1  0
 22 23  1  0
 22 83  1  6
 23 24  1  0
 23 25  1  0
 23 84  1  6
 24 85  1  0
 25 26  1  0
 25 33  1  0
 25 39  1  1
 26 31  1  0
 26 27  1  0
 26 86  1  6
 27 28  2  0
 27 87  1  0
 28 29  1  0
 28 30  1  0
 29 88  1  0
 29 89  1  0
 29 90  1  0
 30 31  1  0
 31 32  1  0
 31 91  1  1
 32 92  1  0
 33 34  1  0
 33 93  1  0
 33 94  1  0
 34 35  1  0
 35 36  1  6
 35 37  1  0
 36 95  1  0
 37 38  1  0
 37 96  1  1
 38 97  1  0
 39 40  1  0
 40 58  1  0
 40 41  1  1
 42 40  1  6
 41 98  1  0
 41 99  1  0
 41100  1  0
 42 43  2  0
 42 44  1  0
 44 45  1  0
 44101  1  6
 45 46  1  0
 45102  1  0
 45103  1  0
 46 47  1  0
 47 52  1  0
 47 48  1  1
 47 49  1  0
 48104  1  0
 49 50  1  0
 49 55  1  0
 49105  1  6
 50 51  1  0
 51 52  1  0
 51106  1  0
 51107  1  0
 52 53  1  0
 52 54  1  1
 53108  1  0
 53109  1  0
 53110  1  0
 54111  1  0
 55 56  1  0
 56 57  1  0
 56 58  1  0
 56112  1  1
 57113  1  0
 58 59  1  6
 59114  1  0
M  END
>  <i_m_ct_stereo_status>  (196) 
1

>  <s_m_source_file>  (196) 
/var/tmp/pbs.5075288.sched01/tmpo2oug7hv/195455be7ie.sdf

>  <i_m_source_file_index>  (196) 
11

>  <i_lp_mmshare_version>  (196) 
48012

>  <i_f3d_flags>  (196) 
0

>  <s_epik_input>  (196) 
W0NIM11bQ0gyXUMoPU8pW0NIMl1PL049QzFcW0NIMl1bQ0gyXUMoW0NIM10pKFtDSDNdKVtDQEhdKFtDQEBIXShbT0hdKVtDQEhdMltPSF0pW0NAXTEoW0NASF0zW0NAQF0oW09IXSkoW0NAQF0oW0NIMl1PMykoW0NIM10pW09IXSlPW0NIMl1bQ0BIXTRbUytdNVtPLV0pW0NAQEhdKFtPSF0pW0NAXTYoW09IXSlbQ0BAXTUoW0NIM10pT1tDQEBdKFtDQEBIXTdbT0hdKShbQ0BASF04W0NIXT1DKFtDSDNdKU9bQ0BIXThbT0hdKVtDSDJdT1tDQEBdKFtPSF0pKFtDQEhdOVtPSF0pW0NASF03T1tDQEhdOVtDQF0yNDY=

>  <s_epik_cmdline>  (196) 
J2VwaWtfcHl0aG9uJywgJy1waHQnLCAnMi4wJywgJy1waCcsICc3LjAnLCAnLXRuJywgJzgnLCAnLW1hJywgJzIwMCcsICctaW1hZScsICc8aW5maWxlLm1hZT4nLCAnLW9tYWUnLCAnPG91dGZpbGUubWFlPic=

>  <r_lp_tautomer_probability>  (196) 
1

>  <r_epik_Ionization_Penalty>  (196) 
2.4317e-05

>  <r_epik_Ionization_Penalty_Charging>  (196) 
0

>  <r_epik_Ionization_Penalty_Neutral>  (196) 
2.4317e-05

>  <r_epik_State_Penalty>  (196) 
-0

>  <r_epik_Charging_Adjusted_Penalty>  (196) 
0

>  <i_epik_Tot_Q>  (196) 
0

>  <i_epik_Tot_abs_Q>  (196) 
2

>  <s_epik_Chemistry_Notes>  (196) 
This compound has an imine and may undergo hydrolysis. This compound contains an acetal/aminal-like group ( X-CH(R)-Y where X, Y are N, S, or O) that may be acid/base labile, releasing an aldehyde.

>  <s_lp_Force_Field>  (196) 
OPLS3e

>  <r_lp_Energy>  (196) 
214.032

>  <b_lp_Chiralities_Consistent>  (196) 
1

>  <s_lp_Variant>  (196) 
80:0-1

>  <s_i_glide_gridfile>  (196) 
pfpi4k_grid

>  <i_i_glide_lignum>  (196) 
11

>  <i_i_glide_rotatable_bonds>  (196) 
15

>  <r_i_docking_score>  (196) 
-2.91976

>  <r_i_glide_ligand_efficiency>  (196) 
-0.0494875

>  <r_i_glide_ligand_efficiency_sa>  (196) 
-0.192655

>  <r_i_glide_ligand_efficiency_ln>  (196) 
-0.575035

>  <r_i_glide_gscore>  (196) 
-2.91976

>  <r_i_glide_lipo>  (196) 
-0.465837

>  <r_i_glide_hbond>  (196) 
0

>  <r_i_glide_metal>  (196) 
-0

>  <r_i_glide_rewards>  (196) 
-0.580057

>  <r_i_glide_evdw>  (196) 
-31.3832

>  <r_i_glide_ecoul>  (196) 
-2.25548

>  <r_i_glide_erotb>  (196) 
0.118205

>  <r_i_glide_esite>  (196) 
-0.0845908

>  <r_i_glide_emodel>  (196) 
-39.3093

>  <r_i_glide_energy>  (196) 
-33.6386

>  <r_i_glide_einternal>  (196) 
7.76923

>  <r_i_glide_intrahb_reward>  (196) 
-0.5

>  <i_i_glide_confnum>  (196) 
1

>  <i_i_glide_posenum>  (196) 
10

>  <r_i_glide_eff_state_penalty>  (196) 
0

>  <ligand_id>  (196) 
80

>  <original_smiles>  (196) 
CCC(=O)CON=C1CCC(C)(C)C2C(O)C(O)C34C5OC6C(O)C(C7C=C(C)OC7O)(COC6(O)C5O)OC5(C)[S+]([O-])C3COC3(O)C(OCC3(C)O)C12C(O)C45O

>  <smiles>  (196) 
[H]OC1([H])OC(C([H])([H])[H])=C([H])C1([H])C12OC3(C([H])([H])[H])S(=O)C4([H])C([H])([H])OC5(O[H])C([H])(OC([H])([H])C5(O[H])C([H])([H])[H])C56C(=NOC([H])([H])C(=O)C([H])([H])C([H])([H])[H])C([H])([H])C([H])([H])C(C([H])([H])[H])(C([H])([H])[H])C5([H])C([H])(O[H])C([H])(O[H])C4(C4([H])OC([H])(C1([H])O[H])C(O[H])(OC2([H])[H])C4([H])O[H])C3(O[H])C6([H])O[H]

$$$$
80:0:1
     RDKit          3D

114122  0  0  1  0  0  0  0  0999 V2000
    1.1451   -5.8143    9.4560 C   0  0  0  0  0  0  0  0  0  0  0  0
    0.4830   -5.7614    8.0552 C   0  0  0  0  0  0  0  0  0  0  0  0
   -0.7984   -4.9357    7.9816 C   0  0  0  0  0  0  0  0  0  0  0  0
   -1.2541   -4.2995    8.9371 O   0  0  0  0  0  0  0  0  0  0  0  0
   -1.3908   -4.7565    6.5851 C   0  0  0  0  0  0  0  0  0  0  0  0
   -0.4608   -5.1097    5.5640 O   0  0  0  0  0  0  0  0  0  0  0  0
    0.2483   -3.9521    5.1756 N   0  0  0  0  0  0  0  0  0  0  0  0
    1.4628   -4.1552    4.8140 C   0  0  0  0  0  0  0  0  0  0  0  0
    2.0829   -5.5721    4.8738 C   0  0  0  0  0  0  0  0  0  0  0  0
    3.1351   -5.6703    6.0101 C   0  0  0  0  0  0  0  0  0  0  0  0
    4.2597   -4.6644    5.8000 C   0  0  0  0  0  0  0  0  0  0  0  0
    5.1851   -4.7396    7.0543 C   0  0  0  0  0  0  0  0  0  0  0  0
    5.1364   -5.2386    4.6735 C   0  0  0  0  0  0  0  0  0  0  0  0
    3.6242   -3.1886    5.5571 C   0  0  2  0  0  0  0  0  0  0  0  0
    3.1315   -2.4308    6.8355 C   0  0  1  0  0  0  0  0  0  0  0  0
    3.1604   -3.0808    8.0931 O   0  0  0  0  0  0  0  0  0  0  0  0
    3.7360   -1.0216    6.9805 C   0  0  1  0  0  0  0  0  0  0  0  0
    5.1508   -1.0620    7.0014 O   0  0  0  0  0  0  0  0  0  0  0  0
    3.1786    0.1116    6.0396 C   0  0  1  0  0  0  0  0  0  0  0  0
    2.9600    1.3759    6.9679 C   0  0  2  0  0  0  0  0  0  0  0  0
    3.5901    2.5807    6.5878 O   0  0  0  0  0  0  0  0  0  0  0  0
    2.9733    3.6342    7.3066 C   0  0  1  0  0  0  0  0  0  0  0  0
    1.8634    4.2661    6.4339 C   0  0  1  0  0  0  0  0  0  0  0  0
    2.4331    5.0054    5.3778 O   0  0  0  0  0  0  0  0  0  0  0  0
    0.6179    3.3584    6.0929 C   0  0  2  0  0  0  0  0  0  0  0  0
   -0.5452    4.2514    5.5307 C   0  0  2  0  0  0  0  0  0  0  0  0
   -1.8154    3.4893    5.2341 C   0  0  0  0  0  0  0  0  0  0  0  0
   -2.1566    3.6707    3.9607 C   0  0  0  0  0  0  0  0  0  0  0  0
   -3.3243    3.1584    3.1521 C   0  0  0  0  0  0  0  0  0  0  0  0
   -1.2996    4.4818    3.2959 O   0  0  0  0  0  0  0  0  0  0  0  0
   -0.2425    4.8591    4.1266 C   0  0  1  0  0  0  0  0  0  0  0  0
   -0.1358    6.2542    4.2180 O   0  0  0  0  0  0  0  0  0  0  0  0
    0.1332    2.8198    7.4895 C   0  0  0  0  0  0  0  0  0  0  0  0
    0.9845    3.1131    8.6185 O   0  0  0  0  0  0  0  0  0  0  0  0
    2.3899    2.9868    8.5898 C   0  0  2  0  0  0  0  0  0  0  0  0
    2.9414    3.5699    9.7492 O   0  0  0  0  0  0  0  0  0  0  0  0
    2.8416    1.5168    8.4945 C   0  0  1  0  0  0  0  0  0  0  0  0
    1.9272    0.6564    9.1418 O   0  0  0  0  0  0  0  0  0  0  0  0
    0.6081    2.2715    5.0834 O   0  0  0  0  0  0  0  0  0  0  0  0
    1.4469    1.1962    4.5089 C   0  0  1  0  0  0  0  0  0  0  0  0
    0.5381    1.1103    3.2524 C   0  0  0  0  0  0  0  0  0  0  0  0
    3.0644    1.6371    3.7172 S   0  0  0  0  0  0  0  0  0  0  0  0
    3.3600    3.1118    3.9465 O   0  0  0  0  0  0  0  0  0  0  0  0
    4.1189    0.5837    4.8416 C   0  0  2  0  0  0  0  0  0  0  0  0
    4.8992   -0.3964    3.9079 C   0  0  0  0  0  0  0  0  0  0  0  0
    4.2200   -0.9456    2.7533 O   0  0  0  0  0  0  0  0  0  0  0  0
    4.2694   -2.3325    2.4765 C   0  0  1  0  0  0  0  0  0  0  0  0
    5.4485   -2.9175    2.9460 O   0  0  0  0  0  0  0  0  0  0  0  0
    2.9999   -3.1200    2.9439 C   0  0  1  0  0  0  0  0  0  0  0  0
    3.0886   -4.3435    2.2379 O   0  0  0  0  0  0  0  0  0  0  0  0
    3.5776   -4.0460    0.9218 C   0  0  0  0  0  0  0  0  0  0  0  0
    4.2027   -2.6178    0.9470 C   0  0  1  0  0  0  0  0  0  0  0  0
    3.3421   -1.5799    0.1933 C   0  0  0  0  0  0  0  0  0  0  0  0
    5.4703   -2.6225    0.3028 O   0  0  0  0  0  0  0  0  0  0  0  0
    2.4793   -2.9796    4.4508 C   0  0  1  0  0  0  0  0  0  0  0  0
    1.7495   -1.4859    4.3594 C   0  0  1  0  0  0  0  0  0  0  0  0
    0.4424   -1.6047    3.8168 O   0  0  0  0  0  0  0  0  0  0  0  0
    1.7823   -0.1852    5.3112 C   0  0  1  0  0  0  0  0  0  0  0  0
    0.7159   -0.3950    6.2301 O   0  0  0  0  0  0  0  0  0  0  0  0
    2.0691   -6.4040    9.4418 H   0  0  0  0  0  0  0  0  0  0  0  0
    0.4745   -6.2615   10.1902 H   0  0  0  0  0  0  0  0  0  0  0  0
    1.4178   -4.8110    9.8081 H   0  0  0  0  0  0  0  0  0  0  0  0
    1.0646   -5.1466    7.3951 H   0  0  0  0  0  0  0  0  0  0  0  0
    0.3597   -6.7731    7.6331 H   0  0  0  0  0  0  0  0  0  0  0  0
   -2.2396   -5.4340    6.5305 H   0  0  0  0  0  0  0  0  0  0  0  0
   -1.7670   -3.7355    6.4612 H   0  0  0  0  0  0  0  0  0  0  0  0
    1.3279   -6.3450    5.0266 H   0  0  0  0  0  0  0  0  0  0  0  0
    2.4941   -5.8468    3.9112 H   0  0  0  0  0  0  0  0  0  0  0  0
    2.7775   -5.3971    6.9773 H   0  0  0  0  0  0  0  0  0  0  0  0
    3.4780   -6.7094    6.0993 H   0  0  0  0  0  0  0  0  0  0  0  0
    5.7201   -3.8069    7.2253 H   0  0  0  0  0  0  0  0  0  0  0  0
    5.9305   -5.5307    6.9763 H   0  0  0  0  0  0  0  0  0  0  0  0
    4.6603   -4.9891    7.9727 H   0  0  0  0  0  0  0  0  0  0  0  0
    6.0771   -4.6925    4.5763 H   0  0  0  0  0  0  0  0  0  0  0  0
    4.6363   -5.2853    3.7129 H   0  0  0  0  0  0  0  0  0  0  0  0
    5.3972   -6.2776    4.8994 H   0  0  0  0  0  0  0  0  0  0  0  0
    4.4910   -2.6471    5.2304 H   0  0  0  0  0  0  0  0  0  0  0  0
    2.0511   -2.3383    6.7930 H   0  0  0  0  0  0  0  0  0  0  0  0
    4.0555   -3.3004    8.3208 H   0  0  0  0  0  0  0  0  0  0  0  0
    3.5066   -0.7774    8.0093 H   0  0  0  0  0  0  0  0  0  0  0  0
    5.4281   -1.6317    7.7104 H   0  0  0  0  0  0  0  0  0  0  0  0
    1.9431    1.5240    6.8029 H   0  0  0  0  0  0  0  0  0  0  0  0
    3.7172    4.3858    7.5748 H   0  0  0  0  0  0  0  0  0  0  0  0
    1.4645    5.0720    7.0592 H   0  0  0  0  0  0  0  0  0  0  0  0
    2.8357    4.3828    4.7674 H   0  0  0  0  0  0  0  0  0  0  0  0
   -0.7903    5.0495    6.2364 H   0  0  0  0  0  0  0  0  0  0  0  0
   -2.3639    2.9094    5.9635 H   0  0  0  0  0  0  0  0  0  0  0  0
   -3.9912    2.5461    3.7578 H   0  0  0  0  0  0  0  0  0  0  0  0
   -2.9594    2.5614    2.3159 H   0  0  0  0  0  0  0  0  0  0  0  0
   -3.8947    3.9899    2.7410 H   0  0  0  0  0  0  0  0  0  0  0  0
    0.6739    4.4673    3.6737 H   0  0  0  0  0  0  0  0  0  0  0  0
    0.2199    6.5956    3.4004 H   0  0  0  0  0  0  0  0  0  0  0  0
   -0.8237    3.2671    7.7719 H   0  0  0  0  0  0  0  0  0  0  0  0
   -0.0761    1.7494    7.4633 H   0  0  0  0  0  0  0  0  0  0  0  0
    2.6136    3.0826   10.4982 H   0  0  0  0  0  0  0  0  0  0  0  0
    3.8240    1.4126    8.9513 H   0  0  0  0  0  0  0  0  0  0  0  0
    1.0519    0.8725    8.8487 H   0  0  0  0  0  0  0  0  0  0  0  0
   -0.4700    0.7968    3.5218 H   0  0  0  0  0  0  0  0  0  0  0  0
    0.9267    0.4644    2.4648 H   0  0  0  0  0  0  0  0  0  0  0  0
    0.4252    2.0840    2.7699 H   0  0  0  0  0  0  0  0  0  0  0  0
    4.9121    1.2091    5.2588 H   0  0  0  0  0  0  0  0  0  0  0  0
    5.6861    0.2044    3.4534 H   0  0  0  0  0  0  0  0  0  0  0  0
    5.5018   -1.0883    4.4829 H   0  0  0  0  0  0  0  0  0  0  0  0
    5.4232   -2.9422    3.8910 H   0  0  0  0  0  0  0  0  0  0  0  0
    2.1612   -2.7448    2.3611 H   0  0  0  0  0  0  0  0  0  0  0  0
    4.2921   -4.8091    0.6059 H   0  0  0  0  0  0  0  0  0  0  0  0
    2.7328   -4.1096    0.2399 H   0  0  0  0  0  0  0  0  0  0  0  0
    2.3362   -1.5016    0.6033 H   0  0  0  0  0  0  0  0  0  0  0  0
    3.2355   -1.8400   -0.8604 H   0  0  0  0  0  0  0  0  0  0  0  0
    3.7878   -0.5861    0.2309 H   0  0  0  0  0  0  0  0  0  0  0  0
    5.3376   -2.8602   -0.6057 H   0  0  0  0  0  0  0  0  0  0  0  0
    2.1866   -1.0188    3.5008 H   0  0  0  0  0  0  0  0  0  0  0  0
    0.2611   -0.8366    3.2864 H   0  0  0  0  0  0  0  0  0  0  0  0
   -0.0872   -0.4237    5.7235 H   0  0  0  0  0  0  0  0  0  0  0  0
  1  2  1  0
  1 60  1  0
  1 61  1  0
  1 62  1  0
  2  3  1  0
  2 63  1  0
  2 64  1  0
  3  4  2  0
  3  5  1  0
  5  6  1  0
  5 65  1  0
  5 66  1  0
  6  7  1  0
  7  8  2  3
 55  8  1  1
  8  9  1  0
  9 10  1  0
  9 67  1  0
  9 68  1  0
 10 11  1  0
 10 69  1  0
 10 70  1  0
 11 12  1  0
 11 13  1  0
 11 14  1  0
 12 71  1  0
 12 72  1  0
 12 73  1  0
 13 74  1  0
 13 75  1  0
 13 76  1  0
 14 55  1  0
 14 15  1  0
 14 77  1  6
 15 16  1  0
 15 17  1  0
 15 78  1  6
 16 79  1  0
 17 18  1  0
 17 19  1  0
 17 80  1  1
 18 81  1  0
 19 44  1  0
 19 58  1  6
 19 20  1  0
 20 37  1  0
 20 21  1  0
 20 82  1  6
 21 22  1  0
 22 35  1  0
 22 23  1  0
 22 83  1  1
 23 24  1  0
 23 25  1  0
 23 84  1  1
 24 85  1  0
 25 26  1  0
 25 33  1  0
 25 39  1  6
 26 31  1  0
 26 27  1  0
 26 86  1  1
 27 28  2  0
 27 87  1  0
 28 29  1  0
 28 30  1  0
 29 88  1  0
 29 89  1  0
 29 90  1  0
 30 31  1  0
 31 32  1  0
 31 91  1  6
 32 92  1  0
 33 34  1  0
 33 93  1  0
 33 94  1  0
 34 35  1  0
 35 36  1  1
 35 37  1  0
 36 95  1  0
 37 38  1  0
 37 96  1  1
 38 97  1  0
 39 40  1  0
 40 58  1  0
 40 41  1  6
 42 40  1  1
 41 98  1  0
 41 99  1  0
 41100  1  0
 42 43  2  0
 42 44  1  0
 44 45  1  0
 44101  1  1
 45 46  1  0
 45102  1  0
 45103  1  0
 46 47  1  0
 47 52  1  0
 47 48  1  1
 47 49  1  0
 48104  1  0
 49 50  1  0
 49 55  1  0
 49105  1  6
 50 51  1  0
 51 52  1  0
 51106  1  0
 51107  1  0
 52 53  1  0
 52 54  1  6
 53108  1  0
 53109  1  0
 53110  1  0
 54111  1  0
 55 56  1  0
 56 57  1  0
 56 58  1  0
 56112  1  6
 57113  1  0
 58 59  1  1
 59114  1  0
M  END
>  <i_m_ct_stereo_status>  (197) 
1

>  <s_m_source_file>  (197) 
/var/tmp/pbs.5075288.sched01/tmpo2oug7hv/195455be7ie.sdf

>  <i_m_source_file_index>  (197) 
11

>  <i_lp_mmshare_version>  (197) 
48012

>  <i_f3d_flags>  (197) 
0

>  <s_epik_input>  (197) 
W0NIM11bQ0gyXUMoPU8pW0NIMl1PL049QzFcW0NIMl1bQ0gyXUMoW0NIM10pKFtDSDNdKVtDQEhdKFtDQEBIXShbT0hdKVtDQEhdMltPSF0pW0NAXTEoW0NASF0zW0NAQF0oW09IXSkoW0NAQF0oW0NIMl1PMykoW0NIM10pW09IXSlPW0NIMl1bQ0BIXTRbUytdNVtPLV0pW0NAQEhdKFtPSF0pW0NAXTYoW09IXSlbQ0BAXTUoW0NIM10pT1tDQEBdKFtDQEBIXTdbT0hdKShbQ0BASF04W0NIXT1DKFtDSDNdKU9bQ0BIXThbT0hdKVtDSDJdT1tDQEBdKFtPSF0pKFtDQEhdOVtPSF0pW0NASF03T1tDQEhdOVtDQF0yNDY=

>  <s_epik_cmdline>  (197) 
J2VwaWtfcHl0aG9uJywgJy1waHQnLCAnMi4wJywgJy1waCcsICc3LjAnLCAnLXRuJywgJzgnLCAnLW1hJywgJzIwMCcsICctaW1hZScsICc8aW5maWxlLm1hZT4nLCAnLW9tYWUnLCAnPG91dGZpbGUubWFlPic=

>  <r_lp_tautomer_probability>  (197) 
1

>  <r_epik_Ionization_Penalty>  (197) 
2.4317e-05

>  <r_epik_Ionization_Penalty_Charging>  (197) 
0

>  <r_epik_Ionization_Penalty_Neutral>  (197) 
2.4317e-05

>  <r_epik_State_Penalty>  (197) 
-0

>  <r_epik_Charging_Adjusted_Penalty>  (197) 
0

>  <i_epik_Tot_Q>  (197) 
0

>  <i_epik_Tot_abs_Q>  (197) 
2

>  <s_epik_Chemistry_Notes>  (197) 
This compound has an imine and may undergo hydrolysis. This compound contains an acetal/aminal-like group ( X-CH(R)-Y where X, Y are N, S, or O) that may be acid/base labile, releasing an aldehyde.

>  <s_lp_Force_Field>  (197) 
OPLS3e

>  <r_lp_Energy>  (197) 
214.032

>  <b_lp_Chiralities_Consistent>  (197) 
1

>  <s_lp_Variant>  (197) 
80:0-1

>  <s_i_glide_gridfile>  (197) 
pfpi4k_grid

>  <i_i_glide_lignum>  (197) 
11

>  <i_i_glide_rotatable_bonds>  (197) 
15

>  <r_i_docking_score>  (197) 
-2.86871

>  <r_i_glide_ligand_efficiency>  (197) 
-0.0486222

>  <r_i_glide_ligand_efficiency_sa>  (197) 
-0.189286

>  <r_i_glide_ligand_efficiency_ln>  (197) 
-0.564981

>  <r_i_glide_gscore>  (197) 
-2.86871

>  <r_i_glide_lipo>  (197) 
-0.1144

>  <r_i_glide_hbond>  (197) 
-0.0718816

>  <r_i_glide_metal>  (197) 
-0

>  <r_i_glide_rewards>  (197) 
-0.56249

>  <r_i_glide_evdw>  (197) 
-29.4592

>  <r_i_glide_ecoul>  (197) 
-4.4135

>  <r_i_glide_erotb>  (197) 
0.118205

>  <r_i_glide_esite>  (197) 
-0.103158

>  <r_i_glide_emodel>  (197) 
-40.6375

>  <r_i_glide_energy>  (197) 
-33.8727

>  <r_i_glide_einternal>  (197) 
5.78306

>  <r_i_glide_intrahb_reward>  (197) 
-0.5

>  <i_i_glide_confnum>  (197) 
5

>  <i_i_glide_posenum>  (197) 
1

>  <r_i_glide_eff_state_penalty>  (197) 
0

>  <ligand_id>  (197) 
80

>  <original_smiles>  (197) 
CCC(=O)CON=C1CCC(C)(C)C2C(O)C(O)C34C5OC6C(O)C(C7C=C(C)OC7O)(COC6(O)C5O)OC5(C)[S+]([O-])C3COC3(O)C(OCC3(C)O)C12C(O)C45O

>  <smiles>  (197) 
[H]OC1([H])OC(C([H])([H])[H])=C([H])C1([H])C12OC3(C([H])([H])[H])S(=O)C4([H])C([H])([H])OC5(O[H])C([H])(OC([H])([H])C5(O[H])C([H])([H])[H])C56C(=NOC([H])([H])C(=O)C([H])([H])C([H])([H])[H])C([H])([H])C([H])([H])C(C([H])([H])[H])(C([H])([H])[H])C5([H])C([H])(O[H])C([H])(O[H])C4(C4([H])OC([H])(C1([H])O[H])C(O[H])(OC2([H])[H])C4([H])O[H])C3(O[H])C6([H])O[H]

$$$$
80:0:2
     RDKit          3D

114122  0  0  1  0  0  0  0  0999 V2000
   -1.1912   -4.2338    8.8740 C   0  0  0  0  0  0  0  0  0  0  0  0
    0.1705   -4.8152    8.4781 C   0  0  0  0  0  0  0  0  0  0  0  0
    0.1291   -5.6687    7.2094 C   0  0  0  0  0  0  0  0  0  0  0  0
    0.8221   -6.6531    7.0872 O   0  0  0  0  0  0  0  0  0  0  0  0
   -0.8248   -5.1906    6.0937 C   0  0  0  0  0  0  0  0  0  0  0  0
   -0.1769   -5.2809    4.8381 O   0  0  0  0  0  0  0  0  0  0  0  0
    0.4945   -4.0735    4.6104 N   0  0  0  0  0  0  0  0  0  0  0  0
    1.7130   -4.2115    4.2720 C   0  0  0  0  0  0  0  0  0  0  0  0
    2.3537   -5.6038    4.2496 C   0  0  0  0  0  0  0  0  0  0  0  0
    3.2444   -5.7347    5.4802 C   0  0  0  0  0  0  0  0  0  0  0  0
    4.4075   -4.7200    5.3956 C   0  0  0  0  0  0  0  0  0  0  0  0
    5.2911   -4.8787    6.6614 C   0  0  0  0  0  0  0  0  0  0  0  0
    5.3579   -5.1994    4.2637 C   0  0  0  0  0  0  0  0  0  0  0  0
    3.7832   -3.2395    5.2167 C   0  0  2  0  0  0  0  0  0  0  0  0
    3.1904   -2.5970    6.5120 C   0  0  1  0  0  0  0  0  0  0  0  0
    3.2038   -3.3160    7.7299 O   0  0  0  0  0  0  0  0  0  0  0  0
    3.7553   -1.1978    6.7787 C   0  0  1  0  0  0  0  0  0  0  0  0
    5.1706   -1.2099    6.8595 O   0  0  0  0  0  0  0  0  0  0  0  0
    3.2072   -0.0194    5.9111 C   0  0  1  0  0  0  0  0  0  0  0  0
    2.9087    1.1644    6.9296 C   0  0  2  0  0  0  0  0  0  0  0  0
    3.5396    2.3995    6.6731 O   0  0  0  0  0  0  0  0  0  0  0  0
    2.8542    3.3840    7.4074 C   0  0  1  0  0  0  0  0  0  0  0  0
    1.7616    4.0406    6.5349 C   0  0  1  0  0  0  0  0  0  0  0  0
    2.3417    4.8863    5.5665 O   0  0  0  0  0  0  0  0  0  0  0  0
    0.5533    3.1488    6.0725 C   0  0  2  0  0  0  0  0  0  0  0  0
   -0.5903    4.0806    5.5236 C   0  0  2  0  0  0  0  0  0  0  0  0
   -1.8563    3.3386    5.1833 C   0  0  0  0  0  0  0  0  0  0  0  0
   -2.1847    3.5524    3.9148 C   0  0  0  0  0  0  0  0  0  0  0  0
   -3.3407    3.0522    3.0953 C   0  0  0  0  0  0  0  0  0  0  0  0
   -1.3032    4.3784    3.2811 O   0  0  0  0  0  0  0  0  0  0  0  0
   -0.2647    4.7277    4.1397 C   0  0  1  0  0  0  0  0  0  0  0  0
   -0.1347    6.1351    4.2418 O   0  0  0  0  0  0  0  0  0  0  0  0
    0.0324    2.5111    7.4098 C   0  0  0  0  0  0  0  0  0  0  0  0
    0.8152    2.7688    8.6063 O   0  0  0  0  0  0  0  0  0  0  0  0
    2.2319    2.6525    8.6222 C   0  0  2  0  0  0  0  0  0  0  0  0
    2.7446    3.1941    9.8198 O   0  0  0  0  0  0  0  0  0  0  0  0
    2.7121    1.1849    8.4543 C   0  0  1  0  0  0  0  0  0  0  0  0
    1.7639    0.2510    8.9515 O   0  0  0  0  0  0  0  0  0  0  0  0
    0.5859    2.0993    5.0277 O   0  0  0  0  0  0  0  0  0  0  0  0
    1.5065    1.1263    4.3916 C   0  0  1  0  0  0  0  0  0  0  0  0
    0.6879    1.1276    3.0759 C   0  0  0  0  0  0  0  0  0  0  0  0
    3.1445    1.6728    3.7543 S   0  0  0  0  0  0  0  0  0  0  0  0
    3.3901    3.1663    4.1284 O   0  0  0  0  0  0  0  0  0  0  0  0
    4.1956    0.5669    4.8104 C   0  0  2  0  0  0  0  0  0  0  0  0
    5.0477   -0.3058    3.8317 C   0  0  0  0  0  0  0  0  0  0  0  0
    4.4437   -0.7840    2.6086 O   0  0  0  0  0  0  0  0  0  0  0  0
    4.5518   -2.1447    2.2345 C   0  0  1  0  0  0  0  0  0  0  0  0
    5.7461   -2.7291    2.6992 O   0  0  0  0  0  0  0  0  0  0  0  0
    3.2836   -2.9909    2.5770 C   0  0  1  0  0  0  0  0  0  0  0  0
    3.4094   -4.1504    1.7848 O   0  0  0  0  0  0  0  0  0  0  0  0
    3.9586   -3.7419    0.5269 C   0  0  0  0  0  0  0  0  0  0  0  0
    4.5494   -2.3142    0.6933 C   0  0  1  0  0  0  0  0  0  0  0  0
    3.7009   -1.2400   -0.0158 C   0  0  0  0  0  0  0  0  0  0  0  0
    5.8489   -2.2600    0.1190 O   0  0  0  0  0  0  0  0  0  0  0  0
    2.6999   -2.9761    4.0615 C   0  0  1  0  0  0  0  0  0  0  0  0
    1.9144   -1.5081    4.0436 C   0  0  1  0  0  0  0  0  0  0  0  0
    0.6282   -1.6193    3.4583 O   0  0  0  0  0  0  0  0  0  0  0  0
    1.8657   -0.3063    5.0945 C   0  0  1  0  0  0  0  0  0  0  0  0
    0.7591   -0.6129    5.9265 O   0  0  0  0  0  0  0  0  0  0  0  0
   -1.1347   -3.7268    9.8395 H   0  0  0  0  0  0  0  0  0  0  0  0
   -1.9350   -5.0288    8.9359 H   0  0  0  0  0  0  0  0  0  0  0  0
   -1.5389   -3.4995    8.1470 H   0  0  0  0  0  0  0  0  0  0  0  0
    0.8995   -4.0169    8.3464 H   0  0  0  0  0  0  0  0  0  0  0  0
    0.5521   -5.4554    9.2722 H   0  0  0  0  0  0  0  0  0  0  0  0
   -1.6842   -5.8560    6.0824 H   0  0  0  0  0  0  0  0  0  0  0  0
   -1.2058   -4.1733    6.2028 H   0  0  0  0  0  0  0  0  0  0  0  0
    1.6480   -6.4143    4.3033 H   0  0  0  0  0  0  0  0  0  0  0  0
    2.8334   -5.7958    3.2997 H   0  0  0  0  0  0  0  0  0  0  0  0
    2.6398   -5.5922    6.3833 H   0  0  0  0  0  0  0  0  0  0  0  0
    3.6394   -6.7539    5.5361 H   0  0  0  0  0  0  0  0  0  0  0  0
    5.8028   -3.9560    6.9123 H   0  0  0  0  0  0  0  0  0  0  0  0
    6.0481   -5.6494    6.5446 H   0  0  0  0  0  0  0  0  0  0  0  0
    4.7111   -5.2108    7.5190 H   0  0  0  0  0  0  0  0  0  0  0  0
    6.2881   -4.6469    4.2679 H   0  0  0  0  0  0  0  0  0  0  0  0
    4.9245   -5.1683    3.2757 H   0  0  0  0  0  0  0  0  0  0  0  0
    5.6360   -6.2394    4.4278 H   0  0  0  0  0  0  0  0  0  0  0  0
    4.6511   -2.6690    4.9705 H   0  0  0  0  0  0  0  0  0  0  0  0
    2.1132   -2.5382    6.4140 H   0  0  0  0  0  0  0  0  0  0  0  0
    4.0858   -3.5818    7.9298 H   0  0  0  0  0  0  0  0  0  0  0  0
    3.4752   -1.0304    7.8086 H   0  0  0  0  0  0  0  0  0  0  0  0
    5.4219   -1.8181    7.5389 H   0  0  0  0  0  0  0  0  0  0  0  0
    1.8976    1.2925    6.7140 H   0  0  0  0  0  0  0  0  0  0  0  0
    3.5689    4.1300    7.7550 H   0  0  0  0  0  0  0  0  0  0  0  0
    1.3265    4.7813    7.2058 H   0  0  0  0  0  0  0  0  0  0  0  0
    2.7998    4.3097    4.9508 H   0  0  0  0  0  0  0  0  0  0  0  0
   -0.8514    4.8566    6.2518 H   0  0  0  0  0  0  0  0  0  0  0  0
   -2.4106    2.7243    5.8796 H   0  0  0  0  0  0  0  0  0  0  0  0
   -4.0139    2.4318    3.6851 H   0  0  0  0  0  0  0  0  0  0  0  0
   -2.9774    2.4619    2.2531 H   0  0  0  0  0  0  0  0  0  0  0  0
   -3.9142    3.8898    2.6989 H   0  0  0  0  0  0  0  0  0  0  0  0
    0.6653    4.3553    3.7170 H   0  0  0  0  0  0  0  0  0  0  0  0
    0.2099    6.4617    3.4319 H   0  0  0  0  0  0  0  0  0  0  0  0
   -0.9452    2.9061    7.6627 H   0  0  0  0  0  0  0  0  0  0  0  0
   -0.1420    1.4428    7.2768 H   0  0  0  0  0  0  0  0  0  0  0  0
    2.4631    4.0927    9.9154 H   0  0  0  0  0  0  0  0  0  0  0  0
    3.6696    1.0636    8.9494 H   0  0  0  0  0  0  0  0  0  0  0  0
    2.1451   -0.6117    8.9286 H   0  0  0  0  0  0  0  0  0  0  0  0
   -0.3268    0.7775    3.2531 H   0  0  0  0  0  0  0  0  0  0  0  0
    1.1403    0.5623    2.2599 H   0  0  0  0  0  0  0  0  0  0  0  0
    0.5870    2.1421    2.6750 H   0  0  0  0  0  0  0  0  0  0  0  0
    4.9631    1.1609    5.3174 H   0  0  0  0  0  0  0  0  0  0  0  0
    5.8408    0.3394    3.4551 H   0  0  0  0  0  0  0  0  0  0  0  0
    5.6293   -1.0310    4.3732 H   0  0  0  0  0  0  0  0  0  0  0  0
    5.6629   -2.8959    3.6224 H   0  0  0  0  0  0  0  0  0  0  0  0
    2.4598   -2.5697    2.0005 H   0  0  0  0  0  0  0  0  0  0  0  0
    4.7164   -4.4637    0.2153 H   0  0  0  0  0  0  0  0  0  0  0  0
    3.1752   -3.7627   -0.2292 H   0  0  0  0  0  0  0  0  0  0  0  0
    2.6711   -1.2127    0.3409 H   0  0  0  0  0  0  0  0  0  0  0  0
    3.6616   -1.4360   -1.0895 H   0  0  0  0  0  0  0  0  0  0  0  0
    4.1269   -0.2438    0.1133 H   0  0  0  0  0  0  0  0  0  0  0  0
    6.3943   -2.8536    0.6149 H   0  0  0  0  0  0  0  0  0  0  0  0
    2.3599   -0.9524    3.2429 H   0  0  0  0  0  0  0  0  0  0  0  0
    0.4684   -0.8425    2.9458 H   0  0  0  0  0  0  0  0  0  0  0  0
   -0.0110   -0.6020    5.3764 H   0  0  0  0  0  0  0  0  0  0  0  0
  1  2  1  0
  1 60  1  0
  1 61  1  0
  1 62  1  0
  2  3  1  0
  2 63  1  0
  2 64  1  0
  3  4  2  0
  3  5  1  0
  5  6  1  0
  5 65  1  0
  5 66  1  0
  6  7  1  0
  7  8  2  3
 55  8  1  6
  8  9  1  0
  9 10  1  0
  9 67  1  0
  9 68  1  0
 10 11  1  0
 10 69  1  0
 10 70  1  0
 11 12  1  0
 11 13  1  0
 11 14  1  0
 12 71  1  0
 12 72  1  0
 12 73  1  0
 13 74  1  0
 13 75  1  0
 13 76  1  0
 14 55  1  0
 14 15  1  0
 14 77  1  6
 15 16  1  0
 15 17  1  0
 15 78  1  6
 16 79  1  0
 17 18  1  0
 17 19  1  0
 17 80  1  1
 18 81  1  0
 19 44  1  0
 19 58  1  6
 19 20  1  0
 20 37  1  0
 20 21  1  0
 20 82  1  6
 21 22  1  0
 22 35  1  0
 22 23  1  0
 22 83  1  1
 23 24  1  0
 23 25  1  0
 23 84  1  1
 24 85  1  0
 25 26  1  0
 25 33  1  0
 25 39  1  6
 26 31  1  0
 26 27  1  0
 26 86  1  1
 27 28  2  0
 27 87  1  0
 28 29  1  0
 28 30  1  0
 29 88  1  0
 29 89  1  0
 29 90  1  0
 30 31  1  0
 31 32  1  0
 31 91  1  6
 32 92  1  0
 33 34  1  0
 33 93  1  0
 33 94  1  0
 34 35  1  0
 35 36  1  1
 35 37  1  0
 36 95  1  0
 37 38  1  0
 37 96  1  1
 38 97  1  0
 39 40  1  0
 40 58  1  0
 40 41  1  6
 42 40  1  1
 41 98  1  0
 41 99  1  0
 41100  1  0
 42 43  2  0
 42 44  1  0
 44 45  1  0
 44101  1  1
 45 46  1  0
 45102  1  0
 45103  1  0
 46 47  1  0
 47 52  1  0
 47 48  1  1
 47 49  1  0
 48104  1  0
 49 50  1  0
 49 55  1  0
 49105  1  6
 50 51  1  0
 51 52  1  0
 51106  1  0
 51107  1  0
 52 53  1  0
 52 54  1  6
 53108  1  0
 53109  1  0
 53110  1  0
 54111  1  0
 55 56  1  0
 56 57  1  0
 56 58  1  0
 56112  1  6
 57113  1  0
 58 59  1  1
 59114  1  0
M  END
>  <i_m_ct_stereo_status>  (198) 
1

>  <s_m_source_file>  (198) 
/var/tmp/pbs.5075288.sched01/tmpo2oug7hv/195455be7ie.sdf

>  <i_m_source_file_index>  (198) 
11

>  <i_lp_mmshare_version>  (198) 
48012

>  <i_f3d_flags>  (198) 
0

>  <s_epik_input>  (198) 
W0NIM11bQ0gyXUMoPU8pW0NIMl1PL049QzFcW0NIMl1bQ0gyXUMoW0NIM10pKFtDSDNdKVtDQEhdKFtDQEBIXShbT0hdKVtDQEhdMltPSF0pW0NAXTEoW0NASF0zW0NAQF0oW09IXSkoW0NAQF0oW0NIMl1PMykoW0NIM10pW09IXSlPW0NIMl1bQ0BIXTRbUytdNVtPLV0pW0NAQEhdKFtPSF0pW0NAXTYoW09IXSlbQ0BAXTUoW0NIM10pT1tDQEBdKFtDQEBIXTdbT0hdKShbQ0BASF04W0NIXT1DKFtDSDNdKU9bQ0BIXThbT0hdKVtDSDJdT1tDQEBdKFtPSF0pKFtDQEhdOVtPSF0pW0NASF03T1tDQEhdOVtDQF0yNDY=

>  <s_epik_cmdline>  (198) 
J2VwaWtfcHl0aG9uJywgJy1waHQnLCAnMi4wJywgJy1waCcsICc3LjAnLCAnLXRuJywgJzgnLCAnLW1hJywgJzIwMCcsICctaW1hZScsICc8aW5maWxlLm1hZT4nLCAnLW9tYWUnLCAnPG91dGZpbGUubWFlPic=

>  <r_lp_tautomer_probability>  (198) 
1

>  <r_epik_Ionization_Penalty>  (198) 
2.4317e-05

>  <r_epik_Ionization_Penalty_Charging>  (198) 
0

>  <r_epik_Ionization_Penalty_Neutral>  (198) 
2.4317e-05

>  <r_epik_State_Penalty>  (198) 
-0

>  <r_epik_Charging_Adjusted_Penalty>  (198) 
0

>  <i_epik_Tot_Q>  (198) 
0

>  <i_epik_Tot_abs_Q>  (198) 
2

>  <s_epik_Chemistry_Notes>  (198) 
This compound has an imine and may undergo hydrolysis. This compound contains an acetal/aminal-like group ( X-CH(R)-Y where X, Y are N, S, or O) that may be acid/base labile, releasing an aldehyde.

>  <s_lp_Force_Field>  (198) 
OPLS3e

>  <r_lp_Energy>  (198) 
214.032

>  <b_lp_Chiralities_Consistent>  (198) 
1

>  <s_lp_Variant>  (198) 
80:0-1

>  <s_i_glide_gridfile>  (198) 
pfpi4k_grid

>  <i_i_glide_lignum>  (198) 
11

>  <i_i_glide_rotatable_bonds>  (198) 
15

>  <r_i_docking_score>  (198) 
-2.5733

>  <r_i_glide_ligand_efficiency>  (198) 
-0.0436152

>  <r_i_glide_ligand_efficiency_sa>  (198) 
-0.169794

>  <r_i_glide_ligand_efficiency_ln>  (198) 
-0.5068

>  <r_i_glide_gscore>  (198) 
-2.5733

>  <r_i_glide_lipo>  (198) 
-0.19347

>  <r_i_glide_hbond>  (198) 
-0.0368679

>  <r_i_glide_metal>  (198) 
-0

>  <r_i_glide_rewards>  (198) 
-0.543745

>  <r_i_glide_evdw>  (198) 
-29.4558

>  <r_i_glide_ecoul>  (198) 
-2.23382

>  <r_i_glide_erotb>  (198) 
0.118205

>  <r_i_glide_esite>  (198) 
-0.109556

>  <r_i_glide_emodel>  (198) 
-36.8164

>  <r_i_glide_energy>  (198) 
-31.6896

>  <r_i_glide_einternal>  (198) 
8.42042

>  <r_i_glide_intrahb_reward>  (198) 
-0.5

>  <i_i_glide_confnum>  (198) 
3

>  <i_i_glide_posenum>  (198) 
18

>  <r_i_glide_eff_state_penalty>  (198) 
0

>  <ligand_id>  (198) 
80

>  <original_smiles>  (198) 
CCC(=O)CON=C1CCC(C)(C)C2C(O)C(O)C34C5OC6C(O)C(C7C=C(C)OC7O)(COC6(O)C5O)OC5(C)[S+]([O-])C3COC3(O)C(OCC3(C)O)C12C(O)C45O

>  <smiles>  (198) 
[H]OC1([H])OC(C([H])([H])[H])=C([H])C1([H])C12OC3(C([H])([H])[H])S(=O)C4([H])C([H])([H])OC5(O[H])C([H])(OC([H])([H])C5(O[H])C([H])([H])[H])C56C(=NOC([H])([H])C(=O)C([H])([H])C([H])([H])[H])C([H])([H])C([H])([H])C(C([H])([H])[H])(C([H])([H])[H])C5([H])C([H])(O[H])C([H])(O[H])C4(C4([H])OC([H])(C1([H])O[H])C(O[H])(OC2([H])[H])C4([H])O[H])C3(O[H])C6([H])O[H]

$$$$
80:1:0
     RDKit          3D

114122  0  0  1  0  0  0  0  0999 V2000
    2.9079   -2.8742   -2.1058 C   0  0  0  0  0  0  0  0  0  0  0  0
    3.5398   -1.8828   -1.1104 C   0  0  0  0  0  0  0  0  0  0  0  0
    3.4331   -2.3193    0.3541 C   0  0  0  0  0  0  0  0  0  0  0  0
    2.7084   -3.2440    0.6995 O   0  0  0  0  0  0  0  0  0  0  0  0
    4.2665   -1.5260    1.3681 C   0  0  0  0  0  0  0  0  0  0  0  0
    3.9848   -1.9827    2.6861 O   0  0  0  0  0  0  0  0  0  0  0  0
    4.9116   -1.3885    3.5583 N   0  0  0  0  0  0  0  0  0  0  0  0
    4.7530   -1.6487    4.8130 C   0  0  0  0  0  0  0  0  0  0  0  0
    5.6169   -0.8044    5.7511 C   0  0  0  0  0  0  0  0  0  0  0  0
    6.3721   -1.5693    6.8301 C   0  0  0  0  0  0  0  0  0  0  0  0
    5.6667   -2.8519    7.3250 C   0  0  0  0  0  0  0  0  0  0  0  0
    6.3915   -4.0665    6.6994 C   0  0  0  0  0  0  0  0  0  0  0  0
    6.0089   -2.9053    8.8397 C   0  0  0  0  0  0  0  0  0  0  0  0
    4.0902   -2.7911    7.0317 C   0  0  2  0  0  0  0  0  0  0  0  0
    3.3344   -3.8761    7.8824 C   0  0  1  0  0  0  0  0  0  0  0  0
    3.1316   -3.3258    9.1754 O   0  0  0  0  0  0  0  0  0  0  0  0
    1.9720   -4.5646    7.5494 C   0  0  1  0  0  0  0  0  0  0  0  0
    0.8074   -4.0798    8.1869 O   0  0  0  0  0  0  0  0  0  0  0  0
    1.7185   -5.3795    6.2337 C   0  0  1  0  0  0  0  0  0  0  0  0
    1.4330   -6.8873    6.6511 C   0  0  2  0  0  0  0  0  0  0  0  0
    0.2370   -7.4965    6.2071 O   0  0  0  0  0  0  0  0  0  0  0  0
    0.4268   -8.9008    6.3075 C   0  0  1  0  0  0  0  0  0  0  0  0
    0.9423   -9.4982    4.9787 C   0  0  1  0  0  0  0  0  0  0  0  0
   -0.0597   -9.5894    3.9806 O   0  0  0  0  0  0  0  0  0  0  0  0
    2.3948   -9.1001    4.5201 C   0  0  2  0  0  0  0  0  0  0  0  0
    2.8260  -10.0505    3.3393 C   0  0  2  0  0  0  0  0  0  0  0  0
    3.0292  -11.5009    3.6879 C   0  0  0  0  0  0  0  0  0  0  0  0
    4.2796  -11.8630    3.4143 C   0  0  0  0  0  0  0  0  0  0  0  0
    4.9790  -13.1838    3.6049 C   0  0  0  0  0  0  0  0  0  0  0  0
    5.0283  -10.8512    2.9065 O   0  0  0  0  0  0  0  0  0  0  0  0
    4.2497   -9.6960    2.7811 C   0  0  1  0  0  0  0  0  0  0  0  0
    4.1844   -9.2700    1.4411 O   0  0  0  0  0  0  0  0  0  0  0  0
    3.3204   -9.3604    5.7623 C   0  0  0  0  0  0  0  0  0  0  0  0
    2.6473   -9.7461    6.9737 O   0  0  0  0  0  0  0  0  0  0  0  0
    1.4741   -9.1085    7.4477 C   0  0  2  0  0  0  0  0  0  0  0  0
    0.9207   -9.8560    8.5007 O   0  0  0  0  0  0  0  0  0  0  0  0
    1.7704   -7.6662    7.9365 C   0  0  1  0  0  0  0  0  0  0  0  0
    3.1019   -7.5282    8.4009 O   0  0  0  0  0  0  0  0  0  0  0  0
    2.7008   -7.7942    3.8975 O   0  0  0  0  0  0  0  0  0  0  0  0
    2.3884   -6.3515    3.9764 C   0  0  1  0  0  0  0  0  0  0  0  0
    2.9971   -6.0808    2.5828 C   0  0  0  0  0  0  0  0  0  0  0  0
    0.6388   -5.7629    3.7423 S   0  0  0  0  0  0  0  0  0  0  0  0
   -0.3989   -6.8681    3.5800 O   0  0  0  0  0  0  0  0  0  0  0  0
    0.4655   -4.9302    5.3961 C   0  0  2  0  0  0  0  0  0  0  0  0
    0.2479   -3.4662    4.9962 C   0  0  0  0  0  0  0  0  0  0  0  0
    0.2450   -2.5974    6.0973 O   0  0  0  0  0  0  0  0  0  0  0  0
    1.1139   -1.5155    6.2110 C   0  0  1  0  0  0  0  0  0  0  0  0
    1.4721   -1.3160    7.5663 O   0  0  0  0  0  0  0  0  0  0  0  0
    2.3892   -1.5345    5.3098 C   0  0  1  0  0  0  0  0  0  0  0  0
    2.7156   -0.1413    5.3576 O   0  0  0  0  0  0  0  0  0  0  0  0
    1.5347    0.6385    5.2241 C   0  0  0  0  0  0  0  0  0  0  0  0
    0.3659   -0.2455    5.6996 C   0  0  1  0  0  0  0  0  0  0  0  0
   -0.6206   -0.5082    4.5336 C   0  0  0  0  0  0  0  0  0  0  0  0
   -0.3854    0.3999    6.7151 O   0  0  0  0  0  0  0  0  0  0  0  0
    3.6356   -2.5576    5.5123 C   0  0  1  0  0  0  0  0  0  0  0  0
    3.4500   -3.9480    4.6717 C   0  0  1  0  0  0  0  0  0  0  0  0
    4.6764   -4.2712    4.0234 O   0  0  0  0  0  0  0  0  0  0  0  0
    2.9118   -5.3882    5.1849 C   0  0  1  0  0  0  0  0  0  0  0  0
    4.0471   -6.0200    5.7564 O   0  0  0  0  0  0  0  0  0  0  0  0
    2.9887   -2.4859   -3.1210 H   0  0  0  0  0  0  0  0  0  0  0  0
    1.8457   -3.0309   -1.9087 H   0  0  0  0  0  0  0  0  0  0  0  0
    3.4013   -3.8477   -2.0832 H   0  0  0  0  0  0  0  0  0  0  0  0
    4.5895   -1.7197   -1.3577 H   0  0  0  0  0  0  0  0  0  0  0  0
    3.0295   -0.9238   -1.1922 H   0  0  0  0  0  0  0  0  0  0  0  0
    5.3221   -1.6655    1.1379 H   0  0  0  0  0  0  0  0  0  0  0  0
    4.0404   -0.4624    1.2796 H   0  0  0  0  0  0  0  0  0  0  0  0
    6.3105   -0.1845    5.1836 H   0  0  0  0  0  0  0  0  0  0  0  0
    4.9653   -0.1019    6.2631 H   0  0  0  0  0  0  0  0  0  0  0  0
    7.3728   -1.8133    6.4803 H   0  0  0  0  0  0  0  0  0  0  0  0
    6.5601   -0.8721    7.6528 H   0  0  0  0  0  0  0  0  0  0  0  0
    5.9412   -5.0138    6.9768 H   0  0  0  0  0  0  0  0  0  0  0  0
    7.4306   -4.1274    7.0226 H   0  0  0  0  0  0  0  0  0  0  0  0
    6.4370   -4.0091    5.6168 H   0  0  0  0  0  0  0  0  0  0  0  0
    5.7316   -3.8542    9.2989 H   0  0  0  0  0  0  0  0  0  0  0  0
    5.5242   -2.0903    9.3803 H   0  0  0  0  0  0  0  0  0  0  0  0
    7.0833   -2.7927    9.0002 H   0  0  0  0  0  0  0  0  0  0  0  0
    3.8487   -1.8367    7.4990 H   0  0  0  0  0  0  0  0  0  0  0  0
    4.0296   -4.7052    8.0172 H   0  0  0  0  0  0  0  0  0  0  0  0
    3.9834   -3.1382    9.5492 H   0  0  0  0  0  0  0  0  0  0  0  0
    2.0834   -5.3222    8.3075 H   0  0  0  0  0  0  0  0  0  0  0  0
    0.9762   -4.0835    9.1227 H   0  0  0  0  0  0  0  0  0  0  0  0
    2.1752   -7.3446    6.0833 H   0  0  0  0  0  0  0  0  0  0  0  0
   -0.5164   -9.3667    6.5954 H   0  0  0  0  0  0  0  0  0  0  0  0
    1.0089  -10.5541    5.2417 H   0  0  0  0  0  0  0  0  0  0  0  0
   -0.8189  -10.0348    4.3589 H   0  0  0  0  0  0  0  0  0  0  0  0
    2.0994  -10.0024    2.5187 H   0  0  0  0  0  0  0  0  0  0  0  0
    2.2719  -12.1432    4.1173 H   0  0  0  0  0  0  0  0  0  0  0  0
    4.3267  -13.9226    4.0653 H   0  0  0  0  0  0  0  0  0  0  0  0
    5.8509  -13.0458    4.2419 H   0  0  0  0  0  0  0  0  0  0  0  0
    5.3164  -13.5659    2.6422 H   0  0  0  0  0  0  0  0  0  0  0  0
    4.7426   -8.9040    3.3483 H   0  0  0  0  0  0  0  0  0  0  0  0
    3.9537  -10.0353    0.9200 H   0  0  0  0  0  0  0  0  0  0  0  0
    4.0377  -10.1586    5.5953 H   0  0  0  0  0  0  0  0  0  0  0  0
    3.9692   -8.5114    5.9448 H   0  0  0  0  0  0  0  0  0  0  0  0
    1.0225  -10.7909    8.2540 H   0  0  0  0  0  0  0  0  0  0  0  0
    1.0664   -7.4003    8.7271 H   0  0  0  0  0  0  0  0  0  0  0  0
    3.2051   -8.1414    9.1181 H   0  0  0  0  0  0  0  0  0  0  0  0
    4.0577   -6.3308    2.5382 H   0  0  0  0  0  0  0  0  0  0  0  0
    2.8685   -5.0551    2.2686 H   0  0  0  0  0  0  0  0  0  0  0  0
    2.5086   -6.6830    1.8124 H   0  0  0  0  0  0  0  0  0  0  0  0
   -0.4530   -5.2574    5.8799 H   0  0  0  0  0  0  0  0  0  0  0  0
    0.8047   -3.1607    4.1225 H   0  0  0  0  0  0  0  0  0  0  0  0
   -0.7635   -3.3873    4.6282 H   0  0  0  0  0  0  0  0  0  0  0  0
    2.0168   -2.0392    7.8474 H   0  0  0  0  0  0  0  0  0  0  0  0
    2.0808   -1.6097    4.2669 H   0  0  0  0  0  0  0  0  0  0  0  0
    1.6166    1.5681    5.7916 H   0  0  0  0  0  0  0  0  0  0  0  0
    1.4341    0.9030    4.1705 H   0  0  0  0  0  0  0  0  0  0  0  0
   -0.1468   -0.9819    3.6754 H   0  0  0  0  0  0  0  0  0  0  0  0
   -1.0551    0.4244    4.1687 H   0  0  0  0  0  0  0  0  0  0  0  0
   -1.4601   -1.1304    4.8415 H   0  0  0  0  0  0  0  0  0  0  0  0
   -0.5808    1.2791    6.4231 H   0  0  0  0  0  0  0  0  0  0  0  0
    2.7979   -3.6712    3.8543 H   0  0  0  0  0  0  0  0  0  0  0  0
    4.5133   -4.9681    3.4029 H   0  0  0  0  0  0  0  0  0  0  0  0
    3.8083   -6.8931    6.0361 H   0  0  0  0  0  0  0  0  0  0  0  0
  1  2  1  0
  1 60  1  0
  1 61  1  0
  1 62  1  0
  2  3  1  0
  2 63  1  0
  2 64  1  0
  3  4  2  0
  3  5  1  0
  5  6  1  0
  5 65  1  0
  5 66  1  0
  6  7  1  0
  7  8  2  3
 55  8  1  6
  8  9  1  0
  9 10  1  0
  9 67  1  0
  9 68  1  0
 10 11  1  0
 10 69  1  0
 10 70  1  0
 11 12  1  0
 11 13  1  0
 11 14  1  0
 12 71  1  0
 12 72  1  0
 12 73  1  0
 13 74  1  0
 13 75  1  0
 13 76  1  0
 14 55  1  0
 14 15  1  0
 14 77  1  1
 15 16  1  0
 15 17  1  0
 15 78  1  1
 16 79  1  0
 17 18  1  0
 17 19  1  0
 17 80  1  1
 18 81  1  0
 19 44  1  0
 19 58  1  6
 19 20  1  0
 20 37  1  0
 20 21  1  0
 20 82  1  6
 21 22  1  0
 22 35  1  0
 22 23  1  0
 22 83  1  1
 23 24  1  0
 23 25  1  0
 23 84  1  1
 24 85  1  0
 25 26  1  0
 25 33  1  0
 25 39  1  6
 26 31  1  0
 26 27  1  0
 26 86  1  6
 27 28  2  0
 27 87  1  0
 28 29  1  0
 28 30  1  0
 29 88  1  0
 29 89  1  0
 29 90  1  0
 30 31  1  0
 31 32  1  0
 31 91  1  1
 32 92  1  0
 33 34  1  0
 33 93  1  0
 33 94  1  0
 34 35  1  0
 35 36  1  1
 35 37  1  0
 36 95  1  0
 37 38  1  0
 37 96  1  1
 38 97  1  0
 39 40  1  0
 40 58  1  0
 40 41  1  6
 42 40  1  1
 41 98  1  0
 41 99  1  0
 41100  1  0
 42 43  2  0
 42 44  1  0
 44 45  1  0
 44101  1  1
 45 46  1  0
 45102  1  0
 45103  1  0
 46 47  1  0
 47 52  1  0
 47 48  1  1
 47 49  1  0
 48104  1  0
 49 50  1  0
 49 55  1  0
 49105  1  6
 50 51  1  0
 51 52  1  0
 51106  1  0
 51107  1  0
 52 53  1  0
 52 54  1  1
 53108  1  0
 53109  1  0
 53110  1  0
 54111  1  0
 55 56  1  0
 56 57  1  0
 56 58  1  0
 56112  1  6
 57113  1  0
 58 59  1  1
 59114  1  0
M  END
>  <i_m_ct_stereo_status>  (199) 
1

>  <s_m_source_file>  (199) 
/var/tmp/pbs.5075288.sched01/tmpo2oug7hv/195455be7ie.sdf

>  <i_m_source_file_index>  (199) 
12

>  <i_lp_mmshare_version>  (199) 
48012

>  <i_f3d_flags>  (199) 
0

>  <s_epik_input>  (199) 
W0NIM11bQ0gyXUMoPU8pW0NIMl1PL049QzFcW0NIMl1bQ0gyXUMoW0NIM10pKFtDSDNdKVtDQEhdKFtDQEBIXShbT0hdKVtDQEhdMltPSF0pW0NAXTEoW0NASF0zW0NAQF0oW09IXSkoW0NAQF0oW0NIMl1PMykoW0NIM10pW09IXSlPW0NIMl1bQ0BIXTRbUytdNVtPLV0pW0NAQEhdKFtPSF0pW0NAXTYoW09IXSlbQ0BAXTUoW0NIM10pT1tDQEBdKFtDQEBIXTdbT0hdKShbQ0BASF04W0NIXT1DKFtDSDNdKU9bQ0BIXThbT0hdKVtDSDJdT1tDQEBdKFtPSF0pKFtDQEhdOVtPSF0pW0NASF03T1tDQEhdOVtDQF0yNDY=

>  <s_epik_cmdline>  (199) 
J2VwaWtfcHl0aG9uJywgJy1waHQnLCAnMi4wJywgJy1waCcsICc3LjAnLCAnLXRuJywgJzgnLCAnLW1hJywgJzIwMCcsICctaW1hZScsICc8aW5maWxlLm1hZT4nLCAnLW9tYWUnLCAnPG91dGZpbGUubWFlPic=

>  <r_lp_tautomer_probability>  (199) 
1

>  <r_epik_Ionization_Penalty>  (199) 
2.4317e-05

>  <r_epik_Ionization_Penalty_Charging>  (199) 
0

>  <r_epik_Ionization_Penalty_Neutral>  (199) 
2.4317e-05

>  <r_epik_State_Penalty>  (199) 
-0

>  <r_epik_Charging_Adjusted_Penalty>  (199) 
0

>  <i_epik_Tot_Q>  (199) 
0

>  <i_epik_Tot_abs_Q>  (199) 
2

>  <s_epik_Chemistry_Notes>  (199) 
This compound has an imine and may undergo hydrolysis. This compound contains an acetal/aminal-like group ( X-CH(R)-Y where X, Y are N, S, or O) that may be acid/base labile, releasing an aldehyde.

>  <s_lp_Force_Field>  (199) 
OPLS3e

>  <r_lp_Energy>  (199) 
206.42

>  <b_lp_Chiralities_Consistent>  (199) 
1

>  <s_lp_Variant>  (199) 
80:0-2

>  <s_i_glide_gridfile>  (199) 
pfpi4k_grid

>  <i_i_glide_lignum>  (199) 
12

>  <i_i_glide_rotatable_bonds>  (199) 
15

>  <r_i_docking_score>  (199) 
-4.06103

>  <r_i_glide_ligand_efficiency>  (199) 
-0.0688311

>  <r_i_glide_ligand_efficiency_sa>  (199) 
-0.267959

>  <r_i_glide_ligand_efficiency_ln>  (199) 
-0.799804

>  <r_i_glide_gscore>  (199) 
-4.06103

>  <r_i_glide_lipo>  (199) 
-0.0682197

>  <r_i_glide_hbond>  (199) 
-0.0399424

>  <r_i_glide_metal>  (199) 
-0

>  <r_i_glide_rewards>  (199) 
-0.0372487

>  <r_i_glide_evdw>  (199) 
-32.6949

>  <r_i_glide_ecoul>  (199) 
-14.8067

>  <r_i_glide_erotb>  (199) 
0.118205

>  <r_i_glide_esite>  (199) 
-0.178076

>  <r_i_glide_emodel>  (199) 
-58.4325

>  <r_i_glide_energy>  (199) 
-47.5016

>  <r_i_glide_einternal>  (199) 
5.20127

>  <r_i_glide_intrahb_reward>  (199) 
-0

>  <i_i_glide_confnum>  (199) 
1

>  <i_i_glide_posenum>  (199) 
12

>  <r_i_glide_eff_state_penalty>  (199) 
0

>  <ligand_id>  (199) 
80

>  <original_smiles>  (199) 
CCC(=O)CON=C1CCC(C)(C)C2C(O)C(O)C34C5OC6C(O)C(C7C=C(C)OC7O)(COC6(O)C5O)OC5(C)[S+]([O-])C3COC3(O)C(OCC3(C)O)C12C(O)C45O

>  <smiles>  (199) 
[H]OC1([H])OC(C([H])([H])[H])=C([H])C1([H])C12OC3(C([H])([H])[H])S(=O)C4([H])C([H])([H])OC5(O[H])C([H])(OC([H])([H])C5(O[H])C([H])([H])[H])C56C(=NOC([H])([H])C(=O)C([H])([H])C([H])([H])[H])C([H])([H])C([H])([H])C(C([H])([H])[H])(C([H])([H])[H])C5([H])C([H])(O[H])C([H])(O[H])C4(C4([H])OC([H])(C1([H])O[H])C(O[H])(OC2([H])[H])C4([H])O[H])C3(O[H])C6([H])O[H]

$$$$
80:1:1
     RDKit          3D

114122  0  0  1  0  0  0  0  0999 V2000
    2.7330   -3.3541   -1.4057 C   0  0  0  0  0  0  0  0  0  0  0  0
    3.4093   -2.2108   -0.6237 C   0  0  0  0  0  0  0  0  0  0  0  0
    3.1040   -2.2933    0.8830 C   0  0  0  0  0  0  0  0  0  0  0  0
    2.5834   -3.2653    1.3541 O   0  0  0  0  0  0  0  0  0  0  0  0
    3.4876   -1.0782    1.7507 C   0  0  0  0  0  0  0  0  0  0  0  0
    3.2287   -1.3911    3.1166 O   0  0  0  0  0  0  0  0  0  0  0  0
    4.1120   -0.6510    3.9221 N   0  0  0  0  0  0  0  0  0  0  0  0
    4.0373   -0.8532    5.1927 C   0  0  0  0  0  0  0  0  0  0  0  0
    4.8768    0.1111    6.0466 C   0  0  0  0  0  0  0  0  0  0  0  0
    5.7561   -0.5381    7.1061 C   0  0  0  0  0  0  0  0  0  0  0  0
    5.1854   -1.8438    7.7134 C   0  0  0  0  0  0  0  0  0  0  0  0
    5.9732   -3.0261    7.1016 C   0  0  0  0  0  0  0  0  0  0  0  0
    5.6097   -1.7864    9.2034 C   0  0  0  0  0  0  0  0  0  0  0  0
    3.5910   -1.9224    7.5143 C   0  0  2  0  0  0  0  0  0  0  0  0
    2.9623   -3.0059    8.4741 C   0  0  1  0  0  0  0  0  0  0  0  0
    2.8058   -2.4321    9.7658 O   0  0  0  0  0  0  0  0  0  0  0  0
    1.6542   -3.8273    8.2434 C   0  0  1  0  0  0  0  0  0  0  0  0
    0.4842   -3.4013    8.9185 O   0  0  0  0  0  0  0  0  0  0  0  0
    1.4131   -4.7396    6.9868 C   0  0  1  0  0  0  0  0  0  0  0  0
    1.2939   -6.2484    7.4957 C   0  0  2  0  0  0  0  0  0  0  0  0
    0.1444   -6.9781    7.1370 O   0  0  0  0  0  0  0  0  0  0  0  0
    0.4425   -8.3554    7.3012 C   0  0  1  0  0  0  0  0  0  0  0  0
    0.9109   -8.9898    5.9755 C   0  0  1  0  0  0  0  0  0  0  0  0
   -0.1835   -9.1235    5.0789 O   0  0  0  0  0  0  0  0  0  0  0  0
    2.2806   -8.4729    5.3957 C   0  0  2  0  0  0  0  0  0  0  0  0
    2.7804   -9.4337    4.2576 C   0  0  2  0  0  0  0  0  0  0  0  0
    4.0974   -9.0435    3.6232 C   0  0  0  0  0  0  0  0  0  0  0  0
    3.9437   -8.8921    2.3115 C   0  0  0  0  0  0  0  0  0  0  0  0
    4.9437   -8.5075    1.2412 C   0  0  0  0  0  0  0  0  0  0  0  0
    2.6750   -9.1245    1.8978 O   0  0  0  0  0  0  0  0  0  0  0  0
    1.8633   -9.4345    2.9985 C   0  0  1  0  0  0  0  0  0  0  0  0
    1.2457  -10.6833    2.8790 O   0  0  0  0  0  0  0  0  0  0  0  0
    3.3011   -8.6115    6.5734 C   0  0  0  0  0  0  0  0  0  0  0  0
    2.7554   -8.9834    7.8616 O   0  0  0  0  0  0  0  0  0  0  0  0
    1.5588   -8.4191    8.3817 C   0  0  2  0  0  0  0  0  0  0  0  0
    1.1116   -9.1757    9.4812 O   0  0  0  0  0  0  0  0  0  0  0  0
    1.7564   -6.9273    8.7935 C   0  0  1  0  0  0  0  0  0  0  0  0
    3.1009   -6.6327    9.1501 O   0  0  0  0  0  0  0  0  0  0  0  0
    2.4888   -7.1857    4.7228 O   0  0  0  0  0  0  0  0  0  0  0  0
    2.0387   -5.7879    4.7626 C   0  0  1  0  0  0  0  0  0  0  0  0
    2.5296   -5.5506    3.3377 C   0  0  0  0  0  0  0  0  0  0  0  0
    0.2444   -5.3615    4.5884 S   0  0  0  0  0  0  0  0  0  0  0  0
   -0.7068   -6.5605    4.5327 O   0  0  0  0  0  0  0  0  0  0  0  0
    0.0803   -4.4451    6.1968 C   0  0  2  0  0  0  0  0  0  0  0  0
   -0.3007   -3.0289    5.7335 C   0  0  0  0  0  0  0  0  0  0  0  0
   -0.3075   -2.1023    6.7976 O   0  0  0  0  0  0  0  0  0  0  0  0
    0.4696   -0.9364    6.7943 C   0  0  1  0  0  0  0  0  0  0  0  0
    0.8807   -0.6228    8.1003 O   0  0  0  0  0  0  0  0  0  0  0  0
    1.6987   -0.9059    5.8398 C   0  0  1  0  0  0  0  0  0  0  0  0
    1.9109    0.5103    5.8366 O   0  0  0  0  0  0  0  0  0  0  0  0
    0.6660    1.1818    5.6860 C   0  0  0  0  0  0  0  0  0  0  0  0
   -0.4035    0.2347    6.2578 C   0  0  1  0  0  0  0  0  0  0  0  0
   -1.4235   -0.1766    5.1700 C   0  0  0  0  0  0  0  0  0  0  0  0
   -1.1685    0.8726    7.2675 O   0  0  0  0  0  0  0  0  0  0  0  0
    3.0385   -1.8136    6.0153 C   0  0  1  0  0  0  0  0  0  0  0  0
    2.9293   -3.2587    5.2594 C   0  0  1  0  0  0  0  0  0  0  0  0
    4.1407   -3.5229    4.5607 O   0  0  0  0  0  0  0  0  0  0  0  0
    2.5431   -4.7078    5.8700 C   0  0  1  0  0  0  0  0  0  0  0  0
    3.7543   -5.2356    6.4072 O   0  0  0  0  0  0  0  0  0  0  0  0
    2.9244   -3.2719   -2.4736 H   0  0  0  0  0  0  0  0  0  0  0  0
    1.6495   -3.3529   -1.2722 H   0  0  0  0  0  0  0  0  0  0  0  0
    3.0884   -4.3356   -1.0844 H   0  0  0  0  0  0  0  0  0  0  0  0
    4.4833   -2.2470   -0.7690 H   0  0  0  0  0  0  0  0  0  0  0  0
    3.0561   -1.2557   -0.9883 H   0  0  0  0  0  0  0  0  0  0  0  0
    4.5322   -0.8405    1.5915 H   0  0  0  0  0  0  0  0  0  0  0  0
    2.8992   -0.2171    1.4492 H   0  0  0  0  0  0  0  0  0  0  0  0
    5.4864    0.7532    5.4121 H   0  0  0  0  0  0  0  0  0  0  0  0
    4.2027    0.7826    6.5623 H   0  0  0  0  0  0  0  0  0  0  0  0
    6.7471   -0.7140    6.6941 H   0  0  0  0  0  0  0  0  0  0  0  0
    5.9210    0.2188    7.8906 H   0  0  0  0  0  0  0  0  0  0  0  0
    5.6318   -3.9923    7.4577 H   0  0  0  0  0  0  0  0  0  0  0  0
    7.0316   -2.9804    7.3659 H   0  0  0  0  0  0  0  0  0  0  0  0
    5.9595   -3.0226    6.0169 H   0  0  0  0  0  0  0  0  0  0  0  0
    5.4296   -2.7251    9.7268 H   0  0  0  0  0  0  0  0  0  0  0  0
    5.0799   -0.9942    9.7309 H   0  0  0  0  0  0  0  0  0  0  0  0
    6.6770   -1.5774    9.3023 H   0  0  0  0  0  0  0  0  0  0  0  0
    3.2936   -0.9672    7.9466 H   0  0  0  0  0  0  0  0  0  0  0  0
    3.7329   -3.7630    8.6041 H   0  0  0  0  0  0  0  0  0  0  0  0
    2.1821   -1.7166    9.6954 H   0  0  0  0  0  0  0  0  0  0  0  0
    1.8674   -4.5356    9.0273 H   0  0  0  0  0  0  0  0  0  0  0  0
    0.7221   -3.2706    9.8307 H   0  0  0  0  0  0  0  0  0  0  0  0
    2.0461   -6.6729    6.9174 H   0  0  0  0  0  0  0  0  0  0  0  0
   -0.4471   -8.8654    7.6661 H   0  0  0  0  0  0  0  0  0  0  0  0
    1.1074  -10.0303    6.2343 H   0  0  0  0  0  0  0  0  0  0  0  0
   -0.7289   -9.8800    5.2860 H   0  0  0  0  0  0  0  0  0  0  0  0
    2.8840  -10.4590    4.6335 H   0  0  0  0  0  0  0  0  0  0  0  0
    5.0132   -8.9120    4.1776 H   0  0  0  0  0  0  0  0  0  0  0  0
    5.9402   -8.3309    1.6490 H   0  0  0  0  0  0  0  0  0  0  0  0
    4.6110   -7.6036    0.7343 H   0  0  0  0  0  0  0  0  0  0  0  0
    5.0061   -9.3024    0.5004 H   0  0  0  0  0  0  0  0  0  0  0  0
    1.0812   -8.6710    3.0305 H   0  0  0  0  0  0  0  0  0  0  0  0
    1.9371  -11.3396    2.8574 H   0  0  0  0  0  0  0  0  0  0  0  0
    4.0281   -9.3907    6.3613 H   0  0  0  0  0  0  0  0  0  0  0  0
    3.9072   -7.7167    6.6707 H   0  0  0  0  0  0  0  0  0  0  0  0
    1.0891  -10.0903    9.2181 H   0  0  0  0  0  0  0  0  0  0  0  0
    1.0782   -6.6741    9.6018 H   0  0  0  0  0  0  0  0  0  0  0  0
    3.6735   -7.0259    8.4993 H   0  0  0  0  0  0  0  0  0  0  0  0
    3.6071   -5.6837    3.2306 H   0  0  0  0  0  0  0  0  0  0  0  0
    2.2290   -4.5662    3.0493 H   0  0  0  0  0  0  0  0  0  0  0  0
    2.0686   -6.2358    2.6202 H   0  0  0  0  0  0  0  0  0  0  0  0
   -0.7824   -4.8268    6.7464 H   0  0  0  0  0  0  0  0  0  0  0  0
    0.1865   -2.7190    4.8186 H   0  0  0  0  0  0  0  0  0  0  0  0
   -1.3416   -3.0555    5.4285 H   0  0  0  0  0  0  0  0  0  0  0  0
    1.4467    0.1442    8.0267 H   0  0  0  0  0  0  0  0  0  0  0  0
    1.3535   -1.0505    4.8189 H   0  0  0  0  0  0  0  0  0  0  0  0
    0.6855    2.1493    6.1952 H   0  0  0  0  0  0  0  0  0  0  0  0
    0.5036    1.3750    4.6259 H   0  0  0  0  0  0  0  0  0  0  0  0
   -0.9565   -0.6524    4.3090 H   0  0  0  0  0  0  0  0  0  0  0  0
   -1.9506    0.7004    4.7969 H   0  0  0  0  0  0  0  0  0  0  0  0
   -2.1884   -0.8451    5.5616 H   0  0  0  0  0  0  0  0  0  0  0  0
   -0.5719    1.3120    7.8648 H   0  0  0  0  0  0  0  0  0  0  0  0
    2.2127   -3.0661    4.4727 H   0  0  0  0  0  0  0  0  0  0  0  0
    3.9905   -4.2344    3.9490 H   0  0  0  0  0  0  0  0  0  0  0  0
    4.0665   -4.6486    7.0839 H   0  0  0  0  0  0  0  0  0  0  0  0
  1  2  1  0
  1 60  1  0
  1 61  1  0
  1 62  1  0
  2  3  1  0
  2 63  1  0
  2 64  1  0
  3  4  2  0
  3  5  1  0
  5  6  1  0
  5 65  1  0
  5 66  1  0
  6  7  1  0
  7  8  2  3
 55  8  1  6
  8  9  1  0
  9 10  1  0
  9 67  1  0
  9 68  1  0
 10 11  1  0
 10 69  1  0
 10 70  1  0
 11 12  1  0
 11 13  1  0
 11 14  1  0
 12 71  1  0
 12 72  1  0
 12 73  1  0
 13 74  1  0
 13 75  1  0
 13 76  1  0
 14 55  1  0
 14 15  1  0
 14 77  1  1
 15 16  1  0
 15 17  1  0
 15 78  1  1
 16 79  1  0
 17 18  1  0
 17 19  1  0
 17 80  1  1
 18 81  1  0
 19 44  1  0
 19 58  1  6
 19 20  1  0
 20 37  1  0
 20 21  1  0
 20 82  1  6
 21 22  1  0
 22 35  1  0
 22 23  1  0
 22 83  1  1
 23 24  1  0
 23 25  1  0
 23 84  1  1
 24 85  1  0
 25 26  1  0
 25 33  1  0
 25 39  1  6
 26 31  1  0
 26 27  1  0
 26 86  1  1
 27 28  2  0
 27 87  1  0
 28 29  1  0
 28 30  1  0
 29 88  1  0
 29 89  1  0
 29 90  1  0
 30 31  1  0
 31 32  1  0
 31 91  1  1
 32 92  1  0
 33 34  1  0
 33 93  1  0
 33 94  1  0
 34 35  1  0
 35 36  1  1
 35 37  1  0
 36 95  1  0
 37 38  1  0
 37 96  1  1
 38 97  1  0
 39 40  1  0
 40 58  1  0
 40 41  1  6
 42 40  1  1
 41 98  1  0
 41 99  1  0
 41100  1  0
 42 43  2  0
 42 44  1  0
 44 45  1  0
 44101  1  1
 45 46  1  0
 45102  1  0
 45103  1  0
 46 47  1  0
 47 52  1  0
 47 48  1  1
 47 49  1  0
 48104  1  0
 49 50  1  0
 49 55  1  0
 49105  1  6
 50 51  1  0
 51 52  1  0
 51106  1  0
 51107  1  0
 52 53  1  0
 52 54  1  1
 53108  1  0
 53109  1  0
 53110  1  0
 54111  1  0
 55 56  1  0
 56 57  1  0
 56 58  1  0
 56112  1  6
 57113  1  0
 58 59  1  1
 59114  1  0
M  END
>  <i_m_ct_stereo_status>  (200) 
1

>  <s_m_source_file>  (200) 
/var/tmp/pbs.5075288.sched01/tmpo2oug7hv/195455be7ie.sdf

>  <i_m_source_file_index>  (200) 
12

>  <i_lp_mmshare_version>  (200) 
48012

>  <i_f3d_flags>  (200) 
0

>  <s_epik_input>  (200) 
W0NIM11bQ0gyXUMoPU8pW0NIMl1PL049QzFcW0NIMl1bQ0gyXUMoW0NIM10pKFtDSDNdKVtDQEhdKFtDQEBIXShbT0hdKVtDQEhdMltPSF0pW0NAXTEoW0NASF0zW0NAQF0oW09IXSkoW0NAQF0oW0NIMl1PMykoW0NIM10pW09IXSlPW0NIMl1bQ0BIXTRbUytdNVtPLV0pW0NAQEhdKFtPSF0pW0NAXTYoW09IXSlbQ0BAXTUoW0NIM10pT1tDQEBdKFtDQEBIXTdbT0hdKShbQ0BASF04W0NIXT1DKFtDSDNdKU9bQ0BIXThbT0hdKVtDSDJdT1tDQEBdKFtPSF0pKFtDQEhdOVtPSF0pW0NASF03T1tDQEhdOVtDQF0yNDY=

>  <s_epik_cmdline>  (200) 
J2VwaWtfcHl0aG9uJywgJy1waHQnLCAnMi4wJywgJy1waCcsICc3LjAnLCAnLXRuJywgJzgnLCAnLW1hJywgJzIwMCcsICctaW1hZScsICc8aW5maWxlLm1hZT4nLCAnLW9tYWUnLCAnPG91dGZpbGUubWFlPic=

>  <r_lp_tautomer_probability>  (200) 
1

>  <r_epik_Ionization_Penalty>  (200) 
2.4317e-05

>  <r_epik_Ionization_Penalty_Charging>  (200) 
0

>  <r_epik_Ionization_Penalty_Neutral>  (200) 
2.4317e-05

>  <r_epik_State_Penalty>  (200) 
-0

>  <r_epik_Charging_Adjusted_Penalty>  (200) 
0

>  <i_epik_Tot_Q>  (200) 
0

>  <i_epik_Tot_abs_Q>  (200) 
2

>  <s_epik_Chemistry_Notes>  (200) 
This compound has an imine and may undergo hydrolysis. This compound contains an acetal/aminal-like group ( X-CH(R)-Y where X, Y are N, S, or O) that may be acid/base labile, releasing an aldehyde.

>  <s_lp_Force_Field>  (200) 
OPLS3e

>  <r_lp_Energy>  (200) 
206.42

>  <b_lp_Chiralities_Consistent>  (200) 
1

>  <s_lp_Variant>  (200) 
80:0-2

>  <s_i_glide_gridfile>  (200) 
pfpi4k_grid

>  <i_i_glide_lignum>  (200) 
12

>  <i_i_glide_rotatable_bonds>  (200) 
15

>  <r_i_docking_score>  (200) 
-3.87835

>  <r_i_glide_ligand_efficiency>  (200) 
-0.0657347

>  <r_i_glide_ligand_efficiency_sa>  (200) 
-0.255905

>  <r_i_glide_ligand_efficiency_ln>  (200) 
-0.763824

>  <r_i_glide_gscore>  (200) 
-3.87835

>  <r_i_glide_lipo>  (200) 
-0.139448

>  <r_i_glide_hbond>  (200) 
0

>  <r_i_glide_metal>  (200) 
-0

>  <r_i_glide_rewards>  (200) 
-0.518128

>  <r_i_glide_evdw>  (200) 
-32.3326

>  <r_i_glide_ecoul>  (200) 
-10.7914

>  <r_i_glide_erotb>  (200) 
0.118205

>  <r_i_glide_esite>  (200) 
-0.103631

>  <r_i_glide_emodel>  (200) 
-56.3121

>  <r_i_glide_energy>  (200) 
-43.124

>  <r_i_glide_einternal>  (200) 
6.0048

>  <r_i_glide_intrahb_reward>  (200) 
-0.5

>  <i_i_glide_confnum>  (200) 
1

>  <i_i_glide_posenum>  (200) 
1

>  <r_i_glide_eff_state_penalty>  (200) 
0

>  <ligand_id>  (200) 
80

>  <original_smiles>  (200) 
CCC(=O)CON=C1CCC(C)(C)C2C(O)C(O)C34C5OC6C(O)C(C7C=C(C)OC7O)(COC6(O)C5O)OC5(C)[S+]([O-])C3COC3(O)C(OCC3(C)O)C12C(O)C45O

>  <smiles>  (200) 
[H]OC1([H])OC(C([H])([H])[H])=C([H])C1([H])C12OC3(C([H])([H])[H])S(=O)C4([H])C([H])([H])OC5(O[H])C([H])(OC([H])([H])C5(O[H])C([H])([H])[H])C56C(=NOC([H])([H])C(=O)C([H])([H])C([H])([H])[H])C([H])([H])C([H])([H])C(C([H])([H])[H])(C([H])([H])[H])C5([H])C([H])(O[H])C([H])(O[H])C4(C4([H])OC([H])(C1([H])O[H])C(O[H])(OC2([H])[H])C4([H])O[H])C3(O[H])C6([H])O[H]

$$$$
80:1:2
     RDKit          3D

114122  0  0  1  0  0  0  0  0999 V2000
    7.3567   -2.7109   -1.6827 C   0  0  0  0  0  0  0  0  0  0  0  0
    5.9930   -3.4157   -1.5857 C   0  0  0  0  0  0  0  0  0  0  0  0
    5.7133   -4.0370   -0.2173 C   0  0  0  0  0  0  0  0  0  0  0  0
    6.2362   -3.5910    0.8143 O   0  0  0  0  0  0  0  0  0  0  0  0
    4.7547   -5.2224   -0.1783 C   0  0  0  0  0  0  0  0  0  0  0  0
    4.4867   -5.5839    1.1652 O   0  0  0  0  0  0  0  0  0  0  0  0
    3.6724   -6.7276    1.1426 N   0  0  0  0  0  0  0  0  0  0  0  0
    3.1468   -7.0635    2.2594 C   0  0  0  0  0  0  0  0  0  0  0  0
    2.5494   -8.4682    2.3003 C   0  0  0  0  0  0  0  0  0  0  0  0
    1.1331   -8.5773    2.8355 C   0  0  0  0  0  0  0  0  0  0  0  0
    0.7770   -7.5246    3.9085 C   0  0  0  0  0  0  0  0  0  0  0  0
   -0.1239   -6.4567    3.2483 C   0  0  0  0  0  0  0  0  0  0  0  0
   -0.1570   -8.2831    4.8894 C   0  0  0  0  0  0  0  0  0  0  0  0
    2.0935   -6.9405    4.6127 C   0  0  2  0  0  0  0  0  0  0  0  0
    1.7208   -6.1970    5.9441 C   0  0  1  0  0  0  0  0  0  0  0  0
    1.6049   -7.1956    6.9406 O   0  0  0  0  0  0  0  0  0  0  0  0
    2.5181   -5.0430    6.6428 C   0  0  1  0  0  0  0  0  0  0  0  0
    3.3741   -5.3746    7.7205 O   0  0  0  0  0  0  0  0  0  0  0  0
    2.8421   -3.6760    5.9443 C   0  0  1  0  0  0  0  0  0  0  0  0
    2.0735   -2.5369    6.7468 C   0  0  2  0  0  0  0  0  0  0  0  0
    2.8244   -1.4524    7.2452 O   0  0  0  0  0  0  0  0  0  0  0  0
    1.9252   -0.3887    7.4929 C   0  0  1  0  0  0  0  0  0  0  0  0
    1.8121    0.5399    6.2622 C   0  0  1  0  0  0  0  0  0  0  0  0
    2.9637    1.3238    6.0572 O   0  0  0  0  0  0  0  0  0  0  0  0
    1.1305   -0.0211    4.9714 C   0  0  2  0  0  0  0  0  0  0  0  0
    0.8306    1.1816    4.0067 C   0  0  2  0  0  0  0  0  0  0  0  0
   -0.1842    2.1964    4.4745 C   0  0  0  0  0  0  0  0  0  0  0  0
   -1.1911    2.2598    3.6145 C   0  0  0  0  0  0  0  0  0  0  0  0
   -2.4548    3.0902    3.6615 C   0  0  0  0  0  0  0  0  0  0  0  0
   -1.0385    1.4197    2.5566 O   0  0  0  0  0  0  0  0  0  0  0  0
    0.1637    0.7002    2.6744 C   0  0  1  0  0  0  0  0  0  0  0  0
    1.0034    0.9047    1.5637 O   0  0  0  0  0  0  0  0  0  0  0  0
   -0.2197   -0.6528    5.4471 C   0  0  0  0  0  0  0  0  0  0  0  0
   -0.4342   -0.6490    6.8757 O   0  0  0  0  0  0  0  0  0  0  0  0
    0.5510   -1.0511    7.8147 C   0  0  2  0  0  0  0  0  0  0  0  0
    0.1539   -0.7570    9.1476 O   0  0  0  0  0  0  0  0  0  0  0  0
    0.8511   -2.5767    7.6926 C   0  0  1  0  0  0  0  0  0  0  0  0
   -0.2582   -3.3076    7.1964 O   0  0  0  0  0  0  0  0  0  0  0  0
    1.8384   -0.9292    4.0326 O   0  0  0  0  0  0  0  0  0  0  0  0
    2.8238   -2.0407    3.9885 C   0  0  1  0  0  0  0  0  0  0  0  0
    3.1316   -1.8206    2.4795 C   0  0  0  0  0  0  0  0  0  0  0  0
    4.5145   -1.8236    4.7521 S   0  0  0  0  0  0  0  0  0  0  0  0
    4.6088   -0.5052    5.4853 O   0  0  0  0  0  0  0  0  0  0  0  0
    4.3577   -3.2437    5.9553 C   0  0  2  0  0  0  0  0  0  0  0  0
    5.4687   -4.1938    5.4903 C   0  0  0  0  0  0  0  0  0  0  0  0
    5.4119   -5.4263    6.1584 O   0  0  0  0  0  0  0  0  0  0  0  0
    5.2913   -6.6629    5.5100 C   0  0  1  0  0  0  0  0  0  0  0  0
    4.5635   -7.5742    6.3162 O   0  0  0  0  0  0  0  0  0  0  0  0
    4.7319   -6.6409    4.0485 C   0  0  1  0  0  0  0  0  0  0  0  0
    5.2022   -7.9190    3.5971 O   0  0  0  0  0  0  0  0  0  0  0  0
    6.5364   -8.1318    4.0448 C   0  0  0  0  0  0  0  0  0  0  0  0
    6.7270   -7.2406    5.2902 C   0  0  1  0  0  0  0  0  0  0  0  0
    7.8212   -6.1790    5.0271 C   0  0  0  0  0  0  0  0  0  0  0  0
    7.1877   -8.0159    6.3766 O   0  0  0  0  0  0  0  0  0  0  0  0
    3.2004   -6.2894    3.6611 C   0  0  1  0  0  0  0  0  0  0  0  0
    2.9862   -4.6857    3.4079 C   0  0  1  0  0  0  0  0  0  0  0  0
    2.1993   -4.4980    2.2384 O   0  0  0  0  0  0  0  0  0  0  0  0
    2.4114   -3.5554    4.4184 C   0  0  1  0  0  0  0  0  0  0  0  0
    0.9978   -3.6626    4.3178 O   0  0  0  0  0  0  0  0  0  0  0  0
    7.4825   -2.2923   -2.6804 H   0  0  0  0  0  0  0  0  0  0  0  0
    8.1857   -3.4027   -1.5157 H   0  0  0  0  0  0  0  0  0  0  0  0
    7.4486   -1.8956   -0.9640 H   0  0  0  0  0  0  0  0  0  0  0  0
    5.1984   -2.7031   -1.8095 H   0  0  0  0  0  0  0  0  0  0  0  0
    5.9236   -4.1952   -2.3473 H   0  0  0  0  0  0  0  0  0  0  0  0
    3.8263   -4.9443   -0.6883 H   0  0  0  0  0  0  0  0  0  0  0  0
    5.1957   -6.0588   -0.7272 H   0  0  0  0  0  0  0  0  0  0  0  0
    2.6037   -8.9353    1.3174 H   0  0  0  0  0  0  0  0  0  0  0  0
    3.1768   -9.0827    2.9383 H   0  0  0  0  0  0  0  0  0  0  0  0
    0.4327   -8.5136    2.0018 H   0  0  0  0  0  0  0  0  0  0  0  0
    0.9978   -9.5914    3.2184 H   0  0  0  0  0  0  0  0  0  0  0  0
   -0.3938   -5.6691    3.9440 H   0  0  0  0  0  0  0  0  0  0  0  0
   -1.0596   -6.8894    2.8958 H   0  0  0  0  0  0  0  0  0  0  0  0
    0.3434   -6.0149    2.3765 H   0  0  0  0  0  0  0  0  0  0  0  0
   -0.6278   -7.6193    5.6136 H   0  0  0  0  0  0  0  0  0  0  0  0
    0.3820   -9.0655    5.4296 H   0  0  0  0  0  0  0  0  0  0  0  0
   -0.9702   -8.7866    4.3579 H   0  0  0  0  0  0  0  0  0  0  0  0
    2.5706   -7.8703    4.9223 H   0  0  0  0  0  0  0  0  0  0  0  0
    0.7174   -5.7957    5.8049 H   0  0  0  0  0  0  0  0  0  0  0  0
    1.0770   -7.9097    6.6023 H   0  0  0  0  0  0  0  0  0  0  0  0
    1.7242   -4.8024    7.3332 H   0  0  0  0  0  0  0  0  0  0  0  0
    4.1994   -5.7017    7.3709 H   0  0  0  0  0  0  0  0  0  0  0  0
    1.5394   -2.1218    5.9594 H   0  0  0  0  0  0  0  0  0  0  0  0
    2.2681    0.1650    8.3674 H   0  0  0  0  0  0  0  0  0  0  0  0
    1.1296    1.2975    6.6517 H   0  0  0  0  0  0  0  0  0  0  0  0
    3.6842    0.7180    5.8562 H   0  0  0  0  0  0  0  0  0  0  0  0
    1.7475    1.7229    3.7538 H   0  0  0  0  0  0  0  0  0  0  0  0
   -0.0857    2.7754    5.3764 H   0  0  0  0  0  0  0  0  0  0  0  0
   -2.5030    3.7049    4.5575 H   0  0  0  0  0  0  0  0  0  0  0  0
   -3.3233    2.4363    3.6493 H   0  0  0  0  0  0  0  0  0  0  0  0
   -2.5006    3.7318    2.7849 H   0  0  0  0  0  0  0  0  0  0  0  0
   -0.0896   -0.3624    2.6923 H   0  0  0  0  0  0  0  0  0  0  0  0
    0.5604    0.5783    0.7748 H   0  0  0  0  0  0  0  0  0  0  0  0
   -1.0890   -0.1430    5.0407 H   0  0  0  0  0  0  0  0  0  0  0  0
   -0.3431   -1.6496    5.0423 H   0  0  0  0  0  0  0  0  0  0  0  0
    0.2275    0.1833    9.2608 H   0  0  0  0  0  0  0  0  0  0  0  0
    1.1608   -2.9606    8.6678 H   0  0  0  0  0  0  0  0  0  0  0  0
   -0.0371   -4.2324    7.1898 H   0  0  0  0  0  0  0  0  0  0  0  0
    2.2307   -1.9259    1.8718 H   0  0  0  0  0  0  0  0  0  0  0  0
    3.9087   -2.4696    2.0789 H   0  0  0  0  0  0  0  0  0  0  0  0
    3.4877   -0.8050    2.3107 H   0  0  0  0  0  0  0  0  0  0  0  0
    4.6517   -2.9185    6.9510 H   0  0  0  0  0  0  0  0  0  0  0  0
    5.5812   -4.2432    4.4198 H   0  0  0  0  0  0  0  0  0  0  0  0
    6.4129   -3.7507    5.7999 H   0  0  0  0  0  0  0  0  0  0  0  0
    3.6373   -7.3505    6.2839 H   0  0  0  0  0  0  0  0  0  0  0  0
    5.3748   -5.9995    3.4447 H   0  0  0  0  0  0  0  0  0  0  0  0
    6.7123   -9.1895    4.2525 H   0  0  0  0  0  0  0  0  0  0  0  0
    7.2109   -7.8386    3.2366 H   0  0  0  0  0  0  0  0  0  0  0  0
    7.6004   -5.5413    4.1711 H   0  0  0  0  0  0  0  0  0  0  0  0
    8.7789   -6.6588    4.8179 H   0  0  0  0  0  0  0  0  0  0  0  0
    7.9864   -5.5409    5.8957 H   0  0  0  0  0  0  0  0  0  0  0  0
    7.2189   -7.4436    7.1306 H   0  0  0  0  0  0  0  0  0  0  0  0
    3.9660   -4.3314    3.1134 H   0  0  0  0  0  0  0  0  0  0  0  0
    2.3162   -3.6035    1.9429 H   0  0  0  0  0  0  0  0  0  0  0  0
    0.6129   -2.9321    4.7803 H   0  0  0  0  0  0  0  0  0  0  0  0
  1  2  1  0
  1 60  1  0
  1 61  1  0
  1 62  1  0
  2  3  1  0
  2 63  1  0
  2 64  1  0
  3  4  2  0
  3  5  1  0
  5  6  1  0
  5 65  1  0
  5 66  1  0
  6  7  1  0
  7  8  2  3
 55  8  1  6
  8  9  1  0
  9 10  1  0
  9 67  1  0
  9 68  1  0
 10 11  1  0
 10 69  1  0
 10 70  1  0
 11 12  1  0
 11 13  1  0
 11 14  1  0
 12 71  1  0
 12 72  1  0
 12 73  1  0
 13 74  1  0
 13 75  1  0
 13 76  1  0
 14 55  1  0
 14 15  1  0
 14 77  1  1
 15 16  1  0
 15 17  1  0
 15 78  1  6
 16 79  1  0
 17 18  1  0
 17 19  1  0
 17 80  1  1
 18 81  1  0
 19 44  1  0
 19 58  1  6
 19 20  1  0
 20 37  1  0
 20 21  1  0
 20 82  1  6
 21 22  1  0
 22 35  1  0
 22 23  1  0
 22 83  1  1
 23 24  1  0
 23 25  1  0
 23 84  1  1
 24 85  1  0
 25 26  1  0
 25 33  1  0
 25 39  1  6
 26 31  1  0
 26 27  1  0
 26 86  1  6
 27 28  2  0
 27 87  1  0
 28 29  1  0
 28 30  1  0
 29 88  1  0
 29 89  1  0
 29 90  1  0
 30 31  1  0
 31 32  1  0
 31 91  1  1
 32 92  1  0
 33 34  1  0
 33 93  1  0
 33 94  1  0
 34 35  1  0
 35 36  1  1
 35 37  1  0
 36 95  1  0
 37 38  1  0
 37 96  1  1
 38 97  1  0
 39 40  1  0
 40 58  1  0
 40 41  1  6
 42 40  1  6
 41 98  1  0
 41 99  1  0
 41100  1  0
 42 43  2  0
 42 44  1  0
 44 45  1  0
 44101  1  1
 45 46  1  0
 45102  1  0
 45103  1  0
 46 47  1  0
 47 52  1  0
 47 48  1  1
 47 49  1  0
 48104  1  0
 49 50  1  0
 49 55  1  0
 49105  1  6
 50 51  1  0
 51 52  1  0
 51106  1  0
 51107  1  0
 52 53  1  0
 52 54  1  1
 53108  1  0
 53109  1  0
 53110  1  0
 54111  1  0
 55 56  1  0
 56 57  1  0
 56 58  1  0
 56112  1  6
 57113  1  0
 58 59  1  1
 59114  1  0
M  END
>  <i_m_ct_stereo_status>  (201) 
1

>  <s_m_source_file>  (201) 
/var/tmp/pbs.5075288.sched01/tmpo2oug7hv/195455be7ie.sdf

>  <i_m_source_file_index>  (201) 
12

>  <i_lp_mmshare_version>  (201) 
48012

>  <i_f3d_flags>  (201) 
0

>  <s_epik_input>  (201) 
W0NIM11bQ0gyXUMoPU8pW0NIMl1PL049QzFcW0NIMl1bQ0gyXUMoW0NIM10pKFtDSDNdKVtDQEhdKFtDQEBIXShbT0hdKVtDQEhdMltPSF0pW0NAXTEoW0NASF0zW0NAQF0oW09IXSkoW0NAQF0oW0NIMl1PMykoW0NIM10pW09IXSlPW0NIMl1bQ0BIXTRbUytdNVtPLV0pW0NAQEhdKFtPSF0pW0NAXTYoW09IXSlbQ0BAXTUoW0NIM10pT1tDQEBdKFtDQEBIXTdbT0hdKShbQ0BASF04W0NIXT1DKFtDSDNdKU9bQ0BIXThbT0hdKVtDSDJdT1tDQEBdKFtPSF0pKFtDQEhdOVtPSF0pW0NASF03T1tDQEhdOVtDQF0yNDY=

>  <s_epik_cmdline>  (201) 
J2VwaWtfcHl0aG9uJywgJy1waHQnLCAnMi4wJywgJy1waCcsICc3LjAnLCAnLXRuJywgJzgnLCAnLW1hJywgJzIwMCcsICctaW1hZScsICc8aW5maWxlLm1hZT4nLCAnLW9tYWUnLCAnPG91dGZpbGUubWFlPic=

>  <r_lp_tautomer_probability>  (201) 
1

>  <r_epik_Ionization_Penalty>  (201) 
2.4317e-05

>  <r_epik_Ionization_Penalty_Charging>  (201) 
0

>  <r_epik_Ionization_Penalty_Neutral>  (201) 
2.4317e-05

>  <r_epik_State_Penalty>  (201) 
-0

>  <r_epik_Charging_Adjusted_Penalty>  (201) 
0

>  <i_epik_Tot_Q>  (201) 
0

>  <i_epik_Tot_abs_Q>  (201) 
2

>  <s_epik_Chemistry_Notes>  (201) 
This compound has an imine and may undergo hydrolysis. This compound contains an acetal/aminal-like group ( X-CH(R)-Y where X, Y are N, S, or O) that may be acid/base labile, releasing an aldehyde.

>  <s_lp_Force_Field>  (201) 
OPLS3e

>  <r_lp_Energy>  (201) 
206.42

>  <b_lp_Chiralities_Consistent>  (201) 
1

>  <s_lp_Variant>  (201) 
80:0-2

>  <s_i_glide_gridfile>  (201) 
pfpi4k_grid

>  <i_i_glide_lignum>  (201) 
12

>  <i_i_glide_rotatable_bonds>  (201) 
15

>  <r_i_docking_score>  (201) 
-3.87466

>  <r_i_glide_ligand_efficiency>  (201) 
-0.0656722

>  <r_i_glide_ligand_efficiency_sa>  (201) 
-0.255662

>  <r_i_glide_ligand_efficiency_ln>  (201) 
-0.763099

>  <r_i_glide_gscore>  (201) 
-3.87466

>  <r_i_glide_lipo>  (201) 
-0.173764

>  <r_i_glide_hbond>  (201) 
-0.0140954

>  <r_i_glide_metal>  (201) 
-0

>  <r_i_glide_rewards>  (201) 
-1.11118

>  <r_i_glide_evdw>  (201) 
-35.7365

>  <r_i_glide_ecoul>  (201) 
-5.50248

>  <r_i_glide_erotb>  (201) 
0.118205

>  <r_i_glide_esite>  (201) 
-0.0816286

>  <r_i_glide_emodel>  (201) 
-62.7652

>  <r_i_glide_energy>  (201) 
-41.239

>  <r_i_glide_einternal>  (201) 
3.55217

>  <r_i_glide_intrahb_reward>  (201) 
-1

>  <i_i_glide_confnum>  (201) 
2

>  <i_i_glide_posenum>  (201) 
13

>  <r_i_glide_eff_state_penalty>  (201) 
0

>  <ligand_id>  (201) 
80

>  <original_smiles>  (201) 
CCC(=O)CON=C1CCC(C)(C)C2C(O)C(O)C34C5OC6C(O)C(C7C=C(C)OC7O)(COC6(O)C5O)OC5(C)[S+]([O-])C3COC3(O)C(OCC3(C)O)C12C(O)C45O

>  <smiles>  (201) 
[H]OC1([H])OC(C([H])([H])[H])=C([H])C1([H])C12OC3(C([H])([H])[H])S(=O)C4([H])C([H])([H])OC5(O[H])C([H])(OC([H])([H])C5(O[H])C([H])([H])[H])C56C(=NOC([H])([H])C(=O)C([H])([H])C([H])([H])[H])C([H])([H])C([H])([H])C(C([H])([H])[H])(C([H])([H])[H])C5([H])C([H])(O[H])C([H])(O[H])C4(C4([H])OC([H])(C1([H])O[H])C(O[H])(OC2([H])[H])C4([H])O[H])C3(O[H])C6([H])O[H]

$$$$
81:0:0
     RDKit          3D

 23 23  0  0  1  0  0  0  0  0999 V2000
   -6.1894   -4.7991   -4.6936 C   0  0  0  0  0  0  0  0  0  0  0  0
   -6.5872   -6.1786   -5.1681 C   0  0  0  0  0  0  0  0  0  0  0  0
   -5.7863   -6.9880   -5.8754 C   0  0  0  0  0  0  0  0  0  0  0  0
   -6.1782   -8.3519   -6.3871 C   0  0  2  0  0  0  0  0  0  0  0  0
   -5.1489   -9.2785   -6.0731 O   0  0  0  0  0  0  0  0  0  0  0  0
   -5.2451  -10.5466   -6.5953 C   0  0  0  0  0  0  0  0  0  0  0  0
   -4.2519  -11.4700   -5.9324 C   0  0  0  0  0  0  0  0  0  0  0  0
   -6.1217  -10.9341   -7.5463 C   0  0  0  0  0  0  0  0  0  0  0  0
   -7.0983  -10.0414   -8.2774 C   0  0  0  0  0  0  0  0  0  0  0  0
   -6.6320   -8.2570   -8.1779 S   0  0  0  0  0  0  0  0  0  0  0  0
   -7.9259   -7.4471   -8.2640 O   0  0  0  0  0  0  0  0  0  0  0  0
   -6.8634   -4.0519   -5.1152 H   0  0  0  0  0  0  0  0  0  0  0  0
   -5.1719   -4.5470   -4.9967 H   0  0  0  0  0  0  0  0  0  0  0  0
   -6.2539   -4.7395   -3.6078 H   0  0  0  0  0  0  0  0  0  0  0  0
   -7.5897   -6.4983   -4.9171 H   0  0  0  0  0  0  0  0  0  0  0  0
   -4.7823   -6.6751   -6.1165 H   0  0  0  0  0  0  0  0  0  0  0  0
   -7.0719   -8.6633   -5.8483 H   0  0  0  0  0  0  0  0  0  0  0  0
   -4.2793  -12.4754   -6.3519 H   0  0  0  0  0  0  0  0  0  0  0  0
   -4.4734  -11.5380   -4.8684 H   0  0  0  0  0  0  0  0  0  0  0  0
   -3.2413  -11.0789   -6.0383 H   0  0  0  0  0  0  0  0  0  0  0  0
   -6.1489  -11.9676   -7.8463 H   0  0  0  0  0  0  0  0  0  0  0  0
   -7.1492  -10.3291   -9.3292 H   0  0  0  0  0  0  0  0  0  0  0  0
   -8.0926  -10.1828   -7.8512 H   0  0  0  0  0  0  0  0  0  0  0  0
  1  2  1  0
  1 12  1  0
  1 13  1  0
  1 14  1  0
  2  3  2  3
  2 15  1  0
  3  4  1  0
  3 16  1  0
  4 10  1  0
  4  5  1  0
  4 17  1  1
  5  6  1  0
  6  7  1  0
  6  8  2  0
  7 18  1  0
  7 19  1  0
  7 20  1  0
  8  9  1  0
  8 21  1  0
 10  9  1  1
  9 22  1  0
  9 23  1  0
 10 11  2  0
M  END
>  <i_m_ct_stereo_status>  (202) 
1

>  <s_m_source_file>  (202) 
/var/tmp/pbs.5075288.sched01/tmpo2oug7hv/195455be7ie.sdf

>  <i_m_source_file_index>  (202) 
13

>  <i_lp_mmshare_version>  (202) 
48012

>  <i_f3d_flags>  (202) 
0

>  <s_epik_input>  (202) 
W0NIM10vW0NIXT1bQ0hdL1tDQEBIXTFPQyhbQ0gzXSk9W0NIXVtDSDJdW1MrXTFbTy1d

>  <s_epik_cmdline>  (202) 
J2VwaWtfcHl0aG9uJywgJy1waHQnLCAnMi4wJywgJy1waCcsICc3LjAnLCAnLXRuJywgJzgnLCAnLW1hJywgJzIwMCcsICctaW1hZScsICc8aW5maWxlLm1hZT4nLCAnLW9tYWUnLCAnPG91dGZpbGUubWFlPic=

>  <r_lp_tautomer_probability>  (202) 
1

>  <r_epik_Ionization_Penalty>  (202) 
0

>  <r_epik_Ionization_Penalty_Charging>  (202) 
0

>  <r_epik_Ionization_Penalty_Neutral>  (202) 
0

>  <r_epik_State_Penalty>  (202) 
-0

>  <r_epik_Charging_Adjusted_Penalty>  (202) 
0

>  <i_epik_Tot_Q>  (202) 
0

>  <i_epik_Tot_abs_Q>  (202) 
2

>  <s_epik_Chemistry_Notes>  (202) 
This compound contains an acetal/aminal-like group ( X-CH(R)-Y where X, Y are N, S, or O) that may be acid/base labile, releasing an aldehyde.

>  <s_lp_Force_Field>  (202) 
OPLS3e

>  <r_lp_Energy>  (202) 
-4.4444

>  <b_lp_Chiralities_Consistent>  (202) 
1

>  <s_lp_Variant>  (202) 
81:0-1

>  <s_i_glide_gridfile>  (202) 
pfpi4k_grid

>  <i_i_glide_lignum>  (202) 
13

>  <i_i_glide_rotatable_bonds>  (202) 
1

>  <r_i_docking_score>  (202) 
-4.37111

>  <r_i_glide_ligand_efficiency>  (202) 
-0.397374

>  <r_i_glide_ligand_efficiency_sa>  (202) 
-0.883752

>  <r_i_glide_ligand_efficiency_ln>  (202) 
-1.28642

>  <r_i_glide_gscore>  (202) 
-4.37111

>  <r_i_glide_lipo>  (202) 
-1.46478

>  <r_i_glide_hbond>  (202) 
0

>  <r_i_glide_metal>  (202) 
-0

>  <r_i_glide_rewards>  (202) 
-2.51475

>  <r_i_glide_evdw>  (202) 
-18.8563

>  <r_i_glide_ecoul>  (202) 
0.191801

>  <r_i_glide_erotb>  (202) 
0.522464

>  <r_i_glide_esite>  (202) 
0

>  <r_i_glide_emodel>  (202) 
-23.1487

>  <r_i_glide_energy>  (202) 
-18.6645

>  <r_i_glide_einternal>  (202) 
0.538224

>  <r_i_glide_intrahb_reward>  (202) 
-0

>  <i_i_glide_confnum>  (202) 
1

>  <i_i_glide_posenum>  (202) 
1

>  <r_i_glide_eff_state_penalty>  (202) 
0

>  <ligand_id>  (202) 
81

>  <original_smiles>  (202) 
CC=CC1OC(C)=CC[S+]1[O-]

>  <smiles>  (202) 
[H]C(=C([H])C1([H])OC(C([H])([H])[H])=C([H])C([H])([H])S1=O)C([H])([H])[H]

$$$$
81:0:1
     RDKit          3D

 23 23  0  0  1  0  0  0  0  0999 V2000
    1.9054   -6.6572    1.5003 C   0  0  0  0  0  0  0  0  0  0  0  0
    2.2392   -5.4645    0.6383 C   0  0  0  0  0  0  0  0  0  0  0  0
    2.6373   -4.2727    1.1117 C   0  0  0  0  0  0  0  0  0  0  0  0
    3.0142   -3.0888    0.2498 C   0  0  2  0  0  0  0  0  0  0  0  0
    2.7864   -3.3886   -1.1228 O   0  0  0  0  0  0  0  0  0  0  0  0
    3.2075   -2.4845   -2.0672 C   0  0  0  0  0  0  0  0  0  0  0  0
    2.6274   -2.8227   -3.4223 C   0  0  0  0  0  0  0  0  0  0  0  0
    4.0040   -1.4228   -1.8256 C   0  0  0  0  0  0  0  0  0  0  0  0
    4.6476   -1.0762   -0.5016 C   0  0  0  0  0  0  0  0  0  0  0  0
    4.7260   -2.5129    0.6585 S   0  0  0  0  0  0  0  0  0  0  0  0
    4.6826   -1.9488    2.0796 O   0  0  0  0  0  0  0  0  0  0  0  0
    0.8794   -6.9824    1.3264 H   0  0  0  0  0  0  0  0  0  0  0  0
    2.0338   -6.4277    2.5572 H   0  0  0  0  0  0  0  0  0  0  0  0
    2.5721   -7.4816    1.2491 H   0  0  0  0  0  0  0  0  0  0  0  0
    2.1535   -5.6167   -0.4265 H   0  0  0  0  0  0  0  0  0  0  0  0
    2.7155   -4.1124    2.1772 H   0  0  0  0  0  0  0  0  0  0  0  0
    2.3328   -2.2826    0.5221 H   0  0  0  0  0  0  0  0  0  0  0  0
    2.9752   -2.1489   -4.2043 H   0  0  0  0  0  0  0  0  0  0  0  0
    1.5393   -2.7679   -3.3755 H   0  0  0  0  0  0  0  0  0  0  0  0
    2.8937   -3.8435   -3.6963 H   0  0  0  0  0  0  0  0  0  0  0  0
    4.2330   -0.7433   -2.6308 H   0  0  0  0  0  0  0  0  0  0  0  0
    5.6620   -0.7088   -0.6665 H   0  0  0  0  0  0  0  0  0  0  0  0
    4.0826   -0.2652   -0.0372 H   0  0  0  0  0  0  0  0  0  0  0  0
  1  2  1  0
  1 12  1  0
  1 13  1  0
  1 14  1  0
  2  3  2  3
  2 15  1  0
  3  4  1  0
  3 16  1  0
  4 10  1  0
  4  5  1  0
  4 17  1  1
  5  6  1  0
  6  7  1  0
  6  8  2  0
  7 18  1  0
  7 19  1  0
  7 20  1  0
  8  9  1  0
  8 21  1  0
 10  9  1  6
  9 22  1  0
  9 23  1  0
 10 11  2  0
M  END
>  <i_m_ct_stereo_status>  (203) 
1

>  <s_m_source_file>  (203) 
/var/tmp/pbs.5075288.sched01/tmpo2oug7hv/195455be7ie.sdf

>  <i_m_source_file_index>  (203) 
13

>  <i_lp_mmshare_version>  (203) 
48012

>  <i_f3d_flags>  (203) 
0

>  <s_epik_input>  (203) 
W0NIM10vW0NIXT1bQ0hdL1tDQEBIXTFPQyhbQ0gzXSk9W0NIXVtDSDJdW1MrXTFbTy1d

>  <s_epik_cmdline>  (203) 
J2VwaWtfcHl0aG9uJywgJy1waHQnLCAnMi4wJywgJy1waCcsICc3LjAnLCAnLXRuJywgJzgnLCAnLW1hJywgJzIwMCcsICctaW1hZScsICc8aW5maWxlLm1hZT4nLCAnLW9tYWUnLCAnPG91dGZpbGUubWFlPic=

>  <r_lp_tautomer_probability>  (203) 
1

>  <r_epik_Ionization_Penalty>  (203) 
0

>  <r_epik_Ionization_Penalty_Charging>  (203) 
0

>  <r_epik_Ionization_Penalty_Neutral>  (203) 
0

>  <r_epik_State_Penalty>  (203) 
-0

>  <r_epik_Charging_Adjusted_Penalty>  (203) 
0

>  <i_epik_Tot_Q>  (203) 
0

>  <i_epik_Tot_abs_Q>  (203) 
2

>  <s_epik_Chemistry_Notes>  (203) 
This compound contains an acetal/aminal-like group ( X-CH(R)-Y where X, Y are N, S, or O) that may be acid/base labile, releasing an aldehyde.

>  <s_lp_Force_Field>  (203) 
OPLS3e

>  <r_lp_Energy>  (203) 
-4.4444

>  <b_lp_Chiralities_Consistent>  (203) 
1

>  <s_lp_Variant>  (203) 
81:0-1

>  <s_i_glide_gridfile>  (203) 
pfpi4k_grid

>  <i_i_glide_lignum>  (203) 
13

>  <i_i_glide_rotatable_bonds>  (203) 
1

>  <r_i_docking_score>  (203) 
-2.7684

>  <r_i_glide_ligand_efficiency>  (203) 
-0.251673

>  <r_i_glide_ligand_efficiency_sa>  (203) 
-0.559715

>  <r_i_glide_ligand_efficiency_ln>  (203) 
-0.81474

>  <r_i_glide_gscore>  (203) 
-2.7684

>  <r_i_glide_lipo>  (203) 
-0.195742

>  <r_i_glide_hbond>  (203) 
0

>  <r_i_glide_metal>  (203) 
-0

>  <r_i_glide_rewards>  (203) 
-2.2505

>  <r_i_glide_evdw>  (203) 
-16.5022

>  <r_i_glide_ecoul>  (203) 
-0.130115

>  <r_i_glide_erotb>  (203) 
0.522464

>  <r_i_glide_esite>  (203) 
0

>  <r_i_glide_emodel>  (203) 
-18.9636

>  <r_i_glide_energy>  (203) 
-16.6323

>  <r_i_glide_einternal>  (203) 
1.35464

>  <r_i_glide_intrahb_reward>  (203) 
-0

>  <i_i_glide_confnum>  (203) 
3

>  <i_i_glide_posenum>  (203) 
31

>  <r_i_glide_eff_state_penalty>  (203) 
0

>  <ligand_id>  (203) 
81

>  <original_smiles>  (203) 
CC=CC1OC(C)=CC[S+]1[O-]

>  <smiles>  (203) 
[H]C(=C([H])C1([H])OC(C([H])([H])[H])=C([H])C([H])([H])S1=O)C([H])([H])[H]

$$$$
81:0:2
     RDKit          3D

 23 23  0  0  1  0  0  0  0  0999 V2000
    1.1558   -5.4364   -0.7156 C   0  0  0  0  0  0  0  0  0  0  0  0
    1.7989   -4.0510   -0.8216 C   0  0  0  0  0  0  0  0  0  0  0  0
    2.2645   -3.5580   -1.9891 C   0  0  0  0  0  0  0  0  0  0  0  0
    2.9962   -2.2684   -2.1824 C   0  0  2  0  0  0  0  0  0  0  0  0
    2.6578   -1.7079   -3.4659 O   0  0  0  0  0  0  0  0  0  0  0  0
    3.2016   -0.4783   -3.7531 C   0  0  0  0  0  0  0  0  0  0  0  0
    2.6129    0.2368   -4.9582 C   0  0  0  0  0  0  0  0  0  0  0  0
    4.2160    0.0563   -3.0682 C   0  0  0  0  0  0  0  0  0  0  0  0
    4.9954   -0.6750   -2.0022 C   0  0  0  0  0  0  0  0  0  0  0  0
    4.7978   -2.5053   -1.8610 S   0  0  0  0  0  0  0  0  0  0  0  0
    4.9891   -2.7474   -0.3872 O   0  0  0  0  0  0  0  0  0  0  0  0
    1.8304   -6.0620   -0.1213 H   0  0  0  0  0  0  0  0  0  0  0  0
    1.0300   -5.8514   -1.7238 H   0  0  0  0  0  0  0  0  0  0  0  0
    0.1707   -5.5154   -0.2674 H   0  0  0  0  0  0  0  0  0  0  0  0
    1.9410   -3.4228    0.0531 H   0  0  0  0  0  0  0  0  0  0  0  0
    2.1629   -4.0961   -2.9140 H   0  0  0  0  0  0  0  0  0  0  0  0
    2.6595   -1.6025   -1.3956 H   0  0  0  0  0  0  0  0  0  0  0  0
    3.1616    1.1375   -5.2494 H   0  0  0  0  0  0  0  0  0  0  0  0
    1.5859    0.4999   -4.7738 H   0  0  0  0  0  0  0  0  0  0  0  0
    2.6973   -0.4400   -5.7840 H   0  0  0  0  0  0  0  0  0  0  0  0
    4.5143    1.0513   -3.3018 H   0  0  0  0  0  0  0  0  0  0  0  0
    6.0491   -0.5622   -2.1805 H   0  0  0  0  0  0  0  0  0  0  0  0
    4.7439   -0.2316   -1.0276 H   0  0  0  0  0  0  0  0  0  0  0  0
  1  2  1  0
  1 12  1  0
  1 13  1  0
  1 14  1  0
  2  3  2  3
  2 15  1  0
  3  4  1  0
  3 16  1  0
  4 10  1  0
  4  5  1  0
  4 17  1  1
  5  6  1  0
  6  7  1  0
  6  8  2  0
  7 18  1  0
  7 19  1  0
  7 20  1  0
  8  9  1  0
  8 21  1  0
 10  9  1  1
  9 22  1  0
  9 23  1  0
 10 11  2  0
M  END
>  <i_m_ct_stereo_status>  (204) 
1

>  <s_m_source_file>  (204) 
/var/tmp/pbs.5075288.sched01/tmpo2oug7hv/195455be7ie.sdf

>  <i_m_source_file_index>  (204) 
13

>  <i_lp_mmshare_version>  (204) 
48012

>  <i_f3d_flags>  (204) 
0

>  <s_epik_input>  (204) 
W0NIM10vW0NIXT1bQ0hdL1tDQEBIXTFPQyhbQ0gzXSk9W0NIXVtDSDJdW1MrXTFbTy1d

>  <s_epik_cmdline>  (204) 
J2VwaWtfcHl0aG9uJywgJy1waHQnLCAnMi4wJywgJy1waCcsICc3LjAnLCAnLXRuJywgJzgnLCAnLW1hJywgJzIwMCcsICctaW1hZScsICc8aW5maWxlLm1hZT4nLCAnLW9tYWUnLCAnPG91dGZpbGUubWFlPic=

>  <r_lp_tautomer_probability>  (204) 
1

>  <r_epik_Ionization_Penalty>  (204) 
0

>  <r_epik_Ionization_Penalty_Charging>  (204) 
0

>  <r_epik_Ionization_Penalty_Neutral>  (204) 
0

>  <r_epik_State_Penalty>  (204) 
-0

>  <r_epik_Charging_Adjusted_Penalty>  (204) 
0

>  <i_epik_Tot_Q>  (204) 
0

>  <i_epik_Tot_abs_Q>  (204) 
2

>  <s_epik_Chemistry_Notes>  (204) 
This compound contains an acetal/aminal-like group ( X-CH(R)-Y where X, Y are N, S, or O) that may be acid/base labile, releasing an aldehyde.

>  <s_lp_Force_Field>  (204) 
OPLS3e

>  <r_lp_Energy>  (204) 
-4.4444

>  <b_lp_Chiralities_Consistent>  (204) 
1

>  <s_lp_Variant>  (204) 
81:0-1

>  <s_i_glide_gridfile>  (204) 
pfpi4k_grid

>  <i_i_glide_lignum>  (204) 
13

>  <i_i_glide_rotatable_bonds>  (204) 
1

>  <r_i_docking_score>  (204) 
-2.30876

>  <r_i_glide_ligand_efficiency>  (204) 
-0.209887

>  <r_i_glide_ligand_efficiency_sa>  (204) 
-0.466785

>  <r_i_glide_ligand_efficiency_ln>  (204) 
-0.679467

>  <r_i_glide_gscore>  (204) 
-2.30876

>  <r_i_glide_lipo>  (204) 
-0.4736

>  <r_i_glide_hbond>  (204) 
0

>  <r_i_glide_metal>  (204) 
-0

>  <r_i_glide_rewards>  (204) 
-2.23469

>  <r_i_glide_evdw>  (204) 
-4.61841

>  <r_i_glide_ecoul>  (204) 
0.735193

>  <r_i_glide_erotb>  (204) 
0.522464

>  <r_i_glide_esite>  (204) 
-0.00229342

>  <r_i_glide_emodel>  (204) 
-4.60358

>  <r_i_glide_energy>  (204) 
-3.88321

>  <r_i_glide_einternal>  (204) 
1.34453

>  <r_i_glide_intrahb_reward>  (204) 
-0

>  <i_i_glide_confnum>  (204) 
3

>  <i_i_glide_posenum>  (204) 
6

>  <r_i_glide_eff_state_penalty>  (204) 
0

>  <ligand_id>  (204) 
81

>  <original_smiles>  (204) 
CC=CC1OC(C)=CC[S+]1[O-]

>  <smiles>  (204) 
[H]C(=C([H])C1([H])OC(C([H])([H])[H])=C([H])C([H])([H])S1=O)C([H])([H])[H]

$$$$
81:1:0
     RDKit          3D

 23 23  0  0  1  0  0  0  0  0999 V2000
   -8.1491   -5.9801  -10.5654 C   0  0  0  0  0  0  0  0  0  0  0  0
   -7.6508   -7.0442   -9.6114 C   0  0  0  0  0  0  0  0  0  0  0  0
   -7.5604   -6.9564   -8.2707 C   0  0  0  0  0  0  0  0  0  0  0  0
   -7.9197   -5.7760   -7.3942 C   0  0  2  0  0  0  0  0  0  0  0  0
   -7.2611   -5.9166   -6.1368 O   0  0  0  0  0  0  0  0  0  0  0  0
   -7.5536   -5.0293   -5.1384 C   0  0  0  0  0  0  0  0  0  0  0  0
   -6.5899   -5.1664   -3.9723 C   0  0  0  0  0  0  0  0  0  0  0  0
   -8.5619   -4.1365   -5.1701 C   0  0  0  0  0  0  0  0  0  0  0  0
   -9.5709   -3.9441   -6.2731 C   0  0  0  0  0  0  0  0  0  0  0  0
   -9.7474   -5.4604   -7.2916 S   0  0  0  0  0  0  0  0  0  0  0  0
  -10.3127   -5.0636   -8.6607 O   0  0  0  0  0  0  0  0  0  0  0  0
   -7.3857   -5.7559  -11.3129 H   0  0  0  0  0  0  0  0  0  0  0  0
   -8.3832   -5.0576  -10.0399 H   0  0  0  0  0  0  0  0  0  0  0  0
   -9.0333   -6.3221  -11.0925 H   0  0  0  0  0  0  0  0  0  0  0  0
   -7.3347   -7.9692  -10.0828 H   0  0  0  0  0  0  0  0  0  0  0  0
   -7.1485   -7.7910   -7.7382 H   0  0  0  0  0  0  0  0  0  0  0  0
   -7.4727   -4.9057   -7.8362 H   0  0  0  0  0  0  0  0  0  0  0  0
   -6.8404   -4.4926   -3.1518 H   0  0  0  0  0  0  0  0  0  0  0  0
   -5.5770   -4.9359   -4.3140 H   0  0  0  0  0  0  0  0  0  0  0  0
   -6.5650   -6.1837   -3.5755 H   0  0  0  0  0  0  0  0  0  0  0  0
   -8.6837   -3.4678   -4.3341 H   0  0  0  0  0  0  0  0  0  0  0  0
  -10.5509   -3.7126   -5.8513 H   0  0  0  0  0  0  0  0  0  0  0  0
   -9.2678   -3.1114   -6.9052 H   0  0  0  0  0  0  0  0  0  0  0  0
  1  2  1  0
  1 12  1  0
  1 13  1  0
  1 14  1  0
  2  3  2  3
  2 15  1  0
  3  4  1  0
  3 16  1  0
  4 10  1  0
  4  5  1  0
  4 17  1  6
  5  6  1  0
  6  7  1  0
  6  8  2  0
  7 18  1  0
  7 19  1  0
  7 20  1  0
  8  9  1  0
  8 21  1  0
 10  9  1  1
  9 22  1  0
  9 23  1  0
 10 11  2  0
M  END
>  <i_m_ct_stereo_status>  (205) 
1

>  <s_m_source_file>  (205) 
/var/tmp/pbs.5075288.sched01/tmpo2oug7hv/195455be7ie.sdf

>  <i_m_source_file_index>  (205) 
14

>  <i_lp_mmshare_version>  (205) 
48012

>  <i_f3d_flags>  (205) 
0

>  <s_epik_input>  (205) 
W0NIM10vW0NIXT1bQ0hdL1tDQEBIXTFPQyhbQ0gzXSk9W0NIXVtDSDJdW1MrXTFbTy1d

>  <s_epik_cmdline>  (205) 
J2VwaWtfcHl0aG9uJywgJy1waHQnLCAnMi4wJywgJy1waCcsICc3LjAnLCAnLXRuJywgJzgnLCAnLW1hJywgJzIwMCcsICctaW1hZScsICc8aW5maWxlLm1hZT4nLCAnLW9tYWUnLCAnPG91dGZpbGUubWFlPic=

>  <r_lp_tautomer_probability>  (205) 
1

>  <r_epik_Ionization_Penalty>  (205) 
0

>  <r_epik_Ionization_Penalty_Charging>  (205) 
0

>  <r_epik_Ionization_Penalty_Neutral>  (205) 
0

>  <r_epik_State_Penalty>  (205) 
-0

>  <r_epik_Charging_Adjusted_Penalty>  (205) 
0

>  <i_epik_Tot_Q>  (205) 
0

>  <i_epik_Tot_abs_Q>  (205) 
2

>  <s_epik_Chemistry_Notes>  (205) 
This compound contains an acetal/aminal-like group ( X-CH(R)-Y where X, Y are N, S, or O) that may be acid/base labile, releasing an aldehyde.

>  <s_lp_Force_Field>  (205) 
OPLS3e

>  <r_lp_Energy>  (205) 
-3.62541

>  <b_lp_Chiralities_Consistent>  (205) 
1

>  <s_lp_Variant>  (205) 
81:0-2

>  <s_i_glide_gridfile>  (205) 
pfpi4k_grid

>  <i_i_glide_lignum>  (205) 
14

>  <i_i_glide_rotatable_bonds>  (205) 
1

>  <r_i_docking_score>  (205) 
-5.4235

>  <r_i_glide_ligand_efficiency>  (205) 
-0.493045

>  <r_i_glide_ligand_efficiency_sa>  (205) 
-1.09652

>  <r_i_glide_ligand_efficiency_ln>  (205) 
-1.59613

>  <r_i_glide_gscore>  (205) 
-5.4235

>  <r_i_glide_lipo>  (205) 
-1.925

>  <r_i_glide_hbond>  (205) 
-0.0276657

>  <r_i_glide_metal>  (205) 
-0

>  <r_i_glide_rewards>  (205) 
-2.93597

>  <r_i_glide_evdw>  (205) 
-17.7511

>  <r_i_glide_ecoul>  (205) 
-1.13179

>  <r_i_glide_erotb>  (205) 
0.522464

>  <r_i_glide_esite>  (205) 
0

>  <r_i_glide_emodel>  (205) 
-23.5482

>  <r_i_glide_energy>  (205) 
-18.8829

>  <r_i_glide_einternal>  (205) 
3.49594

>  <r_i_glide_intrahb_reward>  (205) 
-0

>  <i_i_glide_confnum>  (205) 
1

>  <i_i_glide_posenum>  (205) 
40

>  <r_i_glide_eff_state_penalty>  (205) 
0

>  <ligand_id>  (205) 
81

>  <original_smiles>  (205) 
CC=CC1OC(C)=CC[S+]1[O-]

>  <smiles>  (205) 
[H]C(=C([H])C1([H])OC(C([H])([H])[H])=C([H])C([H])([H])S1=O)C([H])([H])[H]

$$$$
81:1:1
     RDKit          3D

 23 23  0  0  1  0  0  0  0  0999 V2000
   -6.8709   -4.8018   -4.3617 C   0  0  0  0  0  0  0  0  0  0  0  0
   -6.1826   -6.1434   -4.1320 C   0  0  0  0  0  0  0  0  0  0  0  0
   -6.0050   -7.1834   -4.9717 C   0  0  0  0  0  0  0  0  0  0  0  0
   -6.5411   -7.3445   -6.3795 C   0  0  2  0  0  0  0  0  0  0  0  0
   -7.5697   -6.4030   -6.6290 O   0  0  0  0  0  0  0  0  0  0  0  0
   -8.2294   -6.4353   -7.8274 C   0  0  0  0  0  0  0  0  0  0  0  0
   -9.0175   -5.1615   -8.0197 C   0  0  0  0  0  0  0  0  0  0  0  0
   -8.1665   -7.4531   -8.7111 C   0  0  0  0  0  0  0  0  0  0  0  0
   -7.4162   -8.7487   -8.5109 C   0  0  0  0  0  0  0  0  0  0  0  0
   -6.9984   -9.1017   -6.7422 S   0  0  0  0  0  0  0  0  0  0  0  0
   -5.6990   -9.9131   -6.7338 O   0  0  0  0  0  0  0  0  0  0  0  0
   -7.7642   -4.7343   -3.7432 H   0  0  0  0  0  0  0  0  0  0  0  0
   -7.1528   -4.5754   -5.3852 H   0  0  0  0  0  0  0  0  0  0  0  0
   -6.1958   -3.9930   -4.0660 H   0  0  0  0  0  0  0  0  0  0  0  0
   -5.7836   -6.2569   -3.1404 H   0  0  0  0  0  0  0  0  0  0  0  0
   -5.4241   -8.0261   -4.6248 H   0  0  0  0  0  0  0  0  0  0  0  0
   -5.6992   -7.1117   -7.0375 H   0  0  0  0  0  0  0  0  0  0  0  0
   -9.6070   -5.1692   -8.9359 H   0  0  0  0  0  0  0  0  0  0  0  0
   -8.3410   -4.3061   -8.0461 H   0  0  0  0  0  0  0  0  0  0  0  0
   -9.6946   -5.0117   -7.1745 H   0  0  0  0  0  0  0  0  0  0  0  0
   -8.6932   -7.3686   -9.6544 H   0  0  0  0  0  0  0  0  0  0  0  0
   -8.0105   -9.5736   -8.8985 H   0  0  0  0  0  0  0  0  0  0  0  0
   -6.4925   -8.7011   -9.0895 H   0  0  0  0  0  0  0  0  0  0  0  0
  1  2  1  0
  1 12  1  0
  1 13  1  0
  1 14  1  0
  2  3  2  3
  2 15  1  0
  3  4  1  0
  3 16  1  0
  4 10  1  0
  4  5  1  0
  4 17  1  6
  5  6  1  0
  6  7  1  0
  6  8  2  0
  7 18  1  0
  7 19  1  0
  7 20  1  0
  8  9  1  0
  8 21  1  0
 10  9  1  6
  9 22  1  0
  9 23  1  0
 10 11  2  0
M  END
>  <i_m_ct_stereo_status>  (206) 
1

>  <s_m_source_file>  (206) 
/var/tmp/pbs.5075288.sched01/tmpo2oug7hv/195455be7ie.sdf

>  <i_m_source_file_index>  (206) 
14

>  <i_lp_mmshare_version>  (206) 
48012

>  <i_f3d_flags>  (206) 
0

>  <s_epik_input>  (206) 
W0NIM10vW0NIXT1bQ0hdL1tDQEBIXTFPQyhbQ0gzXSk9W0NIXVtDSDJdW1MrXTFbTy1d

>  <s_epik_cmdline>  (206) 
J2VwaWtfcHl0aG9uJywgJy1waHQnLCAnMi4wJywgJy1waCcsICc3LjAnLCAnLXRuJywgJzgnLCAnLW1hJywgJzIwMCcsICctaW1hZScsICc8aW5maWxlLm1hZT4nLCAnLW9tYWUnLCAnPG91dGZpbGUubWFlPic=

>  <r_lp_tautomer_probability>  (206) 
1

>  <r_epik_Ionization_Penalty>  (206) 
0

>  <r_epik_Ionization_Penalty_Charging>  (206) 
0

>  <r_epik_Ionization_Penalty_Neutral>  (206) 
0

>  <r_epik_State_Penalty>  (206) 
-0

>  <r_epik_Charging_Adjusted_Penalty>  (206) 
0

>  <i_epik_Tot_Q>  (206) 
0

>  <i_epik_Tot_abs_Q>  (206) 
2

>  <s_epik_Chemistry_Notes>  (206) 
This compound contains an acetal/aminal-like group ( X-CH(R)-Y where X, Y are N, S, or O) that may be acid/base labile, releasing an aldehyde.

>  <s_lp_Force_Field>  (206) 
OPLS3e

>  <r_lp_Energy>  (206) 
-3.62541

>  <b_lp_Chiralities_Consistent>  (206) 
1

>  <s_lp_Variant>  (206) 
81:0-2

>  <s_i_glide_gridfile>  (206) 
pfpi4k_grid

>  <i_i_glide_lignum>  (206) 
14

>  <i_i_glide_rotatable_bonds>  (206) 
1

>  <r_i_docking_score>  (206) 
-5.09947

>  <r_i_glide_ligand_efficiency>  (206) 
-0.463589

>  <r_i_glide_ligand_efficiency_sa>  (206) 
-1.03101

>  <r_i_glide_ligand_efficiency_ln>  (206) 
-1.50077

>  <r_i_glide_gscore>  (206) 
-5.09947

>  <r_i_glide_lipo>  (206) 
-1.76169

>  <r_i_glide_hbond>  (206) 
0

>  <r_i_glide_metal>  (206) 
-0

>  <r_i_glide_rewards>  (206) 
-2.88806

>  <r_i_glide_evdw>  (206) 
-19.0426

>  <r_i_glide_ecoul>  (206) 
-0.133736

>  <r_i_glide_erotb>  (206) 
0.522464

>  <r_i_glide_esite>  (206) 
0

>  <r_i_glide_emodel>  (206) 
-24.1372

>  <r_i_glide_energy>  (206) 
-19.1763

>  <r_i_glide_einternal>  (206) 
2.28945

>  <r_i_glide_intrahb_reward>  (206) 
-0

>  <i_i_glide_confnum>  (206) 
2

>  <i_i_glide_posenum>  (206) 
12

>  <r_i_glide_eff_state_penalty>  (206) 
0

>  <ligand_id>  (206) 
81

>  <original_smiles>  (206) 
CC=CC1OC(C)=CC[S+]1[O-]

>  <smiles>  (206) 
[H]C(=C([H])C1([H])OC(C([H])([H])[H])=C([H])C([H])([H])S1=O)C([H])([H])[H]

$$$$
81:1:2
     RDKit          3D

 23 23  0  0  1  0  0  0  0  0999 V2000
   -6.6130   -5.3055   -4.3192 C   0  0  0  0  0  0  0  0  0  0  0  0
   -5.2385   -5.5228   -4.9147 C   0  0  0  0  0  0  0  0  0  0  0  0
   -4.7848   -6.6381   -5.5212 C   0  0  0  0  0  0  0  0  0  0  0  0
   -5.5529   -7.9250   -5.7296 C   0  0  2  0  0  0  0  0  0  0  0  0
   -4.6382   -9.0152   -5.7483 O   0  0  0  0  0  0  0  0  0  0  0  0
   -5.1163  -10.2587   -6.0914 C   0  0  0  0  0  0  0  0  0  0  0  0
   -4.0902  -11.3293   -5.8090 C   0  0  0  0  0  0  0  0  0  0  0  0
   -6.3416  -10.5141   -6.5937 C   0  0  0  0  0  0  0  0  0  0  0  0
   -7.3874   -9.4905   -6.9578 C   0  0  0  0  0  0  0  0  0  0  0  0
   -6.6660   -7.8099   -7.2056 S   0  0  0  0  0  0  0  0  0  0  0  0
   -7.7708   -6.8042   -6.8763 O   0  0  0  0  0  0  0  0  0  0  0  0
   -6.5439   -5.1310   -3.2459 H   0  0  0  0  0  0  0  0  0  0  0  0
   -7.2730   -6.1553   -4.4748 H   0  0  0  0  0  0  0  0  0  0  0  0
   -7.0800   -4.4312   -4.7720 H   0  0  0  0  0  0  0  0  0  0  0  0
   -4.5859   -4.6661   -4.8384 H   0  0  0  0  0  0  0  0  0  0  0  0
   -3.7832   -6.6513   -5.9140 H   0  0  0  0  0  0  0  0  0  0  0  0
   -6.1890   -8.0605   -4.8597 H   0  0  0  0  0  0  0  0  0  0  0  0
   -4.4359  -12.3242   -6.0844 H   0  0  0  0  0  0  0  0  0  0  0  0
   -3.8647  -11.3355   -4.7441 H   0  0  0  0  0  0  0  0  0  0  0  0
   -3.1620  -11.1223   -6.3406 H   0  0  0  0  0  0  0  0  0  0  0  0
   -6.6356  -11.5336   -6.7760 H   0  0  0  0  0  0  0  0  0  0  0  0
   -7.8940   -9.7896   -7.8776 H   0  0  0  0  0  0  0  0  0  0  0  0
   -8.1385   -9.4617   -6.1661 H   0  0  0  0  0  0  0  0  0  0  0  0
  1  2  1  0
  1 12  1  0
  1 13  1  0
  1 14  1  0
  2  3  2  3
  2 15  1  0
  3  4  1  0
  3 16  1  0
  4 10  1  0
  4  5  1  0
  4 17  1  1
  5  6  1  0
  6  7  1  0
  6  8  2  0
  7 18  1  0
  7 19  1  0
  7 20  1  0
  8  9  1  0
  8 21  1  0
 10  9  1  1
  9 22  1  0
  9 23  1  0
 10 11  2  0
M  END
>  <i_m_ct_stereo_status>  (207) 
1

>  <s_m_source_file>  (207) 
/var/tmp/pbs.5075288.sched01/tmpo2oug7hv/195455be7ie.sdf

>  <i_m_source_file_index>  (207) 
14

>  <i_lp_mmshare_version>  (207) 
48012

>  <i_f3d_flags>  (207) 
0

>  <s_epik_input>  (207) 
W0NIM10vW0NIXT1bQ0hdL1tDQEBIXTFPQyhbQ0gzXSk9W0NIXVtDSDJdW1MrXTFbTy1d

>  <s_epik_cmdline>  (207) 
J2VwaWtfcHl0aG9uJywgJy1waHQnLCAnMi4wJywgJy1waCcsICc3LjAnLCAnLXRuJywgJzgnLCAnLW1hJywgJzIwMCcsICctaW1hZScsICc8aW5maWxlLm1hZT4nLCAnLW9tYWUnLCAnPG91dGZpbGUubWFlPic=

>  <r_lp_tautomer_probability>  (207) 
1

>  <r_epik_Ionization_Penalty>  (207) 
0

>  <r_epik_Ionization_Penalty_Charging>  (207) 
0

>  <r_epik_Ionization_Penalty_Neutral>  (207) 
0

>  <r_epik_State_Penalty>  (207) 
-0

>  <r_epik_Charging_Adjusted_Penalty>  (207) 
0

>  <i_epik_Tot_Q>  (207) 
0

>  <i_epik_Tot_abs_Q>  (207) 
2

>  <s_epik_Chemistry_Notes>  (207) 
This compound contains an acetal/aminal-like group ( X-CH(R)-Y where X, Y are N, S, or O) that may be acid/base labile, releasing an aldehyde.

>  <s_lp_Force_Field>  (207) 
OPLS3e

>  <r_lp_Energy>  (207) 
-3.62541

>  <b_lp_Chiralities_Consistent>  (207) 
1

>  <s_lp_Variant>  (207) 
81:0-2

>  <s_i_glide_gridfile>  (207) 
pfpi4k_grid

>  <i_i_glide_lignum>  (207) 
14

>  <i_i_glide_rotatable_bonds>  (207) 
1

>  <r_i_docking_score>  (207) 
-4.21055

>  <r_i_glide_ligand_efficiency>  (207) 
-0.382777

>  <r_i_glide_ligand_efficiency_sa>  (207) 
-0.851289

>  <r_i_glide_ligand_efficiency_ln>  (207) 
-1.23916

>  <r_i_glide_gscore>  (207) 
-4.21055

>  <r_i_glide_lipo>  (207) 
-1.23014

>  <r_i_glide_hbond>  (207) 
0

>  <r_i_glide_metal>  (207) 
-0

>  <r_i_glide_rewards>  (207) 
-2.4939

>  <r_i_glide_evdw>  (207) 
-19.8243

>  <r_i_glide_ecoul>  (207) 
-0.118412

>  <r_i_glide_erotb>  (207) 
0.522464

>  <r_i_glide_esite>  (207) 
0

>  <r_i_glide_emodel>  (207) 
-24.1285

>  <r_i_glide_energy>  (207) 
-19.9428

>  <r_i_glide_einternal>  (207) 
1.93436

>  <r_i_glide_intrahb_reward>  (207) 
-0

>  <i_i_glide_confnum>  (207) 
1

>  <i_i_glide_posenum>  (207) 
11

>  <r_i_glide_eff_state_penalty>  (207) 
0

>  <ligand_id>  (207) 
81

>  <original_smiles>  (207) 
CC=CC1OC(C)=CC[S+]1[O-]

>  <smiles>  (207) 
[H]C(=C([H])C1([H])OC(C([H])([H])[H])=C([H])C([H])([H])S1=O)C([H])([H])[H]

$$$$
82:0:0
     RDKit          3D

 96102  0  0  1  0  0  0  0  0999 V2000
    5.6256   -1.3298    2.9281 C   0  0  0  0  0  0  0  0  0  0  0  0
    4.9318   -2.5276    3.2139 O   0  0  0  0  0  0  0  0  0  0  0  0
    4.5918   -3.3411    2.1860 C   0  0  0  0  0  0  0  0  0  0  0  0
    5.0615   -3.1989    1.0530 O   0  0  0  0  0  0  0  0  0  0  0  0
    3.5682   -4.3906    2.6479 C   0  0  1  0  0  0  0  0  0  0  0  0
    2.4007   -3.6493    3.3948 C   0  0  0  0  0  0  0  0  0  0  0  0
    1.7532   -2.4267    2.7248 C   0  0  0  0  0  0  0  0  0  0  0  0
    0.5352   -1.9572    3.5295 C   0  0  0  0  0  0  0  0  0  0  0  0
    0.1713   -0.6909    3.8380 C   0  0  0  0  0  0  0  0  0  0  0  0
    0.9321    0.5531    3.4158 C   0  0  0  0  0  0  0  0  0  0  0  0
   -1.0698   -0.3937    4.6696 C   0  0  0  0  0  0  0  0  0  0  0  0
    3.0758   -5.1658    1.3710 C   0  0  0  0  0  0  0  0  0  0  0  0
    2.1946   -4.9427    0.5520 O   0  0  0  0  0  0  0  0  0  0  0  0
    3.9414   -6.4328    1.6981 C   0  0  2  0  0  0  0  0  0  0  0  0
    5.0110   -6.5015    0.7744 O   0  0  0  0  0  0  0  0  0  0  0  0
    3.0716   -7.5856    1.6056 O   0  0  0  0  0  0  0  0  0  0  0  0
    3.2645   -8.7579    2.4109 C   0  0  1  0  0  0  0  0  0  0  0  0
    5.0001   -9.4109    2.2772 S   0  0  0  0  0  0  0  0  0  0  0  0
    5.4795   -9.1316    0.8580 O   0  0  0  0  0  0  0  0  0  0  0  0
    5.9260   -8.2028    3.3415 C   0  0  0  0  0  0  0  0  0  0  0  0
    5.1657   -7.7596    4.6386 C   0  0  2  0  0  0  0  0  0  0  0  0
    6.3874   -7.1856    5.4288 C   0  0  0  0  0  0  0  0  0  0  0  0
    4.7991   -9.1390    5.3313 C   0  0  1  0  0  0  0  0  0  0  0  0
    4.8456   -9.0946    6.7500 O   0  0  0  0  0  0  0  0  0  0  0  0
    3.5237   -9.8201    4.7644 C   0  0  1  0  0  0  0  0  0  0  0  0
    2.8693  -10.6356    5.7145 O   0  0  0  0  0  0  0  0  0  0  0  0
    2.6383   -8.8283    3.9105 C   0  0  2  0  0  0  0  0  0  0  0  0
    1.2157   -9.3129    3.8575 N   0  0  2  0  0  0  0  0  0  0  0  0
    0.8658  -10.5940    3.1814 C   0  0  0  0  0  0  0  0  0  0  0  0
    0.3750   -8.1704    3.4601 C   0  0  0  0  0  0  0  0  0  0  0  0
    1.2320   -6.9140    3.6337 C   0  0  0  0  0  0  0  0  0  0  0  0
    2.4933   -7.3593    4.5257 C   0  0  1  0  0  0  0  0  0  0  0  0
    2.0367   -7.1267    6.1003 C   0  0  1  0  0  0  0  0  0  0  0  0
    0.7683   -6.1990    6.2597 C   0  0  0  0  0  0  0  0  0  0  0  0
    0.2675   -6.0143    7.6922 C   0  0  1  0  0  0  0  0  0  0  0  0
   -1.0225   -5.2022    7.6631 C   0  0  0  0  0  0  0  0  0  0  0  0
    0.0240   -7.2839    8.2832 O   0  0  0  0  0  0  0  0  0  0  0  0
    1.1132   -8.1560    8.3195 C   0  0  1  0  0  0  0  0  0  0  0  0
    2.1557   -7.6022    9.3140 C   0  0  0  0  0  0  0  0  0  0  0  0
    0.6810   -9.4475    8.7166 O   0  0  0  0  0  0  0  0  0  0  0  0
    1.6939   -8.4026    6.9212 C   0  0  0  0  0  0  0  0  0  0  0  0
    3.2230   -6.3485    6.7023 C   0  0  0  0  0  0  0  0  0  0  0  0
    3.8538   -5.6287    5.5696 C   0  0  1  0  0  0  0  0  0  0  0  0
    4.9816   -4.8265    5.8820 O   0  0  0  0  0  0  0  0  0  0  0  0
    3.9491   -6.6416    4.4079 C   0  0  1  0  0  0  0  0  0  0  0  0
    4.2136   -5.7871    3.0984 C   0  0  2  0  0  0  0  0  0  0  0  0
    5.8077   -0.7959    3.8557 H   0  0  0  0  0  0  0  0  0  0  0  0
    5.0594   -0.6746    2.2637 H   0  0  0  0  0  0  0  0  0  0  0  0
    6.5780   -1.5411    2.4493 H   0  0  0  0  0  0  0  0  0  0  0  0
    1.6025   -4.3320    3.6404 H   0  0  0  0  0  0  0  0  0  0  0  0
    2.7530   -3.2261    4.3348 H   0  0  0  0  0  0  0  0  0  0  0  0
    2.4971   -1.6393    2.6593 H   0  0  0  0  0  0  0  0  0  0  0  0
    1.4882   -2.6543    1.6956 H   0  0  0  0  0  0  0  0  0  0  0  0
   -0.1127   -2.7474    3.8864 H   0  0  0  0  0  0  0  0  0  0  0  0
    1.3510    1.0526    4.2917 H   0  0  0  0  0  0  0  0  0  0  0  0
    0.2479    1.2497    2.9307 H   0  0  0  0  0  0  0  0  0  0  0  0
    1.7383    0.3512    2.7128 H   0  0  0  0  0  0  0  0  0  0  0  0
   -1.7672    0.2215    4.1006 H   0  0  0  0  0  0  0  0  0  0  0  0
   -0.8014    0.1661    5.5673 H   0  0  0  0  0  0  0  0  0  0  0  0
   -1.5956   -1.2976    4.9784 H   0  0  0  0  0  0  0  0  0  0  0  0
    5.4354   -7.3393    0.9207 H   0  0  0  0  0  0  0  0  0  0  0  0
    2.7369   -9.5022    1.8208 H   0  0  0  0  0  0  0  0  0  0  0  0
    6.8481   -8.7495    3.5815 H   0  0  0  0  0  0  0  0  0  0  0  0
    6.2791   -7.3610    2.7538 H   0  0  0  0  0  0  0  0  0  0  0  0
    6.1477   -6.9312    6.4630 H   0  0  0  0  0  0  0  0  0  0  0  0
    6.7980   -6.3017    4.9302 H   0  0  0  0  0  0  0  0  0  0  0  0
    7.2096   -7.9061    5.5165 H   0  0  0  0  0  0  0  0  0  0  0  0
    5.6148   -9.8547    5.1543 H   0  0  0  0  0  0  0  0  0  0  0  0
    4.6550   -9.9479    7.1154 H   0  0  0  0  0  0  0  0  0  0  0  0
    3.8443  -10.6506    4.1371 H   0  0  0  0  0  0  0  0  0  0  0  0
    3.3713  -11.3977    5.8987 H   0  0  0  0  0  0  0  0  0  0  0  0
    0.8040  -10.4908    2.0869 H   0  0  0  0  0  0  0  0  0  0  0  0
   -0.1314  -10.8742    3.5435 H   0  0  0  0  0  0  0  0  0  0  0  0
    1.5560  -11.4040    3.4480 H   0  0  0  0  0  0  0  0  0  0  0  0
    0.0258   -8.2680    2.4230 H   0  0  0  0  0  0  0  0  0  0  0  0
   -0.4953   -8.1388    4.1086 H   0  0  0  0  0  0  0  0  0  0  0  0
    1.3724   -6.5765    2.6243 H   0  0  0  0  0  0  0  0  0  0  0  0
    0.5844   -6.1213    4.0010 H   0  0  0  0  0  0  0  0  0  0  0  0
    0.9200   -5.1856    5.8453 H   0  0  0  0  0  0  0  0  0  0  0  0
   -0.0483   -6.6329    5.6631 H   0  0  0  0  0  0  0  0  0  0  0  0
    0.9719   -5.4608    8.3126 H   0  0  0  0  0  0  0  0  0  0  0  0
   -0.8165   -4.2206    7.2448 H   0  0  0  0  0  0  0  0  0  0  0  0
   -1.4160   -5.0784    8.6662 H   0  0  0  0  0  0  0  0  0  0  0  0
   -1.7935   -5.6405    7.0316 H   0  0  0  0  0  0  0  0  0  0  0  0
    1.7648   -7.7122   10.3317 H   0  0  0  0  0  0  0  0  0  0  0  0
    2.5097   -6.6065    9.0726 H   0  0  0  0  0  0  0  0  0  0  0  0
    3.0097   -8.2680    9.2912 H   0  0  0  0  0  0  0  0  0  0  0  0
    1.0137  -10.0924    8.0954 H   0  0  0  0  0  0  0  0  0  0  0  0
    0.9466   -8.9742    6.3682 H   0  0  0  0  0  0  0  0  0  0  0  0
    2.5550   -9.0222    7.0737 H   0  0  0  0  0  0  0  0  0  0  0  0
    2.8892   -5.6202    7.4358 H   0  0  0  0  0  0  0  0  0  0  0  0
    3.9573   -6.9578    7.2212 H   0  0  0  0  0  0  0  0  0  0  0  0
    3.1252   -4.8982    5.2953 H   0  0  0  0  0  0  0  0  0  0  0  0
    5.6669   -5.3547    6.2672 H   0  0  0  0  0  0  0  0  0  0  0  0
    5.2771   -5.5317    3.1053 H   0  0  0  0  0  0  0  0  0  0  0  0
    1.0275   -9.4898    4.8478 H   0  0  0  0  0  0  0  0  0  0  0  0
  1  2  1  0
  1 47  1  0
  1 48  1  0
  1 49  1  0
  2  3  1  0
  3  4  2  0
  3  5  1  0
  5 46  1  0
  5  6  1  1
  5 12  1  0
  6  7  1  0
  6 50  1  0
  6 51  1  0
  7  8  1  0
  7 52  1  0
  7 53  1  0
  8  9  2  3
  8 54  1  0
  9 10  1  0
  9 11  1  0
 10 55  1  0
 10 56  1  0
 10 57  1  0
 11 58  1  0
 11 59  1  0
 11 60  1  0
 12 13  2  0
 12 14  1  0
 14 46  1  0
 14 15  1  6
 14 16  1  0
 15 61  1  0
 16 17  1  0
 17 27  1  0
 17 18  1  0
 17 62  1  6
 18 19  2  0
 18 20  1  1
 20 21  1  0
 20 63  1  0
 20 64  1  0
 45 21  1  1
 21 22  1  1
 21 23  1  0
 22 65  1  0
 22 66  1  0
 22 67  1  0
 23 24  1  0
 23 25  1  0
 23 68  1  6
 24 69  1  0
 25 26  1  0
 25 27  1  0
 25 70  1  6
 26 71  1  0
 27 32  1  1
 27 28  1  0
 28 29  1  0
 28 30  1  0
 28 96  1  1
 29 72  1  0
 29 73  1  0
 29 74  1  0
 30 31  1  0
 30 75  1  0
 30 76  1  0
 32 31  1  6
 31 77  1  0
 31 78  1  0
 32 45  1  0
 32 33  1  0
 33 41  1  1
 33 34  1  0
 33 42  1  0
 34 35  1  0
 34 79  1  0
 34 80  1  0
 35 36  1  0
 35 37  1  0
 35 81  1  1
 36 82  1  0
 36 83  1  0
 36 84  1  0
 37 38  1  0
 38 39  1  0
 38 40  1  1
 38 41  1  0
 39 85  1  0
 39 86  1  0
 39 87  1  0
 40 88  1  0
 41 89  1  0
 41 90  1  0
 42 43  1  0
 42 91  1  0
 42 92  1  0
 43 44  1  0
 43 45  1  0
 43 93  1  6
 44 94  1  0
 45 46  1  0
 46 95  1  6
M  CHG  1  28   1
M  END
>  <i_m_ct_stereo_status>  (208) 
1

>  <s_m_source_file>  (208) 
/var/tmp/pbs.5075288.sched01/tmpo2oug7hv/195455be7ie.sdf

>  <i_m_source_file_index>  (208) 
15

>  <i_lp_mmshare_version>  (208) 
48012

>  <i_f3d_flags>  (208) 
0

>  <s_epik_input>  (208) 
W0NIM11DKFtDSDNdKT1bQ0hdW0NIMl1bQ0gyXVtDQEBdKEMxPU8pKEMoPU8pT1tDSDNdKVtDQEBIXTJbQ0BAXTEoW09IXSlPW0NASF0zW1MrXShbTy1dKVtDSDJdW0NAXShbQ0gzXSkoW0NAQEhdKFtPSF0pW0NASF00W09IXSlbQ0BAXTI1W0NASF0oW09IXSlbQ0gyXVtDQF02KFtDQEBdNShbQ0BAXTM0NylbQ0gyXVtDSDJdTjdbQ0gzXSlbQ0gyXVtDQEBIXShbQ0gzXSlPW0NAQF0oW0NIM10pKFtPSF0pW0NIMl02

>  <s_epik_cmdline>  (208) 
J2VwaWtfcHl0aG9uJywgJy1waHQnLCAnMi4wJywgJy1waCcsICc3LjAnLCAnLXRuJywgJzgnLCAnLW1hJywgJzIwMCcsICctaW1hZScsICc8aW5maWxlLm1hZT4nLCAnLW9tYWUnLCAnPG91dGZpbGUubWFlPic=

>  <r_epik_Ionization_Penalty>  (208) 
0.0155337

>  <r_epik_Ionization_Penalty_Charging>  (208) 
0.0155303

>  <r_epik_Ionization_Penalty_Neutral>  (208) 
3.34686e-06

>  <r_epik_State_Penalty>  (208) 
0.0122095

>  <r_epik_Charging_Adjusted_Penalty>  (208) 
0.0277398

>  <i_epik_Tot_Q>  (208) 
1

>  <i_epik_Tot_abs_Q>  (208) 
3

>  <s_epik_Chemistry_Notes>  (208) 
This compound has an ester and may undergo hydrolysis at high or low pH. This compound contains an acetal/aminal-like group ( X-CH(R)-Y where X, Y are N, S, or O) that may be acid/base labile, releasing an aldehyde.

>  <s_lp_Force_Field>  (208) 
OPLS3e

>  <r_lp_Energy>  (208) 
154.518

>  <b_lp_Chiralities_Consistent>  (208) 
1

>  <s_lp_Variant>  (208) 
82:0-1

>  <s_i_glide_gridfile>  (208) 
pfpi4k_grid

>  <i_i_glide_lignum>  (208) 
15

>  <i_i_glide_rotatable_bonds>  (208) 
10

>  <r_i_docking_score>  (208) 
-3.62461

>  <r_i_glide_ligand_efficiency>  (208) 
-0.0787959

>  <r_i_glide_ligand_efficiency_sa>  (208) 
-0.282329

>  <r_i_glide_ligand_efficiency_ln>  (208) 
-0.750648

>  <r_i_glide_gscore>  (208) 
-3.62461

>  <r_i_glide_lipo>  (208) 
-0.292952

>  <r_i_glide_hbond>  (208) 
-0.0658909

>  <r_i_glide_metal>  (208) 
-0

>  <r_i_glide_rewards>  (208) 
-0.593903

>  <r_i_glide_evdw>  (208) 
-29.1187

>  <r_i_glide_ecoul>  (208) 
-7.8219

>  <r_i_glide_erotb>  (208) 
0.0297164

>  <r_i_glide_esite>  (208) 
-0.0723645

>  <r_i_glide_emodel>  (208) 
-49.1245

>  <r_i_glide_energy>  (208) 
-36.9406

>  <r_i_glide_einternal>  (208) 
4.68592

>  <r_i_glide_intrahb_reward>  (208) 
-0.5

>  <i_i_glide_confnum>  (208) 
4

>  <i_i_glide_posenum>  (208) 
35

>  <r_i_glide_eff_state_penalty>  (208) 
0

>  <ligand_id>  (208) 
82

>  <original_smiles>  (208) 
COC(=O)C1(CCC=C(C)C)C(=O)C2(O)OC3[S+]([O-])CC4(C)C(O)C(O)C35N(C)CCC53C5(CC(C)OC(C)(O)C5)CC(O)C43C21

>  <smiles>  (208) 
[H]OC12OC3([H])S(=O)C([H])([H])C4(C([H])([H])[H])C([H])(O[H])C([H])(O[H])C35C3(C([H])([H])C([H])([H])[N+]5([H])C([H])([H])[H])C5(C([H])([H])C([H])(C([H])([H])[H])OC(O[H])(C([H])([H])[H])C5([H])[H])C([H])([H])C([H])(O[H])C43C1([H])C(C(=O)OC([H])([H])[H])(C([H])([H])C([H])([H])C([H])=C(C([H])([H])[H])C([H])([H])[H])C2=O

$$$$
82:0:1
     RDKit          3D

 96102  0  0  1  0  0  0  0  0999 V2000
    5.0223   -2.1628    3.5052 C   0  0  0  0  0  0  0  0  0  0  0  0
    4.3819   -3.3730    3.8616 O   0  0  0  0  0  0  0  0  0  0  0  0
    3.5304   -3.9460    2.9792 C   0  0  0  0  0  0  0  0  0  0  0  0
    3.3316   -3.4795    1.8581 O   0  0  0  0  0  0  0  0  0  0  0  0
    2.8791   -5.1999    3.5753 C   0  0  1  0  0  0  0  0  0  0  0  0
    1.9155   -4.7448    4.7206 C   0  0  0  0  0  0  0  0  0  0  0  0
    0.6618   -3.9427    4.3387 C   0  0  0  0  0  0  0  0  0  0  0  0
    0.2136   -3.0155    5.4615 C   0  0  0  0  0  0  0  0  0  0  0  0
   -0.0394   -1.6858    5.3849 C   0  0  0  0  0  0  0  0  0  0  0  0
    0.0511   -0.8562    4.1206 C   0  0  0  0  0  0  0  0  0  0  0  0
   -0.4391   -0.8830    6.6107 C   0  0  0  0  0  0  0  0  0  0  0  0
    2.1454   -5.9723    2.4057 C   0  0  0  0  0  0  0  0  0  0  0  0
    1.0443   -5.8679    1.9101 O   0  0  0  0  0  0  0  0  0  0  0  0
    3.2770   -7.0511    2.3260 C   0  0  2  0  0  0  0  0  0  0  0  0
    4.0215   -6.8527    1.1327 O   0  0  0  0  0  0  0  0  0  0  0  0
    2.6207   -8.3428    2.3546 O   0  0  0  0  0  0  0  0  0  0  0  0
    3.2471   -9.4946    2.9254 C   0  0  1  0  0  0  0  0  0  0  0  0
    4.9417   -9.7845    2.2303 S   0  0  0  0  0  0  0  0  0  0  0  0
    4.8988   -9.3016    0.7799 O   0  0  0  0  0  0  0  0  0  0  0  0
    5.9432   -8.5032    3.1182 C   0  0  0  0  0  0  0  0  0  0  0  0
    5.5502   -8.2982    4.6147 C   0  0  2  0  0  0  0  0  0  0  0  0
    6.8408   -7.5602    5.0923 C   0  0  0  0  0  0  0  0  0  0  0  0
    5.6280   -9.7668    5.2103 C   0  0  1  0  0  0  0  0  0  0  0  0
    6.1018   -9.8191    6.5510 O   0  0  0  0  0  0  0  0  0  0  0  0
    4.3650  -10.6429    4.9698 C   0  0  1  0  0  0  0  0  0  0  0  0
    4.1995  -11.6212    6.0050 O   0  0  0  0  0  0  0  0  0  0  0  0
    3.1212   -9.7735    4.5376 C   0  0  2  0  0  0  0  0  0  0  0  0
    1.8356  -10.5210    4.8208 N   0  0  2  0  0  0  0  0  0  0  0  0
    1.5207  -11.8002    4.1409 C   0  0  0  0  0  0  0  0  0  0  0  0
    0.7395   -9.5270    4.8246 C   0  0  0  0  0  0  0  0  0  0  0  0
    1.4003   -8.1521    4.8906 C   0  0  0  0  0  0  0  0  0  0  0  0
    2.9317   -8.4048    5.3296 C   0  0  1  0  0  0  0  0  0  0  0  0
    2.9458   -8.3626    6.9841 C   0  0  1  0  0  0  0  0  0  0  0  0
    1.6618   -7.7214    7.6186 C   0  0  0  0  0  0  0  0  0  0  0  0
    1.6192   -7.7311    9.1486 C   0  0  1  0  0  0  0  0  0  0  0  0
    0.2689   -7.1888    9.5879 C   0  0  0  0  0  0  0  0  0  0  0  0
    1.7654   -9.0643    9.6283 O   0  0  0  0  0  0  0  0  0  0  0  0
    2.9393   -9.6998    9.2442 C   0  0  1  0  0  0  0  0  0  0  0  0
    4.1170   -9.0225    9.9660 C   0  0  0  0  0  0  0  0  0  0  0  0
    2.8876  -11.0779    9.6097 O   0  0  0  0  0  0  0  0  0  0  0  0
    3.0961   -9.7216    7.7159 C   0  0  0  0  0  0  0  0  0  0  0  0
    4.1113   -7.4094    7.2941 C   0  0  0  0  0  0  0  0  0  0  0  0
    4.2607   -6.5198    6.1246 C   0  0  1  0  0  0  0  0  0  0  0  0
    5.2897   -5.5445    6.1916 O   0  0  0  0  0  0  0  0  0  0  0  0
    4.1497   -7.4248    4.8784 C   0  0  1  0  0  0  0  0  0  0  0  0
    3.8539   -6.4678    3.6469 C   0  0  2  0  0  0  0  0  0  0  0  0
    5.6385   -1.8242    4.3321 H   0  0  0  0  0  0  0  0  0  0  0  0
    4.3071   -1.3719    3.2761 H   0  0  0  0  0  0  0  0  0  0  0  0
    5.6652   -2.3014    2.6372 H   0  0  0  0  0  0  0  0  0  0  0  0
    1.5684   -5.5624    5.3338 H   0  0  0  0  0  0  0  0  0  0  0  0
    2.4800   -4.1073    5.4068 H   0  0  0  0  0  0  0  0  0  0  0  0
    0.8309   -3.4354    3.3935 H   0  0  0  0  0  0  0  0  0  0  0  0
   -0.1532   -4.6462    4.1767 H   0  0  0  0  0  0  0  0  0  0  0  0
    0.0947   -3.4957    6.4201 H   0  0  0  0  0  0  0  0  0  0  0  0
    0.8685   -0.1417    4.2184 H   0  0  0  0  0  0  0  0  0  0  0  0
   -0.8724   -0.2882    3.9854 H   0  0  0  0  0  0  0  0  0  0  0  0
    0.2210   -1.4374    3.2161 H   0  0  0  0  0  0  0  0  0  0  0  0
   -1.4126   -0.4131    6.4606 H   0  0  0  0  0  0  0  0  0  0  0  0
    0.2814   -0.0813    6.7776 H   0  0  0  0  0  0  0  0  0  0  0  0
   -0.4703   -1.4919    7.5143 H   0  0  0  0  0  0  0  0  0  0  0  0
    4.5735   -7.6067    1.0328 H   0  0  0  0  0  0  0  0  0  0  0  0
    2.6990  -10.2951    2.4332 H   0  0  0  0  0  0  0  0  0  0  0  0
    6.9686   -8.8825    3.0228 H   0  0  0  0  0  0  0  0  0  0  0  0
    5.9624   -7.5741    2.5642 H   0  0  0  0  0  0  0  0  0  0  0  0
    6.8859   -7.4292    6.1733 H   0  0  0  0  0  0  0  0  0  0  0  0
    6.9299   -6.5902    4.6039 H   0  0  0  0  0  0  0  0  0  0  0  0
    7.7509   -8.1200    4.8536 H   0  0  0  0  0  0  0  0  0  0  0  0
    6.4581  -10.3099    4.7260 H   0  0  0  0  0  0  0  0  0  0  0  0
    6.0814  -10.7169    6.8459 H   0  0  0  0  0  0  0  0  0  0  0  0
    4.6015  -11.3501    4.1739 H   0  0  0  0  0  0  0  0  0  0  0  0
    3.4397  -12.1421    5.9027 H   0  0  0  0  0  0  0  0  0  0  0  0
    1.1270  -11.6505    3.1270 H   0  0  0  0  0  0  0  0  0  0  0  0
    0.7421  -12.2969    4.7258 H   0  0  0  0  0  0  0  0  0  0  0  0
    2.3933  -12.4581    4.1074 H   0  0  0  0  0  0  0  0  0  0  0  0
    0.1146   -9.6362    3.9274 H   0  0  0  0  0  0  0  0  0  0  0  0
    0.1226   -9.7131    5.6966 H   0  0  0  0  0  0  0  0  0  0  0  0
    1.1729   -7.7415    3.9281 H   0  0  0  0  0  0  0  0  0  0  0  0
    0.7919   -7.5107    5.5214 H   0  0  0  0  0  0  0  0  0  0  0  0
    1.5082   -6.6731    7.3173 H   0  0  0  0  0  0  0  0  0  0  0  0
    0.7842   -8.2586    7.2335 H   0  0  0  0  0  0  0  0  0  0  0  0
    2.3670   -7.0813    9.6118 H   0  0  0  0  0  0  0  0  0  0  0  0
    0.1371   -6.1637    9.2319 H   0  0  0  0  0  0  0  0  0  0  0  0
    0.1570   -7.2041   10.6723 H   0  0  0  0  0  0  0  0  0  0  0  0
   -0.4660   -7.8173    9.1211 H   0  0  0  0  0  0  0  0  0  0  0  0
    4.0764   -9.2783   11.0289 H   0  0  0  0  0  0  0  0  0  0  0  0
    4.2205   -7.9759    9.7588 H   0  0  0  0  0  0  0  0  0  0  0  0
    5.0152   -9.5147    9.6219 H   0  0  0  0  0  0  0  0  0  0  0  0
    2.3472  -11.5435    8.9607 H   0  0  0  0  0  0  0  0  0  0  0  0
    2.3169  -10.3755    7.3442 H   0  0  0  0  0  0  0  0  0  0  0  0
    4.0408  -10.1902    7.5711 H   0  0  0  0  0  0  0  0  0  0  0  0
    3.9039   -6.8181    8.1858 H   0  0  0  0  0  0  0  0  0  0  0  0
    5.0586   -7.9049    7.4939 H   0  0  0  0  0  0  0  0  0  0  0  0
    3.4036   -5.8897    6.1739 H   0  0  0  0  0  0  0  0  0  0  0  0
    6.1132   -5.9747    6.3220 H   0  0  0  0  0  0  0  0  0  0  0  0
    4.8114   -6.0071    3.3823 H   0  0  0  0  0  0  0  0  0  0  0  0
    1.9325  -10.7691    5.8304 H   0  0  0  0  0  0  0  0  0  0  0  0
  1  2  1  0
  1 47  1  0
  1 48  1  0
  1 49  1  0
  2  3  1  0
  3  4  2  0
  3  5  1  0
  5 46  1  0
  5  6  1  1
  5 12  1  0
  6  7  1  0
  6 50  1  0
  6 51  1  0
  7  8  1  0
  7 52  1  0
  7 53  1  0
  8  9  2  3
  8 54  1  0
  9 10  1  0
  9 11  1  0
 10 55  1  0
 10 56  1  0
 10 57  1  0
 11 58  1  0
 11 59  1  0
 11 60  1  0
 12 13  2  0
 12 14  1  0
 14 46  1  0
 14 15  1  6
 14 16  1  0
 15 61  1  0
 16 17  1  0
 17 27  1  0
 17 18  1  0
 17 62  1  6
 18 19  2  0
 18 20  1  1
 20 21  1  0
 20 63  1  0
 20 64  1  0
 45 21  1  6
 21 22  1  1
 21 23  1  0
 22 65  1  0
 22 66  1  0
 22 67  1  0
 23 24  1  0
 23 25  1  0
 23 68  1  6
 24 69  1  0
 25 26  1  0
 25 27  1  0
 25 70  1  6
 26 71  1  0
 27 32  1  1
 27 28  1  0
 28 29  1  0
 28 30  1  0
 28 96  1  1
 29 72  1  0
 29 73  1  0
 29 74  1  0
 30 31  1  0
 30 75  1  0
 30 76  1  0
 32 31  1  6
 31 77  1  0
 31 78  1  0
 32 45  1  0
 32 33  1  0
 33 41  1  1
 33 34  1  0
 33 42  1  0
 34 35  1  0
 34 79  1  0
 34 80  1  0
 35 36  1  0
 35 37  1  0
 35 81  1  1
 36 82  1  0
 36 83  1  0
 36 84  1  0
 37 38  1  0
 38 39  1  0
 38 40  1  1
 38 41  1  0
 39 85  1  0
 39 86  1  0
 39 87  1  0
 40 88  1  0
 41 89  1  0
 41 90  1  0
 42 43  1  0
 42 91  1  0
 42 92  1  0
 43 44  1  0
 43 45  1  0
 43 93  1  6
 44 94  1  0
 45 46  1  0
 46 95  1  6
M  CHG  1  28   1
M  END
>  <i_m_ct_stereo_status>  (209) 
1

>  <s_m_source_file>  (209) 
/var/tmp/pbs.5075288.sched01/tmpo2oug7hv/195455be7ie.sdf

>  <i_m_source_file_index>  (209) 
15

>  <i_lp_mmshare_version>  (209) 
48012

>  <i_f3d_flags>  (209) 
0

>  <s_epik_input>  (209) 
W0NIM11DKFtDSDNdKT1bQ0hdW0NIMl1bQ0gyXVtDQEBdKEMxPU8pKEMoPU8pT1tDSDNdKVtDQEBIXTJbQ0BAXTEoW09IXSlPW0NASF0zW1MrXShbTy1dKVtDSDJdW0NAXShbQ0gzXSkoW0NAQEhdKFtPSF0pW0NASF00W09IXSlbQ0BAXTI1W0NASF0oW09IXSlbQ0gyXVtDQF02KFtDQEBdNShbQ0BAXTM0NylbQ0gyXVtDSDJdTjdbQ0gzXSlbQ0gyXVtDQEBIXShbQ0gzXSlPW0NAQF0oW0NIM10pKFtPSF0pW0NIMl02

>  <s_epik_cmdline>  (209) 
J2VwaWtfcHl0aG9uJywgJy1waHQnLCAnMi4wJywgJy1waCcsICc3LjAnLCAnLXRuJywgJzgnLCAnLW1hJywgJzIwMCcsICctaW1hZScsICc8aW5maWxlLm1hZT4nLCAnLW9tYWUnLCAnPG91dGZpbGUubWFlPic=

>  <r_epik_Ionization_Penalty>  (209) 
0.0155337

>  <r_epik_Ionization_Penalty_Charging>  (209) 
0.0155303

>  <r_epik_Ionization_Penalty_Neutral>  (209) 
3.34686e-06

>  <r_epik_State_Penalty>  (209) 
0.0122095

>  <r_epik_Charging_Adjusted_Penalty>  (209) 
0.0277398

>  <i_epik_Tot_Q>  (209) 
1

>  <i_epik_Tot_abs_Q>  (209) 
3

>  <s_epik_Chemistry_Notes>  (209) 
This compound has an ester and may undergo hydrolysis at high or low pH. This compound contains an acetal/aminal-like group ( X-CH(R)-Y where X, Y are N, S, or O) that may be acid/base labile, releasing an aldehyde.

>  <s_lp_Force_Field>  (209) 
OPLS3e

>  <r_lp_Energy>  (209) 
154.518

>  <b_lp_Chiralities_Consistent>  (209) 
1

>  <s_lp_Variant>  (209) 
82:0-1

>  <s_i_glide_gridfile>  (209) 
pfpi4k_grid

>  <i_i_glide_lignum>  (209) 
15

>  <i_i_glide_rotatable_bonds>  (209) 
10

>  <r_i_docking_score>  (209) 
-3.59302

>  <r_i_glide_ligand_efficiency>  (209) 
-0.0781091

>  <r_i_glide_ligand_efficiency_sa>  (209) 
-0.279869

>  <r_i_glide_ligand_efficiency_ln>  (209) 
-0.744105

>  <r_i_glide_gscore>  (209) 
-3.59302

>  <r_i_glide_lipo>  (209) 
-0.0723387

>  <r_i_glide_hbond>  (209) 
-0.120067

>  <r_i_glide_metal>  (209) 
-0

>  <r_i_glide_rewards>  (209) 
-0.505348

>  <r_i_glide_evdw>  (209) 
-24.4925

>  <r_i_glide_ecoul>  (209) 
-10.3337

>  <r_i_glide_erotb>  (209) 
0.0297164

>  <r_i_glide_esite>  (209) 
-0.150301

>  <r_i_glide_emodel>  (209) 
-47.8899

>  <r_i_glide_energy>  (209) 
-34.8262

>  <r_i_glide_einternal>  (209) 
3.09648

>  <r_i_glide_intrahb_reward>  (209) 
-0.5

>  <i_i_glide_confnum>  (209) 
4

>  <i_i_glide_posenum>  (209) 
20

>  <r_i_glide_eff_state_penalty>  (209) 
0

>  <ligand_id>  (209) 
82

>  <original_smiles>  (209) 
COC(=O)C1(CCC=C(C)C)C(=O)C2(O)OC3[S+]([O-])CC4(C)C(O)C(O)C35N(C)CCC53C5(CC(C)OC(C)(O)C5)CC(O)C43C21

>  <smiles>  (209) 
[H]OC12OC3([H])S(=O)C([H])([H])C4(C([H])([H])[H])C([H])(O[H])C([H])(O[H])C35C3(C([H])([H])C([H])([H])[N+]5([H])C([H])([H])[H])C5(C([H])([H])C([H])(C([H])([H])[H])OC(O[H])(C([H])([H])[H])C5([H])[H])C([H])([H])C([H])(O[H])C43C1([H])C(C(=O)OC([H])([H])[H])(C([H])([H])C([H])([H])C([H])=C(C([H])([H])[H])C([H])([H])[H])C2=O

$$$$
82:0:2
     RDKit          3D

 96102  0  0  1  0  0  0  0  0999 V2000
    5.3724   -2.2094    3.2128 C   0  0  0  0  0  0  0  0  0  0  0  0
    4.7460   -3.4226    3.5761 O   0  0  0  0  0  0  0  0  0  0  0  0
    4.1469   -4.1564    2.6110 C   0  0  0  0  0  0  0  0  0  0  0  0
    4.2217   -3.8623    1.4206 O   0  0  0  0  0  0  0  0  0  0  0  0
    3.3893   -5.3441    3.2224 C   0  0  1  0  0  0  0  0  0  0  0  0
    2.2924   -4.7828    4.1917 C   0  0  0  0  0  0  0  0  0  0  0  0
    1.2066   -3.8623    3.6160 C   0  0  0  0  0  0  0  0  0  0  0  0
    0.2430   -3.3944    4.7062 C   0  0  0  0  0  0  0  0  0  0  0  0
   -0.2450   -2.1446    4.9048 C   0  0  0  0  0  0  0  0  0  0  0  0
    0.0656   -0.9445    4.0360 C   0  0  0  0  0  0  0  0  0  0  0  0
   -1.1757   -1.8345    6.0680 C   0  0  0  0  0  0  0  0  0  0  0  0
    2.7835   -6.1920    2.0299 C   0  0  0  0  0  0  0  0  0  0  0  0
    1.7623   -6.0895    1.3940 O   0  0  0  0  0  0  0  0  0  0  0  0
    3.8869   -7.3062    2.1844 C   0  0  2  0  0  0  0  0  0  0  0  0
    4.7848   -7.2312    1.0860 O   0  0  0  0  0  0  0  0  0  0  0  0
    3.1996   -8.5830    2.2326 O   0  0  0  0  0  0  0  0  0  0  0  0
    3.7254   -9.6955    2.9632 C   0  0  1  0  0  0  0  0  0  0  0  0
    5.4902  -10.0704    2.5200 S   0  0  0  0  0  0  0  0  0  0  0  0
    5.6872   -9.7335    1.0345 O   0  0  0  0  0  0  0  0  0  0  0  0
    6.3951   -8.7330    3.4292 C   0  0  0  0  0  0  0  0  0  0  0  0
    5.8181   -8.3956    4.8418 C   0  0  2  0  0  0  0  0  0  0  0  0
    7.0547   -7.6400    5.4231 C   0  0  0  0  0  0  0  0  0  0  0  0
    5.7819   -9.8099    5.5622 C   0  0  1  0  0  0  0  0  0  0  0  0
    6.0783   -9.7550    6.9537 O   0  0  0  0  0  0  0  0  0  0  0  0
    4.5390  -10.6826    5.2289 C   0  0  1  0  0  0  0  0  0  0  0  0
    4.2111  -11.5637    6.3142 O   0  0  0  0  0  0  0  0  0  0  0  0
    3.3875   -9.8345    4.5657 C   0  0  2  0  0  0  0  0  0  0  0  0
    2.0577  -10.5400    4.7472 N   0  0  2  0  0  0  0  0  0  0  0  0
    1.7938  -11.8630    4.1359 C   0  0  0  0  0  0  0  0  0  0  0  0
    0.9922   -9.5308    4.5293 C   0  0  0  0  0  0  0  0  0  0  0  0
    1.6710   -8.1692    4.5694 C   0  0  0  0  0  0  0  0  0  0  0  0
    3.1286   -8.4066    5.2207 C   0  0  1  0  0  0  0  0  0  0  0  0
    2.9287   -8.2343    6.8560 C   0  0  1  0  0  0  0  0  0  0  0  0
    1.5909   -7.5116    7.2591 C   0  0  0  0  0  0  0  0  0  0  0  0
    1.3303   -7.3937    8.7588 C   0  0  1  0  0  0  0  0  0  0  0  0
   -0.0562   -6.8006    8.9510 C   0  0  0  0  0  0  0  0  0  0  0  0
    1.3921   -8.6808    9.3663 O   0  0  0  0  0  0  0  0  0  0  0  0
    2.5908   -9.3700    9.2004 C   0  0  1  0  0  0  0  0  0  0  0  0
    3.6867   -8.6466   10.0031 C   0  0  0  0  0  0  0  0  0  0  0  0
    2.4466  -10.7092    9.6811 O   0  0  0  0  0  0  0  0  0  0  0  0
    2.9403   -9.5341    7.7137 C   0  0  0  0  0  0  0  0  0  0  0  0
    4.0703   -7.2728    7.2364 C   0  0  0  0  0  0  0  0  0  0  0  0
    4.3858   -6.4848    6.0260 C   0  0  1  0  0  0  0  0  0  0  0  0
    5.4198   -5.5176    6.1415 O   0  0  0  0  0  0  0  0  0  0  0  0
    4.4176   -7.4843    4.8515 C   0  0  1  0  0  0  0  0  0  0  0  0
    4.3088   -6.6239    3.5185 C   0  0  2  0  0  0  0  0  0  0  0  0
    5.7770   -1.7351    4.1011 H   0  0  0  0  0  0  0  0  0  0  0  0
    4.6709   -1.5135    2.7519 H   0  0  0  0  0  0  0  0  0  0  0  0
    6.1864   -2.3853    2.5113 H   0  0  0  0  0  0  0  0  0  0  0  0
    1.7873   -5.5728    4.7261 H   0  0  0  0  0  0  0  0  0  0  0  0
    2.7653   -4.1653    4.9583 H   0  0  0  0  0  0  0  0  0  0  0  0
    1.6906   -3.0424    3.0928 H   0  0  0  0  0  0  0  0  0  0  0  0
    0.6250   -4.4200    2.8884 H   0  0  0  0  0  0  0  0  0  0  0  0
   -0.0766   -4.1662    5.3853 H   0  0  0  0  0  0  0  0  0  0  0  0
    0.6444   -0.2165    4.6059 H   0  0  0  0  0  0  0  0  0  0  0  0
   -0.8633   -0.4606    3.7294 H   0  0  0  0  0  0  0  0  0  0  0  0
    0.6165   -1.1907    3.1287 H   0  0  0  0  0  0  0  0  0  0  0  0
   -2.1251   -1.4529    5.6894 H   0  0  0  0  0  0  0  0  0  0  0  0
   -0.7315   -1.0562    6.6913 H   0  0  0  0  0  0  0  0  0  0  0  0
   -1.3773   -2.7087    6.6872 H   0  0  0  0  0  0  0  0  0  0  0  0
    5.3270   -7.9995    1.1288 H   0  0  0  0  0  0  0  0  0  0  0  0
    3.2194  -10.5235    2.4738 H   0  0  0  0  0  0  0  0  0  0  0  0
    7.4146   -9.1343    3.5010 H   0  0  0  0  0  0  0  0  0  0  0  0
    6.5092   -7.8517    2.8113 H   0  0  0  0  0  0  0  0  0  0  0  0
    6.9636   -7.4187    6.4865 H   0  0  0  0  0  0  0  0  0  0  0  0
    7.2311   -6.7154    4.8740 H   0  0  0  0  0  0  0  0  0  0  0  0
    7.9740   -8.2307    5.3525 H   0  0  0  0  0  0  0  0  0  0  0  0
    6.6547  -10.4036    5.2356 H   0  0  0  0  0  0  0  0  0  0  0  0
    6.0225  -10.6284    7.3134 H   0  0  0  0  0  0  0  0  0  0  0  0
    4.8595  -11.4555    4.5280 H   0  0  0  0  0  0  0  0  0  0  0  0
    3.4839  -12.1086    6.1533 H   0  0  0  0  0  0  0  0  0  0  0  0
    1.5370  -11.7833    3.0714 H   0  0  0  0  0  0  0  0  0  0  0  0
    0.9314  -12.2842    4.6571 H   0  0  0  0  0  0  0  0  0  0  0  0
    2.6412  -12.5404    4.2709 H   0  0  0  0  0  0  0  0  0  0  0  0
    0.4886   -9.7048    3.5696 H   0  0  0  0  0  0  0  0  0  0  0  0
    0.2646   -9.6337    5.3254 H   0  0  0  0  0  0  0  0  0  0  0  0
    1.5787   -7.8286    3.5560 H   0  0  0  0  0  0  0  0  0  0  0  0
    0.9928   -7.4819    5.0643 H   0  0  0  0  0  0  0  0  0  0  0  0
    1.5075   -6.4915    6.8529 H   0  0  0  0  0  0  0  0  0  0  0  0
    0.7581   -8.0663    6.8124 H   0  0  0  0  0  0  0  0  0  0  0  0
    2.0305   -6.7250    9.2629 H   0  0  0  0  0  0  0  0  0  0  0  0
   -0.0850   -5.8005    8.5365 H   0  0  0  0  0  0  0  0  0  0  0  0
   -0.2729   -6.7232   10.0101 H   0  0  0  0  0  0  0  0  0  0  0  0
   -0.8106   -7.3690    8.4059 H   0  0  0  0  0  0  0  0  0  0  0  0
    3.5108   -8.8079   11.0715 H   0  0  0  0  0  0  0  0  0  0  0  0
    3.8460   -7.6264    9.7275 H   0  0  0  0  0  0  0  0  0  0  0  0
    4.6106   -9.1782    9.8229 H   0  0  0  0  0  0  0  0  0  0  0  0
    2.0694  -11.2480    8.9749 H   0  0  0  0  0  0  0  0  0  0  0  0
    2.2025  -10.2240    7.3095 H   0  0  0  0  0  0  0  0  0  0  0  0
    3.8869  -10.0174    7.7286 H   0  0  0  0  0  0  0  0  0  0  0  0
    3.7665   -6.6043    8.0415 H   0  0  0  0  0  0  0  0  0  0  0  0
    4.9736   -7.7589    7.5978 H   0  0  0  0  0  0  0  0  0  0  0  0
    3.5315   -5.8573    5.9047 H   0  0  0  0  0  0  0  0  0  0  0  0
    6.2160   -5.9411    6.4068 H   0  0  0  0  0  0  0  0  0  0  0  0
    5.3039   -6.2013    3.3449 H   0  0  0  0  0  0  0  0  0  0  0  0
    2.0261  -10.6985    5.7791 H   0  0  0  0  0  0  0  0  0  0  0  0
  1  2  1  0
  1 47  1  0
  1 48  1  0
  1 49  1  0
  2  3  1  0
  3  4  2  0
  3  5  1  0
  5 46  1  0
  5  6  1  1
  5 12  1  0
  6  7  1  0
  6 50  1  0
  6 51  1  0
  7  8  1  0
  7 52  1  0
  7 53  1  0
  8  9  2  3
  8 54  1  0
  9 10  1  0
  9 11  1  0
 10 55  1  0
 10 56  1  0
 10 57  1  0
 11 58  1  0
 11 59  1  0
 11 60  1  0
 12 13  2  0
 12 14  1  0
 14 46  1  0
 14 15  1  6
 14 16  1  0
 15 61  1  0
 16 17  1  0
 17 27  1  0
 17 18  1  0
 17 62  1  6
 18 19  2  0
 18 20  1  1
 20 21  1  0
 20 63  1  0
 20 64  1  0
 45 21  1  6
 21 22  1  1
 21 23  1  0
 22 65  1  0
 22 66  1  0
 22 67  1  0
 23 24  1  0
 23 25  1  0
 23 68  1  6
 24 69  1  0
 25 26  1  0
 25 27  1  0
 25 70  1  6
 26 71  1  0
 27 32  1  1
 27 28  1  0
 28 29  1  0
 28 30  1  0
 28 96  1  1
 29 72  1  0
 29 73  1  0
 29 74  1  0
 30 31  1  0
 30 75  1  0
 30 76  1  0
 32 31  1  6
 31 77  1  0
 31 78  1  0
 32 45  1  0
 32 33  1  0
 33 41  1  1
 33 34  1  0
 33 42  1  0
 34 35  1  0
 34 79  1  0
 34 80  1  0
 35 36  1  0
 35 37  1  0
 35 81  1  1
 36 82  1  0
 36 83  1  0
 36 84  1  0
 37 38  1  0
 38 39  1  0
 38 40  1  1
 38 41  1  0
 39 85  1  0
 39 86  1  0
 39 87  1  0
 40 88  1  0
 41 89  1  0
 41 90  1  0
 42 43  1  0
 42 91  1  0
 42 92  1  0
 43 44  1  0
 43 45  1  0
 43 93  1  6
 44 94  1  0
 45 46  1  0
 46 95  1  6
M  CHG  1  28   1
M  END
>  <i_m_ct_stereo_status>  (210) 
1

>  <s_m_source_file>  (210) 
/var/tmp/pbs.5075288.sched01/tmpo2oug7hv/195455be7ie.sdf

>  <i_m_source_file_index>  (210) 
15

>  <i_lp_mmshare_version>  (210) 
48012

>  <i_f3d_flags>  (210) 
0

>  <s_epik_input>  (210) 
W0NIM11DKFtDSDNdKT1bQ0hdW0NIMl1bQ0gyXVtDQEBdKEMxPU8pKEMoPU8pT1tDSDNdKVtDQEBIXTJbQ0BAXTEoW09IXSlPW0NASF0zW1MrXShbTy1dKVtDSDJdW0NAXShbQ0gzXSkoW0NAQEhdKFtPSF0pW0NASF00W09IXSlbQ0BAXTI1W0NASF0oW09IXSlbQ0gyXVtDQF02KFtDQEBdNShbQ0BAXTM0NylbQ0gyXVtDSDJdTjdbQ0gzXSlbQ0gyXVtDQEBIXShbQ0gzXSlPW0NAQF0oW0NIM10pKFtPSF0pW0NIMl02

>  <s_epik_cmdline>  (210) 
J2VwaWtfcHl0aG9uJywgJy1waHQnLCAnMi4wJywgJy1waCcsICc3LjAnLCAnLXRuJywgJzgnLCAnLW1hJywgJzIwMCcsICctaW1hZScsICc8aW5maWxlLm1hZT4nLCAnLW9tYWUnLCAnPG91dGZpbGUubWFlPic=

>  <r_epik_Ionization_Penalty>  (210) 
0.0155337

>  <r_epik_Ionization_Penalty_Charging>  (210) 
0.0155303

>  <r_epik_Ionization_Penalty_Neutral>  (210) 
3.34686e-06

>  <r_epik_State_Penalty>  (210) 
0.0122095

>  <r_epik_Charging_Adjusted_Penalty>  (210) 
0.0277398

>  <i_epik_Tot_Q>  (210) 
1

>  <i_epik_Tot_abs_Q>  (210) 
3

>  <s_epik_Chemistry_Notes>  (210) 
This compound has an ester and may undergo hydrolysis at high or low pH. This compound contains an acetal/aminal-like group ( X-CH(R)-Y where X, Y are N, S, or O) that may be acid/base labile, releasing an aldehyde.

>  <s_lp_Force_Field>  (210) 
OPLS3e

>  <r_lp_Energy>  (210) 
154.518

>  <b_lp_Chiralities_Consistent>  (210) 
1

>  <s_lp_Variant>  (210) 
82:0-1

>  <s_i_glide_gridfile>  (210) 
pfpi4k_grid

>  <i_i_glide_lignum>  (210) 
15

>  <i_i_glide_rotatable_bonds>  (210) 
10

>  <r_i_docking_score>  (210) 
-3.43213

>  <r_i_glide_ligand_efficiency>  (210) 
-0.0746115

>  <r_i_glide_ligand_efficiency_sa>  (210) 
-0.267337

>  <r_i_glide_ligand_efficiency_ln>  (210) 
-0.710786

>  <r_i_glide_gscore>  (210) 
-3.43213

>  <r_i_glide_lipo>  (210) 
-0.0747782

>  <r_i_glide_hbond>  (210) 
-0.00233058

>  <r_i_glide_metal>  (210) 
-0

>  <r_i_glide_rewards>  (210) 
-0.523805

>  <r_i_glide_evdw>  (210) 
-26.6881

>  <r_i_glide_ecoul>  (210) 
-9.40445

>  <r_i_glide_erotb>  (210) 
0.0297164

>  <r_i_glide_esite>  (210) 
-0.115861

>  <r_i_glide_emodel>  (210) 
-49.2584

>  <r_i_glide_energy>  (210) 
-36.0925

>  <r_i_glide_einternal>  (210) 
1.90002

>  <r_i_glide_intrahb_reward>  (210) 
-0.5

>  <i_i_glide_confnum>  (210) 
4

>  <i_i_glide_posenum>  (210) 
29

>  <r_i_glide_eff_state_penalty>  (210) 
0

>  <ligand_id>  (210) 
82

>  <original_smiles>  (210) 
COC(=O)C1(CCC=C(C)C)C(=O)C2(O)OC3[S+]([O-])CC4(C)C(O)C(O)C35N(C)CCC53C5(CC(C)OC(C)(O)C5)CC(O)C43C21

>  <smiles>  (210) 
[H]OC12OC3([H])S(=O)C([H])([H])C4(C([H])([H])[H])C([H])(O[H])C([H])(O[H])C35C3(C([H])([H])C([H])([H])[N+]5([H])C([H])([H])[H])C5(C([H])([H])C([H])(C([H])([H])[H])OC(O[H])(C([H])([H])[H])C5([H])[H])C([H])([H])C([H])(O[H])C43C1([H])C(C(=O)OC([H])([H])[H])(C([H])([H])C([H])([H])C([H])=C(C([H])([H])[H])C([H])([H])[H])C2=O

$$$$
82:1:0
     RDKit          3D

 95101  0  0  1  0  0  0  0  0999 V2000
    6.2312   -2.5313    1.2501 C   0  0  0  0  0  0  0  0  0  0  0  0
    5.3887   -3.5637    1.7199 O   0  0  0  0  0  0  0  0  0  0  0  0
    4.5880   -3.3284    2.7874 C   0  0  0  0  0  0  0  0  0  0  0  0
    4.6837   -2.2971    3.4496 O   0  0  0  0  0  0  0  0  0  0  0  0
    3.5804   -4.4648    3.0544 C   0  0  1  0  0  0  0  0  0  0  0  0
    2.4394   -3.9020    3.9746 C   0  0  0  0  0  0  0  0  0  0  0  0
    1.4589   -2.8479    3.4098 C   0  0  0  0  0  0  0  0  0  0  0  0
    0.2687   -2.6283    4.3420 C   0  0  0  0  0  0  0  0  0  0  0  0
   -0.3772   -1.4790    4.6315 C   0  0  0  0  0  0  0  0  0  0  0  0
   -0.0366   -0.1138    4.0623 C   0  0  0  0  0  0  0  0  0  0  0  0
   -1.5550   -1.4616    5.5901 C   0  0  0  0  0  0  0  0  0  0  0  0
    3.0302   -5.0473    1.7112 C   0  0  0  0  0  0  0  0  0  0  0  0
    2.2080   -4.6667    0.8923 O   0  0  0  0  0  0  0  0  0  0  0  0
    3.8485   -6.3592    1.8461 C   0  0  2  0  0  0  0  0  0  0  0  0
    4.8591   -6.3720    0.8555 O   0  0  0  0  0  0  0  0  0  0  0  0
    2.9421   -7.4651    1.6999 O   0  0  0  0  0  0  0  0  0  0  0  0
    3.1720   -8.7301    2.3337 C   0  0  1  0  0  0  0  0  0  0  0  0
    4.8520   -9.4182    1.9746 S   0  0  0  0  0  0  0  0  0  0  0  0
    5.2047   -8.9927    0.5539 O   0  0  0  0  0  0  0  0  0  0  0  0
    5.9061   -8.3760    3.0855 C   0  0  0  0  0  0  0  0  0  0  0  0
    5.2530   -8.0973    4.4847 C   0  0  2  0  0  0  0  0  0  0  0  0
    6.5454   -7.6696    5.2635 C   0  0  0  0  0  0  0  0  0  0  0  0
    4.8905   -9.5402    5.0188 C   0  0  1  0  0  0  0  0  0  0  0  0
    5.0511   -9.7526    6.4135 O   0  0  0  0  0  0  0  0  0  0  0  0
    3.5531  -10.1156    4.4893 C   0  0  1  0  0  0  0  0  0  0  0  0
    2.9670  -11.0476    5.3831 O   0  0  0  0  0  0  0  0  0  0  0  0
    2.6326   -9.0094    3.8484 C   0  0  2  0  0  0  0  0  0  0  0  0
    1.2141   -9.4198    3.8138 N   0  0  0  0  0  0  0  0  0  0  0  0
    0.8302  -10.6345    3.0804 C   0  0  0  0  0  0  0  0  0  0  0  0
    0.4836   -8.2645    3.3959 C   0  0  0  0  0  0  0  0  0  0  0  0
    1.2844   -7.0537    3.8889 C   0  0  0  0  0  0  0  0  0  0  0  0
    2.5817   -7.6328    4.6663 C   0  0  1  0  0  0  0  0  0  0  0  0
    2.2693   -7.5480    6.2748 C   0  0  1  0  0  0  0  0  0  0  0  0
    1.0735   -6.5908    6.6083 C   0  0  0  0  0  0  0  0  0  0  0  0
    0.7019   -6.3963    8.0632 C   0  0  1  0  0  0  0  0  0  0  0  0
   -0.5226   -5.4821    8.1716 C   0  0  0  0  0  0  0  0  0  0  0  0
    0.4112   -7.6782    8.6080 O   0  0  0  0  0  0  0  0  0  0  0  0
    1.4550   -8.6110    8.5488 C   0  0  1  0  0  0  0  0  0  0  0  0
    2.5962   -8.1249    9.5082 C   0  0  0  0  0  0  0  0  0  0  0  0
    1.0026   -9.8624    9.0156 O   0  0  0  0  0  0  0  0  0  0  0  0
    1.8941   -8.8443    7.0675 C   0  0  0  0  0  0  0  0  0  0  0  0
    3.5588   -6.9115    6.8757 C   0  0  0  0  0  0  0  0  0  0  0  0
    4.1109   -6.0830    5.7725 C   0  0  1  0  0  0  0  0  0  0  0  0
    5.2799   -5.3495    6.0985 O   0  0  0  0  0  0  0  0  0  0  0  0
    4.0522   -6.9353    4.4912 C   0  0  1  0  0  0  0  0  0  0  0  0
    4.2298   -5.9206    3.2841 C   0  0  2  0  0  0  0  0  0  0  0  0
    6.8129   -2.8870    0.4080 H   0  0  0  0  0  0  0  0  0  0  0  0
    6.9229   -2.1892    2.0121 H   0  0  0  0  0  0  0  0  0  0  0  0
    5.6569   -1.6702    0.9178 H   0  0  0  0  0  0  0  0  0  0  0  0
    1.8372   -4.7033    4.3609 H   0  0  0  0  0  0  0  0  0  0  0  0
    2.8693   -3.4354    4.8657 H   0  0  0  0  0  0  0  0  0  0  0  0
    1.9821   -1.9232    3.1866 H   0  0  0  0  0  0  0  0  0  0  0  0
    1.0207   -3.1940    2.4799 H   0  0  0  0  0  0  0  0  0  0  0  0
   -0.0973   -3.5288    4.8095 H   0  0  0  0  0  0  0  0  0  0  0  0
   -0.8888    0.2772    3.5063 H   0  0  0  0  0  0  0  0  0  0  0  0
    0.8176   -0.1243    3.3901 H   0  0  0  0  0  0  0  0  0  0  0  0
    0.1779    0.5863    4.8700 H   0  0  0  0  0  0  0  0  0  0  0  0
   -2.4453   -1.0768    5.0928 H   0  0  0  0  0  0  0  0  0  0  0  0
   -1.3364   -0.8093    6.4342 H   0  0  0  0  0  0  0  0  0  0  0  0
   -1.7836   -2.4555    5.9754 H   0  0  0  0  0  0  0  0  0  0  0  0
    5.2916   -7.2179    0.8841 H   0  0  0  0  0  0  0  0  0  0  0  0
    2.5903   -9.3824    1.6757 H   0  0  0  0  0  0  0  0  0  0  0  0
    6.8181   -8.9727    3.1848 H   0  0  0  0  0  0  0  0  0  0  0  0
    6.2406   -7.4779    2.5918 H   0  0  0  0  0  0  0  0  0  0  0  0
    6.3840   -7.5537    6.3379 H   0  0  0  0  0  0  0  0  0  0  0  0
    6.9632   -6.7462    4.8596 H   0  0  0  0  0  0  0  0  0  0  0  0
    7.3327   -8.4254    5.1978 H   0  0  0  0  0  0  0  0  0  0  0  0
    5.6463  -10.2426    4.6613 H   0  0  0  0  0  0  0  0  0  0  0  0
    4.7789  -10.6366    6.6079 H   0  0  0  0  0  0  0  0  0  0  0  0
    3.7777  -10.8654    3.7250 H   0  0  0  0  0  0  0  0  0  0  0  0
    2.2139  -11.4279    4.9691 H   0  0  0  0  0  0  0  0  0  0  0  0
   -0.1940  -10.8938    3.3400 H   0  0  0  0  0  0  0  0  0  0  0  0
    1.4520  -11.4999    3.3185 H   0  0  0  0  0  0  0  0  0  0  0  0
    0.8444  -10.4753    2.0037 H   0  0  0  0  0  0  0  0  0  0  0  0
    0.3992   -8.2364    2.3065 H   0  0  0  0  0  0  0  0  0  0  0  0
   -0.5190   -8.2866    3.8133 H   0  0  0  0  0  0  0  0  0  0  0  0
    1.4774   -6.4713    3.0136 H   0  0  0  0  0  0  0  0  0  0  0  0
    0.6021   -6.3834    4.3847 H   0  0  0  0  0  0  0  0  0  0  0  0
    1.2510   -5.5827    6.2197 H   0  0  0  0  0  0  0  0  0  0  0  0
    0.1786   -6.9832    6.0982 H   0  0  0  0  0  0  0  0  0  0  0  0
    1.4896   -5.8821    8.6117 H   0  0  0  0  0  0  0  0  0  0  0  0
   -0.2965   -4.5103    7.7270 H   0  0  0  0  0  0  0  0  0  0  0  0
   -0.7780   -5.3131    9.2130 H   0  0  0  0  0  0  0  0  0  0  0  0
   -1.4115   -5.8486    7.6461 H   0  0  0  0  0  0  0  0  0  0  0  0
    2.2657   -8.2777   10.5440 H   0  0  0  0  0  0  0  0  0  0  0  0
    2.9211   -7.1047    9.3439 H   0  0  0  0  0  0  0  0  0  0  0  0
    3.4664   -8.7622    9.3541 H   0  0  0  0  0  0  0  0  0  0  0  0
    1.2365  -10.5672    8.4086 H   0  0  0  0  0  0  0  0  0  0  0  0
    1.0932   -9.3755    6.5280 H   0  0  0  0  0  0  0  0  0  0  0  0
    2.7318   -9.5206    7.1460 H   0  0  0  0  0  0  0  0  0  0  0  0
    3.3707   -6.2581    7.7052 H   0  0  0  0  0  0  0  0  0  0  0  0
    4.2928   -7.6430    7.2049 H   0  0  0  0  0  0  0  0  0  0  0  0
    3.4002   -5.2932    5.7120 H   0  0  0  0  0  0  0  0  0  0  0  0
    5.9741   -5.9539    6.2820 H   0  0  0  0  0  0  0  0  0  0  0  0
    5.3065   -5.6840    3.2745 H   0  0  0  0  0  0  0  0  0  0  0  0
  1  2  1  0
  1 47  1  0
  1 48  1  0
  1 49  1  0
  2  3  1  0
  3  4  2  0
  3  5  1  0
  5 46  1  0
  5  6  1  1
  5 12  1  0
  6  7  1  0
  6 50  1  0
  6 51  1  0
  7  8  1  0
  7 52  1  0
  7 53  1  0
  8  9  2  3
  8 54  1  0
  9 10  1  0
  9 11  1  0
 10 55  1  0
 10 56  1  0
 10 57  1  0
 11 58  1  0
 11 59  1  0
 11 60  1  0
 12 13  2  0
 12 14  1  0
 14 46  1  0
 14 15  1  6
 14 16  1  0
 15 61  1  0
 16 17  1  0
 17 27  1  0
 17 18  1  0
 17 62  1  6
 18 19  2  0
 18 20  1  1
 20 21  1  0
 20 63  1  0
 20 64  1  0
 45 21  1  1
 21 22  1  1
 21 23  1  0
 22 65  1  0
 22 66  1  0
 22 67  1  0
 23 24  1  0
 23 25  1  0
 23 68  1  6
 24 69  1  0
 25 26  1  0
 25 27  1  0
 25 70  1  6
 26 71  1  0
 27 32  1  0
 27 28  1  6
 28 29  1  0
 28 30  1  0
 29 72  1  0
 29 73  1  0
 29 74  1  0
 30 31  1  0
 30 75  1  0
 30 76  1  0
 32 31  1  6
 31 77  1  0
 31 78  1  0
 32 45  1  0
 32 33  1  0
 33 41  1  1
 33 34  1  0
 33 42  1  0
 34 35  1  0
 34 79  1  0
 34 80  1  0
 35 36  1  0
 35 37  1  0
 35 81  1  1
 36 82  1  0
 36 83  1  0
 36 84  1  0
 37 38  1  0
 38 39  1  0
 38 40  1  1
 38 41  1  0
 39 85  1  0
 39 86  1  0
 39 87  1  0
 40 88  1  0
 41 89  1  0
 41 90  1  0
 42 43  1  0
 42 91  1  0
 42 92  1  0
 43 44  1  0
 43 45  1  0
 43 93  1  6
 44 94  1  0
 45 46  1  0
 46 95  1  6
M  END
>  <i_m_ct_stereo_status>  (211) 
1

>  <s_m_source_file>  (211) 
/var/tmp/pbs.5075288.sched01/tmpo2oug7hv/195455be7ie.sdf

>  <i_m_source_file_index>  (211) 
16

>  <i_lp_mmshare_version>  (211) 
48012

>  <i_f3d_flags>  (211) 
0

>  <s_epik_input>  (211) 
W0NIM11DKFtDSDNdKT1bQ0hdW0NIMl1bQ0gyXVtDQEBdKEMxPU8pKEMoPU8pT1tDSDNdKVtDQEBIXTJbQ0BAXTEoW09IXSlPW0NASF0zW1MrXShbTy1dKVtDSDJdW0NAXShbQ0gzXSkoW0NAQEhdKFtPSF0pW0NASF00W09IXSlbQ0BAXTI1W0NASF0oW09IXSlbQ0gyXVtDQF02KFtDQEBdNShbQ0BAXTM0NylbQ0gyXVtDSDJdTjdbQ0gzXSlbQ0gyXVtDQEBIXShbQ0gzXSlPW0NAQF0oW0NIM10pKFtPSF0pW0NIMl02

>  <s_epik_cmdline>  (211) 
J2VwaWtfcHl0aG9uJywgJy1waHQnLCAnMi4wJywgJy1waCcsICc3LjAnLCAnLXRuJywgJzgnLCAnLW1hJywgJzIwMCcsICctaW1hZScsICc8aW5maWxlLm1hZT4nLCAnLW9tYWUnLCAnPG91dGZpbGUubWFlPic=

>  <r_epik_Ionization_Penalty>  (211) 
2.16531

>  <r_epik_Ionization_Penalty_Charging>  (211) 
0

>  <r_epik_Ionization_Penalty_Neutral>  (211) 
2.16531

>  <r_epik_State_Penalty>  (211) 
2.30619

>  <r_epik_Charging_Adjusted_Penalty>  (211) 
2.30619

>  <i_epik_Tot_Q>  (211) 
0

>  <i_epik_Tot_abs_Q>  (211) 
2

>  <s_epik_Chemistry_Notes>  (211) 
This compound has an ester and may undergo hydrolysis at high or low pH. This compound contains an acetal/aminal-like group ( X-CH(R)-Y where X, Y are N, S, or O) that may be acid/base labile, releasing an aldehyde.

>  <s_lp_Force_Field>  (211) 
OPLS3e

>  <r_lp_Energy>  (211) 
154.374

>  <b_lp_Chiralities_Consistent>  (211) 
1

>  <s_lp_Variant>  (211) 
82:0-2

>  <s_i_glide_gridfile>  (211) 
pfpi4k_grid

>  <i_i_glide_lignum>  (211) 
16

>  <i_i_glide_rotatable_bonds>  (211) 
10

>  <r_i_docking_score>  (211) 
-3.31436

>  <r_i_glide_ligand_efficiency>  (211) 
-0.0720513

>  <r_i_glide_ligand_efficiency_sa>  (211) 
-0.258163

>  <r_i_glide_ligand_efficiency_ln>  (211) 
-0.686396

>  <r_i_glide_gscore>  (211) 
-3.31436

>  <r_i_glide_lipo>  (211) 
-0.378651

>  <r_i_glide_hbond>  (211) 
-0.0149758

>  <r_i_glide_metal>  (211) 
-0

>  <r_i_glide_rewards>  (211) 
-0.578652

>  <r_i_glide_evdw>  (211) 
-28.4729

>  <r_i_glide_ecoul>  (211) 
-5.78503

>  <r_i_glide_erotb>  (211) 
0.0307635

>  <r_i_glide_esite>  (211) 
-0.0814471

>  <r_i_glide_emodel>  (211) 
-43.4262

>  <r_i_glide_energy>  (211) 
-34.2579

>  <r_i_glide_einternal>  (211) 
4.59343

>  <r_i_glide_intrahb_reward>  (211) 
-0.5

>  <i_i_glide_confnum>  (211) 
3

>  <i_i_glide_posenum>  (211) 
1

>  <r_i_glide_eff_state_penalty>  (211) 
0

>  <ligand_id>  (211) 
82

>  <original_smiles>  (211) 
COC(=O)C1(CCC=C(C)C)C(=O)C2(O)OC3[S+]([O-])CC4(C)C(O)C(O)C35N(C)CCC53C5(CC(C)OC(C)(O)C5)CC(O)C43C21

>  <smiles>  (211) 
[H]OC12OC3([H])S(=O)C([H])([H])C4(C([H])([H])[H])C([H])(O[H])C([H])(O[H])C35N(C([H])([H])[H])C([H])([H])C([H])([H])C53C5(C([H])([H])C([H])(C([H])([H])[H])OC(O[H])(C([H])([H])[H])C5([H])[H])C([H])([H])C([H])(O[H])C43C1([H])C(C(=O)OC([H])([H])[H])(C([H])([H])C([H])([H])C([H])=C(C([H])([H])[H])C([H])([H])[H])C2=O

$$$$
82:1:1
     RDKit          3D

 95101  0  0  1  0  0  0  0  0999 V2000
    6.2838   -2.5757    1.2072 C   0  0  0  0  0  0  0  0  0  0  0  0
    5.4221   -3.5961    1.6687 O   0  0  0  0  0  0  0  0  0  0  0  0
    4.5804   -3.3202    2.6994 C   0  0  0  0  0  0  0  0  0  0  0  0
    4.6528   -2.2686    3.3193 O   0  0  0  0  0  0  0  0  0  0  0  0
    3.5757   -4.4585    2.9868 C   0  0  1  0  0  0  0  0  0  0  0  0
    2.3988   -3.8648    3.8571 C   0  0  0  0  0  0  0  0  0  0  0  0
    1.5683   -2.6680    3.3288 C   0  0  0  0  0  0  0  0  0  0  0  0
    0.3218   -2.4409    4.1825 C   0  0  0  0  0  0  0  0  0  0  0  0
   -0.2310   -1.2731    4.5769 C   0  0  0  0  0  0  0  0  0  0  0  0
    0.3015    0.1108    4.2390 C   0  0  0  0  0  0  0  0  0  0  0  0
   -1.4924   -1.2490    5.4193 C   0  0  0  0  0  0  0  0  0  0  0  0
    3.0877   -5.0574    1.6351 C   0  0  0  0  0  0  0  0  0  0  0  0
    2.3171   -4.6513    0.7456 O   0  0  0  0  0  0  0  0  0  0  0  0
    3.8722   -6.3831    1.8011 C   0  0  2  0  0  0  0  0  0  0  0  0
    4.8793   -6.3830    0.8154 O   0  0  0  0  0  0  0  0  0  0  0  0
    2.9677   -7.4833    1.6464 O   0  0  0  0  0  0  0  0  0  0  0  0
    3.1972   -8.7391    2.3018 C   0  0  1  0  0  0  0  0  0  0  0  0
    4.8905   -9.4198    1.9808 S   0  0  0  0  0  0  0  0  0  0  0  0
    5.2639   -9.0137    0.5588 O   0  0  0  0  0  0  0  0  0  0  0  0
    5.9206   -8.3464    3.0859 C   0  0  0  0  0  0  0  0  0  0  0  0
    5.2454   -8.0498    4.4701 C   0  0  2  0  0  0  0  0  0  0  0  0
    6.5218   -7.5990    5.2589 C   0  0  0  0  0  0  0  0  0  0  0  0
    4.8873   -9.4899    5.0274 C   0  0  1  0  0  0  0  0  0  0  0  0
    5.0101   -9.6662    6.4273 O   0  0  0  0  0  0  0  0  0  0  0  0
    3.5594  -10.0811    4.4953 C   0  0  1  0  0  0  0  0  0  0  0  0
    2.9841  -11.0169    5.3936 O   0  0  0  0  0  0  0  0  0  0  0  0
    2.6372   -8.9978    3.8153 C   0  0  2  0  0  0  0  0  0  0  0  0
    1.2255   -9.4209    3.7732 N   0  0  0  0  0  0  0  0  0  0  0  0
    0.8601  -10.6528    3.0607 C   0  0  0  0  0  0  0  0  0  0  0  0
    0.4896   -8.2823    3.3195 C   0  0  0  0  0  0  0  0  0  0  0  0
    1.2729   -7.0604    3.8054 C   0  0  0  0  0  0  0  0  0  0  0  0
    2.5669   -7.6087    4.6061 C   0  0  1  0  0  0  0  0  0  0  0  0
    2.2312   -7.5016    6.2156 C   0  0  1  0  0  0  0  0  0  0  0  0
    1.0226   -6.5475    6.5090 C   0  0  0  0  0  0  0  0  0  0  0  0
    0.6307   -6.3373    7.9588 C   0  0  1  0  0  0  0  0  0  0  0  0
   -0.6074   -5.4435    8.0335 C   0  0  0  0  0  0  0  0  0  0  0  0
    0.3481   -7.6177    8.5228 O   0  0  0  0  0  0  0  0  0  0  0  0
    1.4068   -8.5375    8.4972 C   0  0  1  0  0  0  0  0  0  0  0  0
    2.5250   -8.0093    9.4562 C   0  0  0  0  0  0  0  0  0  0  0  0
    0.9981   -9.7981    8.9968 O   0  0  0  0  0  0  0  0  0  0  0  0
    1.8592   -8.7863    7.0216 C   0  0  0  0  0  0  0  0  0  0  0  0
    3.5046   -6.8485    6.8231 C   0  0  0  0  0  0  0  0  0  0  0  0
    4.0659   -6.0340    5.7125 C   0  0  1  0  0  0  0  0  0  0  0  0
    5.2152   -5.2787    6.0396 O   0  0  0  0  0  0  0  0  0  0  0  0
    4.0324   -6.9081    4.4475 C   0  0  1  0  0  0  0  0  0  0  0  0
    4.2236   -5.9071    3.2428 C   0  0  2  0  0  0  0  0  0  0  0  0
    6.9219   -2.9646    0.4232 H   0  0  0  0  0  0  0  0  0  0  0  0
    6.9172   -2.1885    1.9982 H   0  0  0  0  0  0  0  0  0  0  0  0
    5.7192   -1.7403    0.8020 H   0  0  0  0  0  0  0  0  0  0  0  0
    1.6836   -4.6346    4.0949 H   0  0  0  0  0  0  0  0  0  0  0  0
    2.7842   -3.5069    4.8103 H   0  0  0  0  0  0  0  0  0  0  0  0
    2.1822   -1.7729    3.3236 H   0  0  0  0  0  0  0  0  0  0  0  0
    1.2464   -2.8375    2.3051 H   0  0  0  0  0  0  0  0  0  0  0  0
   -0.1737   -3.3483    4.4983 H   0  0  0  0  0  0  0  0  0  0  0  0
   -0.4445    0.6597    3.6645 H   0  0  0  0  0  0  0  0  0  0  0  0
    1.2179    0.0983    3.6553 H   0  0  0  0  0  0  0  0  0  0  0  0
    0.4930    0.6764    5.1519 H   0  0  0  0  0  0  0  0  0  0  0  0
   -2.2848   -0.7144    4.8950 H   0  0  0  0  0  0  0  0  0  0  0  0
   -1.3071   -0.7339    6.3607 H   0  0  0  0  0  0  0  0  0  0  0  0
   -1.8529   -2.2530    5.6442 H   0  0  0  0  0  0  0  0  0  0  0  0
    5.3269   -7.2248    0.8622 H   0  0  0  0  0  0  0  0  0  0  0  0
    2.6338   -9.4080    1.6490 H   0  0  0  0  0  0  0  0  0  0  0  0
    6.8386   -8.9305    3.2064 H   0  0  0  0  0  0  0  0  0  0  0  0
    6.2526   -7.4506    2.5816 H   0  0  0  0  0  0  0  0  0  0  0  0
    6.3444   -7.4662    6.3289 H   0  0  0  0  0  0  0  0  0  0  0  0
    6.9346   -6.6753    4.8456 H   0  0  0  0  0  0  0  0  0  0  0  0
    7.3195   -8.3455    5.2170 H   0  0  0  0  0  0  0  0  0  0  0  0
    5.6582  -10.1900    4.6932 H   0  0  0  0  0  0  0  0  0  0  0  0
    4.7984  -10.5709    6.6289 H   0  0  0  0  0  0  0  0  0  0  0  0
    3.8019  -10.8421    3.7502 H   0  0  0  0  0  0  0  0  0  0  0  0
    2.5122  -10.5628    6.0744 H   0  0  0  0  0  0  0  0  0  0  0  0
   -0.1697  -10.9192    3.3004 H   0  0  0  0  0  0  0  0  0  0  0  0
    1.4922  -11.5037    3.3292 H   0  0  0  0  0  0  0  0  0  0  0  0
    0.8954  -10.5160    1.9815 H   0  0  0  0  0  0  0  0  0  0  0  0
    0.4224   -8.2769    2.2285 H   0  0  0  0  0  0  0  0  0  0  0  0
   -0.5159   -8.3075    3.7242 H   0  0  0  0  0  0  0  0  0  0  0  0
    1.4680   -6.4940    2.9155 H   0  0  0  0  0  0  0  0  0  0  0  0
    0.5734   -6.3994    4.2768 H   0  0  0  0  0  0  0  0  0  0  0  0
    1.1920   -5.5471    6.0909 H   0  0  0  0  0  0  0  0  0  0  0  0
    0.1409   -6.9608    5.9999 H   0  0  0  0  0  0  0  0  0  0  0  0
    1.4035   -5.8012    8.5104 H   0  0  0  0  0  0  0  0  0  0  0  0
   -0.3989   -4.4786    7.5705 H   0  0  0  0  0  0  0  0  0  0  0  0
   -0.8819   -5.2547    9.0650 H   0  0  0  0  0  0  0  0  0  0  0  0
   -1.4750   -5.8521    7.5115 H   0  0  0  0  0  0  0  0  0  0  0  0
    2.1766   -8.1623   10.4898 H   0  0  0  0  0  0  0  0  0  0  0  0
    2.8382   -6.9979    9.2845 H   0  0  0  0  0  0  0  0  0  0  0  0
    3.3976   -8.6487    9.3322 H   0  0  0  0  0  0  0  0  0  0  0  0
    1.1171  -10.4957    8.3469 H   0  0  0  0  0  0  0  0  0  0  0  0
    1.0711   -9.3320    6.4857 H   0  0  0  0  0  0  0  0  0  0  0  0
    2.7073   -9.4401    7.1365 H   0  0  0  0  0  0  0  0  0  0  0  0
    3.2975   -6.1815    7.6320 H   0  0  0  0  0  0  0  0  0  0  0  0
    4.2455   -7.5644    7.1821 H   0  0  0  0  0  0  0  0  0  0  0  0
    3.3327   -5.2688    5.6227 H   0  0  0  0  0  0  0  0  0  0  0  0
    5.9223   -5.8675    6.2731 H   0  0  0  0  0  0  0  0  0  0  0  0
    5.2881   -5.6616    3.2221 H   0  0  0  0  0  0  0  0  0  0  0  0
  1  2  1  0
  1 47  1  0
  1 48  1  0
  1 49  1  0
  2  3  1  0
  3  4  2  0
  3  5  1  0
  5 46  1  0
  5  6  1  1
  5 12  1  0
  6  7  1  0
  6 50  1  0
  6 51  1  0
  7  8  1  0
  7 52  1  0
  7 53  1  0
  8  9  2  3
  8 54  1  0
  9 10  1  0
  9 11  1  0
 10 55  1  0
 10 56  1  0
 10 57  1  0
 11 58  1  0
 11 59  1  0
 11 60  1  0
 12 13  2  0
 12 14  1  0
 14 46  1  0
 14 15  1  6
 14 16  1  0
 15 61  1  0
 16 17  1  0
 17 27  1  0
 17 18  1  0
 17 62  1  6
 18 19  2  0
 18 20  1  1
 20 21  1  0
 20 63  1  0
 20 64  1  0
 45 21  1  1
 21 22  1  1
 21 23  1  0
 22 65  1  0
 22 66  1  0
 22 67  1  0
 23 24  1  0
 23 25  1  0
 23 68  1  6
 24 69  1  0
 25 26  1  0
 25 27  1  0
 25 70  1  6
 26 71  1  0
 27 32  1  0
 27 28  1  6
 28 29  1  0
 28 30  1  0
 29 72  1  0
 29 73  1  0
 29 74  1  0
 30 31  1  0
 30 75  1  0
 30 76  1  0
 32 31  1  6
 31 77  1  0
 31 78  1  0
 32 45  1  0
 32 33  1  0
 33 41  1  1
 33 34  1  0
 33 42  1  0
 34 35  1  0
 34 79  1  0
 34 80  1  0
 35 36  1  0
 35 37  1  0
 35 81  1  1
 36 82  1  0
 36 83  1  0
 36 84  1  0
 37 38  1  0
 38 39  1  0
 38 40  1  1
 38 41  1  0
 39 85  1  0
 39 86  1  0
 39 87  1  0
 40 88  1  0
 41 89  1  0
 41 90  1  0
 42 43  1  0
 42 91  1  0
 42 92  1  0
 43 44  1  0
 43 45  1  0
 43 93  1  6
 44 94  1  0
 45 46  1  0
 46 95  1  6
M  END
>  <i_m_ct_stereo_status>  (212) 
1

>  <s_m_source_file>  (212) 
/var/tmp/pbs.5075288.sched01/tmpo2oug7hv/195455be7ie.sdf

>  <i_m_source_file_index>  (212) 
16

>  <i_lp_mmshare_version>  (212) 
48012

>  <i_f3d_flags>  (212) 
0

>  <s_epik_input>  (212) 
W0NIM11DKFtDSDNdKT1bQ0hdW0NIMl1bQ0gyXVtDQEBdKEMxPU8pKEMoPU8pT1tDSDNdKVtDQEBIXTJbQ0BAXTEoW09IXSlPW0NASF0zW1MrXShbTy1dKVtDSDJdW0NAXShbQ0gzXSkoW0NAQEhdKFtPSF0pW0NASF00W09IXSlbQ0BAXTI1W0NASF0oW09IXSlbQ0gyXVtDQF02KFtDQEBdNShbQ0BAXTM0NylbQ0gyXVtDSDJdTjdbQ0gzXSlbQ0gyXVtDQEBIXShbQ0gzXSlPW0NAQF0oW0NIM10pKFtPSF0pW0NIMl02

>  <s_epik_cmdline>  (212) 
J2VwaWtfcHl0aG9uJywgJy1waHQnLCAnMi4wJywgJy1waCcsICc3LjAnLCAnLXRuJywgJzgnLCAnLW1hJywgJzIwMCcsICctaW1hZScsICc8aW5maWxlLm1hZT4nLCAnLW9tYWUnLCAnPG91dGZpbGUubWFlPic=

>  <r_epik_Ionization_Penalty>  (212) 
2.16531

>  <r_epik_Ionization_Penalty_Charging>  (212) 
0

>  <r_epik_Ionization_Penalty_Neutral>  (212) 
2.16531

>  <r_epik_State_Penalty>  (212) 
2.30619

>  <r_epik_Charging_Adjusted_Penalty>  (212) 
2.30619

>  <i_epik_Tot_Q>  (212) 
0

>  <i_epik_Tot_abs_Q>  (212) 
2

>  <s_epik_Chemistry_Notes>  (212) 
This compound has an ester and may undergo hydrolysis at high or low pH. This compound contains an acetal/aminal-like group ( X-CH(R)-Y where X, Y are N, S, or O) that may be acid/base labile, releasing an aldehyde.

>  <s_lp_Force_Field>  (212) 
OPLS3e

>  <r_lp_Energy>  (212) 
154.374

>  <b_lp_Chiralities_Consistent>  (212) 
1

>  <s_lp_Variant>  (212) 
82:0-2

>  <s_i_glide_gridfile>  (212) 
pfpi4k_grid

>  <i_i_glide_lignum>  (212) 
16

>  <i_i_glide_rotatable_bonds>  (212) 
10

>  <r_i_docking_score>  (212) 
-3.29639

>  <r_i_glide_ligand_efficiency>  (212) 
-0.0716607

>  <r_i_glide_ligand_efficiency_sa>  (212) 
-0.256764

>  <r_i_glide_ligand_efficiency_ln>  (212) 
-0.682675

>  <r_i_glide_gscore>  (212) 
-3.29639

>  <r_i_glide_lipo>  (212) 
-0.386921

>  <r_i_glide_hbond>  (212) 
-0.00589324

>  <r_i_glide_metal>  (212) 
-0

>  <r_i_glide_rewards>  (212) 
-0.582891

>  <r_i_glide_evdw>  (212) 
-28.4201

>  <r_i_glide_ecoul>  (212) 
-5.69267

>  <r_i_glide_erotb>  (212) 
0.0307635

>  <r_i_glide_esite>  (212) 
-0.0765452

>  <r_i_glide_emodel>  (212) 
-42.8134

>  <r_i_glide_energy>  (212) 
-34.1128

>  <r_i_glide_einternal>  (212) 
3.8568

>  <r_i_glide_intrahb_reward>  (212) 
-0.5

>  <i_i_glide_confnum>  (212) 
3

>  <i_i_glide_posenum>  (212) 
18

>  <r_i_glide_eff_state_penalty>  (212) 
0

>  <ligand_id>  (212) 
82

>  <original_smiles>  (212) 
COC(=O)C1(CCC=C(C)C)C(=O)C2(O)OC3[S+]([O-])CC4(C)C(O)C(O)C35N(C)CCC53C5(CC(C)OC(C)(O)C5)CC(O)C43C21

>  <smiles>  (212) 
[H]OC12OC3([H])S(=O)C([H])([H])C4(C([H])([H])[H])C([H])(O[H])C([H])(O[H])C35N(C([H])([H])[H])C([H])([H])C([H])([H])C53C5(C([H])([H])C([H])(C([H])([H])[H])OC(O[H])(C([H])([H])[H])C5([H])[H])C([H])([H])C([H])(O[H])C43C1([H])C(C(=O)OC([H])([H])[H])(C([H])([H])C([H])([H])C([H])=C(C([H])([H])[H])C([H])([H])[H])C2=O

$$$$
82:1:2
     RDKit          3D

 95101  0  0  1  0  0  0  0  0999 V2000
    6.2433   -2.5496    1.2130 C   0  0  0  0  0  0  0  0  0  0  0  0
    5.3985   -3.5783    1.6870 O   0  0  0  0  0  0  0  0  0  0  0  0
    4.5886   -3.3311    2.7472 C   0  0  0  0  0  0  0  0  0  0  0  0
    4.6835   -2.2905    3.3946 O   0  0  0  0  0  0  0  0  0  0  0  0
    3.5882   -4.4664    3.0347 C   0  0  1  0  0  0  0  0  0  0  0  0
    2.4261   -3.8823    3.9248 C   0  0  0  0  0  0  0  0  0  0  0  0
    1.5609   -2.7112    3.3927 C   0  0  0  0  0  0  0  0  0  0  0  0
    0.3102   -2.5137    4.2475 C   0  0  0  0  0  0  0  0  0  0  0  0
   -0.2929   -1.3613    4.6108 C   0  0  0  0  0  0  0  0  0  0  0  0
    0.1745    0.0332    4.2280 C   0  0  0  0  0  0  0  0  0  0  0  0
   -1.5501   -1.3687    5.4604 C   0  0  0  0  0  0  0  0  0  0  0  0
    3.0833   -5.0570    1.6833 C   0  0  0  0  0  0  0  0  0  0  0  0
    2.3101   -4.6422    0.8050 O   0  0  0  0  0  0  0  0  0  0  0  0
    3.8672   -6.3825    1.8318 C   0  0  2  0  0  0  0  0  0  0  0  0
    4.8702   -6.3808    0.8410 O   0  0  0  0  0  0  0  0  0  0  0  0
    2.9585   -7.4813    1.6777 O   0  0  0  0  0  0  0  0  0  0  0  0
    3.1901   -8.7414    2.3198 C   0  0  1  0  0  0  0  0  0  0  0  0
    4.8716   -9.4413    1.9853 S   0  0  0  0  0  0  0  0  0  0  0  0
    5.2336   -9.0100    0.5571 O   0  0  0  0  0  0  0  0  0  0  0  0
    5.9145   -8.3709    3.0815 C   0  0  0  0  0  0  0  0  0  0  0  0
    5.2561   -8.0810    4.4765 C   0  0  2  0  0  0  0  0  0  0  0  0
    6.5438   -7.6375    5.2583 C   0  0  0  0  0  0  0  0  0  0  0  0
    4.8944   -9.5179    5.0293 C   0  0  1  0  0  0  0  0  0  0  0  0
    5.0622   -9.6873    6.4261 O   0  0  0  0  0  0  0  0  0  0  0  0
    3.5556  -10.0951    4.5021 C   0  0  1  0  0  0  0  0  0  0  0  0
    2.9504  -11.0404    5.3661 O   0  0  0  0  0  0  0  0  0  0  0  0
    2.6406   -9.0043    3.8347 C   0  0  2  0  0  0  0  0  0  0  0  0
    1.2262   -9.4196    3.7991 N   0  0  0  0  0  0  0  0  0  0  0  0
    0.8497  -10.6470    3.0827 C   0  0  0  0  0  0  0  0  0  0  0  0
    0.4891   -8.2756    3.3655 C   0  0  0  0  0  0  0  0  0  0  0  0
    1.2817   -7.0604    3.8543 C   0  0  0  0  0  0  0  0  0  0  0  0
    2.5820   -7.6227    4.6392 C   0  0  1  0  0  0  0  0  0  0  0  0
    2.2597   -7.5278    6.2533 C   0  0  1  0  0  0  0  0  0  0  0  0
    1.0585   -6.5712    6.5659 C   0  0  0  0  0  0  0  0  0  0  0  0
    0.6759   -6.3651    8.0154 C   0  0  1  0  0  0  0  0  0  0  0  0
   -0.5550   -5.4553    8.1126 C   0  0  0  0  0  0  0  0  0  0  0  0
    0.3900   -7.6478    8.5724 O   0  0  0  0  0  0  0  0  0  0  0  0
    1.4366   -8.5782    8.5300 C   0  0  1  0  0  0  0  0  0  0  0  0
    2.5735   -8.0708    9.4867 C   0  0  0  0  0  0  0  0  0  0  0  0
    0.9904   -9.8350    9.0129 O   0  0  0  0  0  0  0  0  0  0  0  0
    1.8883   -8.8210    7.0536 C   0  0  0  0  0  0  0  0  0  0  0  0
    3.5413   -6.8811    6.8560 C   0  0  0  0  0  0  0  0  0  0  0  0
    4.0982   -6.0642    5.7449 C   0  0  1  0  0  0  0  0  0  0  0  0
    5.2548   -5.3161    6.0720 O   0  0  0  0  0  0  0  0  0  0  0  0
    4.0520   -6.9285    4.4708 C   0  0  1  0  0  0  0  0  0  0  0  0
    4.2353   -5.9229    3.2749 C   0  0  2  0  0  0  0  0  0  0  0  0
    6.8453   -2.9190    0.3913 H   0  0  0  0  0  0  0  0  0  0  0  0
    6.9149   -2.1850    1.9835 H   0  0  0  0  0  0  0  0  0  0  0  0
    5.6667   -1.7015    0.8516 H   0  0  0  0  0  0  0  0  0  0  0  0
    1.7387   -4.6611    4.2002 H   0  0  0  0  0  0  0  0  0  0  0  0
    2.8303   -3.5009    4.8603 H   0  0  0  0  0  0  0  0  0  0  0  0
    2.1529   -1.8020    3.3626 H   0  0  0  0  0  0  0  0  0  0  0  0
    1.2257   -2.9059    2.3804 H   0  0  0  0  0  0  0  0  0  0  0  0
   -0.1458   -3.4321    4.5879 H   0  0  0  0  0  0  0  0  0  0  0  0
   -0.6001    0.5326    3.6456 H   0  0  0  0  0  0  0  0  0  0  0  0
    1.0859    0.0402    3.6362 H   0  0  0  0  0  0  0  0  0  0  0  0
    0.3485    0.6313    5.1232 H   0  0  0  0  0  0  0  0  0  0  0  0
   -2.3689   -0.8820    4.9302 H   0  0  0  0  0  0  0  0  0  0  0  0
   -1.3826   -0.8216    6.3867 H   0  0  0  0  0  0  0  0  0  0  0  0
   -1.8654   -2.3811    5.7129 H   0  0  0  0  0  0  0  0  0  0  0  0
    5.3080   -7.2234    0.8751 H   0  0  0  0  0  0  0  0  0  0  0  0
    2.6133   -9.3991    1.6696 H   0  0  0  0  0  0  0  0  0  0  0  0
    6.8310   -8.9553    3.1906 H   0  0  0  0  0  0  0  0  0  0  0  0
    6.2482   -7.4730    2.5841 H   0  0  0  0  0  0  0  0  0  0  0  0
    6.3790   -7.5036    6.3308 H   0  0  0  0  0  0  0  0  0  0  0  0
    6.9567   -6.7132    4.8475 H   0  0  0  0  0  0  0  0  0  0  0  0
    7.3387   -8.3855    5.2015 H   0  0  0  0  0  0  0  0  0  0  0  0
    5.6531  -10.2218    4.6810 H   0  0  0  0  0  0  0  0  0  0  0  0
    5.9748   -9.5812    6.6349 H   0  0  0  0  0  0  0  0  0  0  0  0
    3.7930  -10.8518    3.7523 H   0  0  0  0  0  0  0  0  0  0  0  0
    2.5879  -10.6032    6.1173 H   0  0  0  0  0  0  0  0  0  0  0  0
   -0.1755  -10.9138    3.3354 H   0  0  0  0  0  0  0  0  0  0  0  0
    1.4827  -11.5016    3.3389 H   0  0  0  0  0  0  0  0  0  0  0  0
    0.8746  -10.5024    2.0034 H   0  0  0  0  0  0  0  0  0  0  0  0
    0.4119   -8.2599    2.2751 H   0  0  0  0  0  0  0  0  0  0  0  0
   -0.5136   -8.3006    3.7796 H   0  0  0  0  0  0  0  0  0  0  0  0
    1.4760   -6.4886    2.9700 H   0  0  0  0  0  0  0  0  0  0  0  0
    0.5909   -6.3988    4.3345 H   0  0  0  0  0  0  0  0  0  0  0  0
    1.2318   -5.5682    6.1568 H   0  0  0  0  0  0  0  0  0  0  0  0
    0.1686   -6.9750    6.0651 H   0  0  0  0  0  0  0  0  0  0  0  0
    1.4597   -5.8438    8.5669 H   0  0  0  0  0  0  0  0  0  0  0  0
   -0.3252   -4.4867    7.6650 H   0  0  0  0  0  0  0  0  0  0  0  0
   -0.8131   -5.2824    9.1524 H   0  0  0  0  0  0  0  0  0  0  0  0
   -1.4392   -5.8230    7.5866 H   0  0  0  0  0  0  0  0  0  0  0  0
    2.2384   -8.2208   10.5267 H   0  0  0  0  0  0  0  0  0  0  0  0
    2.8916   -7.0612    9.3235 H   0  0  0  0  0  0  0  0  0  0  0  0
    3.4476   -8.7099    9.3467 H   0  0  0  0  0  0  0  0  0  0  0  0
    1.1841  -10.5399    8.3931 H   0  0  0  0  0  0  0  0  0  0  0  0
    1.0949   -9.3566    6.5173 H   0  0  0  0  0  0  0  0  0  0  0  0
    2.7373   -9.4802    7.1506 H   0  0  0  0  0  0  0  0  0  0  0  0
    3.3485   -6.2190    7.6686 H   0  0  0  0  0  0  0  0  0  0  0  0
    4.2788   -7.6052    7.2028 H   0  0  0  0  0  0  0  0  0  0  0  0
    3.3707   -5.2919    5.6718 H   0  0  0  0  0  0  0  0  0  0  0  0
    5.9581   -5.9094    6.2881 H   0  0  0  0  0  0  0  0  0  0  0  0
    5.2992   -5.6775    3.2484 H   0  0  0  0  0  0  0  0  0  0  0  0
  1  2  1  0
  1 47  1  0
  1 48  1  0
  1 49  1  0
  2  3  1  0
  3  4  2  0
  3  5  1  0
  5 46  1  0
  5  6  1  1
  5 12  1  0
  6  7  1  0
  6 50  1  0
  6 51  1  0
  7  8  1  0
  7 52  1  0
  7 53  1  0
  8  9  2  3
  8 54  1  0
  9 10  1  0
  9 11  1  0
 10 55  1  0
 10 56  1  0
 10 57  1  0
 11 58  1  0
 11 59  1  0
 11 60  1  0
 12 13  2  0
 12 14  1  0
 14 46  1  0
 14 15  1  6
 14 16  1  0
 15 61  1  0
 16 17  1  0
 17 27  1  0
 17 18  1  0
 17 62  1  6
 18 19  2  0
 18 20  1  1
 20 21  1  0
 20 63  1  0
 20 64  1  0
 45 21  1  1
 21 22  1  1
 21 23  1  0
 22 65  1  0
 22 66  1  0
 22 67  1  0
 23 24  1  0
 23 25  1  0
 23 68  1  6
 24 69  1  0
 25 26  1  0
 25 27  1  0
 25 70  1  6
 26 71  1  0
 27 32  1  0
 27 28  1  6
 28 29  1  0
 28 30  1  0
 29 72  1  0
 29 73  1  0
 29 74  1  0
 30 31  1  0
 30 75  1  0
 30 76  1  0
 32 31  1  6
 31 77  1  0
 31 78  1  0
 32 45  1  0
 32 33  1  0
 33 41  1  1
 33 34  1  0
 33 42  1  0
 34 35  1  0
 34 79  1  0
 34 80  1  0
 35 36  1  0
 35 37  1  0
 35 81  1  1
 36 82  1  0
 36 83  1  0
 36 84  1  0
 37 38  1  0
 38 39  1  0
 38 40  1  1
 38 41  1  0
 39 85  1  0
 39 86  1  0
 39 87  1  0
 40 88  1  0
 41 89  1  0
 41 90  1  0
 42 43  1  0
 42 91  1  0
 42 92  1  0
 43 44  1  0
 43 45  1  0
 43 93  1  6
 44 94  1  0
 45 46  1  0
 46 95  1  6
M  END
>  <i_m_ct_stereo_status>  (213) 
1

>  <s_m_source_file>  (213) 
/var/tmp/pbs.5075288.sched01/tmpo2oug7hv/195455be7ie.sdf

>  <i_m_source_file_index>  (213) 
16

>  <i_lp_mmshare_version>  (213) 
48012

>  <i_f3d_flags>  (213) 
0

>  <s_epik_input>  (213) 
W0NIM11DKFtDSDNdKT1bQ0hdW0NIMl1bQ0gyXVtDQEBdKEMxPU8pKEMoPU8pT1tDSDNdKVtDQEBIXTJbQ0BAXTEoW09IXSlPW0NASF0zW1MrXShbTy1dKVtDSDJdW0NAXShbQ0gzXSkoW0NAQEhdKFtPSF0pW0NASF00W09IXSlbQ0BAXTI1W0NASF0oW09IXSlbQ0gyXVtDQF02KFtDQEBdNShbQ0BAXTM0NylbQ0gyXVtDSDJdTjdbQ0gzXSlbQ0gyXVtDQEBIXShbQ0gzXSlPW0NAQF0oW0NIM10pKFtPSF0pW0NIMl02

>  <s_epik_cmdline>  (213) 
J2VwaWtfcHl0aG9uJywgJy1waHQnLCAnMi4wJywgJy1waCcsICc3LjAnLCAnLXRuJywgJzgnLCAnLW1hJywgJzIwMCcsICctaW1hZScsICc8aW5maWxlLm1hZT4nLCAnLW9tYWUnLCAnPG91dGZpbGUubWFlPic=

>  <r_epik_Ionization_Penalty>  (213) 
2.16531

>  <r_epik_Ionization_Penalty_Charging>  (213) 
0

>  <r_epik_Ionization_Penalty_Neutral>  (213) 
2.16531

>  <r_epik_State_Penalty>  (213) 
2.30619

>  <r_epik_Charging_Adjusted_Penalty>  (213) 
2.30619

>  <i_epik_Tot_Q>  (213) 
0

>  <i_epik_Tot_abs_Q>  (213) 
2

>  <s_epik_Chemistry_Notes>  (213) 
This compound has an ester and may undergo hydrolysis at high or low pH. This compound contains an acetal/aminal-like group ( X-CH(R)-Y where X, Y are N, S, or O) that may be acid/base labile, releasing an aldehyde.

>  <s_lp_Force_Field>  (213) 
OPLS3e

>  <r_lp_Energy>  (213) 
154.374

>  <b_lp_Chiralities_Consistent>  (213) 
1

>  <s_lp_Variant>  (213) 
82:0-2

>  <s_i_glide_gridfile>  (213) 
pfpi4k_grid

>  <i_i_glide_lignum>  (213) 
16

>  <i_i_glide_rotatable_bonds>  (213) 
10

>  <r_i_docking_score>  (213) 
-3.21294

>  <r_i_glide_ligand_efficiency>  (213) 
-0.0698465

>  <r_i_glide_ligand_efficiency_sa>  (213) 
-0.250263

>  <r_i_glide_ligand_efficiency_ln>  (213) 
-0.665392

>  <r_i_glide_gscore>  (213) 
-3.21294

>  <r_i_glide_lipo>  (213) 
-0.382163

>  <r_i_glide_hbond>  (213) 
-0.00621719

>  <r_i_glide_metal>  (213) 
-0

>  <r_i_glide_rewards>  (213) 
-0.580494

>  <r_i_glide_evdw>  (213) 
-28.515

>  <r_i_glide_ecoul>  (213) 
-5.13074

>  <r_i_glide_erotb>  (213) 
0.0307635

>  <r_i_glide_esite>  (213) 
-0.0794679

>  <r_i_glide_emodel>  (213) 
-42.2975

>  <r_i_glide_energy>  (213) 
-33.6457

>  <r_i_glide_einternal>  (213) 
4.04463

>  <r_i_glide_intrahb_reward>  (213) 
-0.5

>  <i_i_glide_confnum>  (213) 
3

>  <i_i_glide_posenum>  (213) 
37

>  <r_i_glide_eff_state_penalty>  (213) 
0

>  <ligand_id>  (213) 
82

>  <original_smiles>  (213) 
COC(=O)C1(CCC=C(C)C)C(=O)C2(O)OC3[S+]([O-])CC4(C)C(O)C(O)C35N(C)CCC53C5(CC(C)OC(C)(O)C5)CC(O)C43C21

>  <smiles>  (213) 
[H]OC12OC3([H])S(=O)C([H])([H])C4(C([H])([H])[H])C([H])(O[H])C([H])(O[H])C35N(C([H])([H])[H])C([H])([H])C([H])([H])C53C5(C([H])([H])C([H])(C([H])([H])[H])OC(O[H])(C([H])([H])[H])C5([H])[H])C([H])([H])C([H])(O[H])C43C1([H])C(C(=O)OC([H])([H])[H])(C([H])([H])C([H])([H])C([H])=C(C([H])([H])[H])C([H])([H])[H])C2=O

$$$$
83:1:0
     RDKit          3D

126134  0  0  1  0  0  0  0  0999 V2000
    5.4914   -1.0718    6.5231 C   0  0  0  0  0  0  0  0  0  0  0  0
    5.1985   -2.3415    5.9511 O   0  0  0  0  0  0  0  0  0  0  0  0
    3.8398   -2.6415    5.8948 C   0  0  2  0  0  0  0  0  0  0  0  0
    3.3484   -3.1024    7.2104 C   0  0  0  0  0  0  0  0  0  0  0  0
    2.5213   -4.3537    6.9549 C   0  0  1  0  0  0  0  0  0  0  0  0
    2.0359   -4.3150    8.2796 O   0  0  0  0  0  0  0  0  0  0  0  0
    1.4042   -4.0029    5.8680 C   0  0  0  0  0  0  0  0  0  0  0  0
    1.7837   -4.6320    4.4337 C   0  0  2  0  0  0  0  0  0  0  0  0
    2.0610   -3.7606    3.0847 C   0  0  0  0  0  0  0  0  0  0  0  0
    3.5684   -3.7925    2.4101 C   0  0  2  0  0  0  0  0  0  0  0  0
    3.7374   -2.3517    1.8459 C   0  0  0  0  0  0  0  0  0  0  0  0
    3.3324   -4.7094    1.3409 O   0  0  0  0  0  0  0  0  0  0  0  0
    4.3207   -4.9966    0.3475 C   0  0  0  0  0  0  0  0  0  0  0  0
    4.0169   -6.4617    0.0225 C   0  0  0  0  0  0  0  0  0  0  0  0
    4.0456   -4.1279   -0.9020 C   0  0  0  0  0  0  0  0  0  0  0  0
    5.7723   -4.9190    0.8776 C   0  0  1  0  0  0  0  0  0  0  0  0
    6.3922   -3.6646    0.5804 O   0  0  0  0  0  0  0  0  0  0  0  0
    7.6834   -3.5678    0.2173 C   0  0  0  0  0  0  0  0  0  0  0  0
    8.1102   -2.1291   -0.0243 C   0  0  0  0  0  0  0  0  0  0  0  0
    8.4788   -4.4959    0.0808 O   0  0  0  0  0  0  0  0  0  0  0  0
    5.8130   -5.2719    2.3900 C   0  0  1  0  0  0  0  0  0  0  0  0
    7.1858   -5.3928    2.7895 O   0  0  0  0  0  0  0  0  0  0  0  0
    7.9179   -6.5102    2.6603 C   0  0  0  0  0  0  0  0  0  0  0  0
    9.2998   -6.3573    3.2840 C   0  0  0  0  0  0  0  0  0  0  0  0
    7.5378   -7.5759    2.1602 O   0  0  0  0  0  0  0  0  0  0  0  0
    4.8943   -4.3439    3.3317 C   0  0  1  0  0  0  0  0  0  0  0  0
    5.7152   -3.1806    3.3923 O   0  0  0  0  0  0  0  0  0  0  0  0
    4.5911   -4.9065    5.0605 C   0  0  1  0  0  0  0  0  0  0  0  0
    5.8668   -5.6924    5.3618 C   0  0  0  0  0  0  0  0  0  0  0  0
    3.5425   -5.5623    6.3866 C   0  0  2  0  0  0  0  0  0  0  0  0
    3.0386   -7.2697    6.6176 C   0  0  1  0  0  0  0  0  0  0  0  0
    3.7539   -7.6493    8.0234 C   0  0  1  0  0  0  0  0  0  0  0  0
    5.1314   -7.3715    8.1920 O   0  0  0  0  0  0  0  0  0  0  0  0
    3.2723   -6.9450    9.3214 C   0  0  0  0  0  0  0  0  0  0  0  0
    1.7734   -6.9404    9.6092 C   0  0  0  0  0  0  0  0  0  0  0  0
    0.9332   -6.7861    8.3437 C   0  0  0  0  0  0  0  0  0  0  0  0
   -0.1646   -6.2470    8.4371 O   0  0  0  0  0  0  0  0  0  0  0  0
    1.4524   -7.5304    7.0897 C   0  0  2  0  0  0  0  0  0  0  0  0
    1.0106   -8.9362    7.6969 C   0  0  0  0  0  0  0  0  0  0  0  0
    0.5497   -7.6434    5.9839 O   0  0  0  0  0  0  0  0  0  0  0  0
   -0.5060   -6.4552    5.3047 S   0  0  0  0  0  0  0  0  0  0  0  0
   -1.2549   -5.5188    6.2449 O   0  0  0  0  0  0  0  0  0  0  0  0
    0.6236   -5.6835    4.0456 C   0  0  2  0  0  0  0  0  0  0  0  0
    0.6450   -6.7688    2.9642 C   0  0  1  0  0  0  0  0  0  0  0  0
   -0.6126   -6.8172    2.1111 C   0  0  0  0  0  0  0  0  0  0  0  0
    1.7702   -7.0914    2.2053 O   0  0  0  0  0  0  0  0  0  0  0  0
    1.3747   -8.1084    3.1708 C   0  0  1  0  0  0  0  0  0  0  0  0
    2.6036   -8.7053    3.9578 C   0  0  2  0  0  0  0  0  0  0  0  0
    3.4508   -8.9868    2.8790 O   0  0  0  0  0  0  0  0  0  0  0  0
    2.0141   -9.9498    4.6262 C   0  0  1  0  0  0  0  0  0  0  0  0
    1.4952  -11.0039    3.8254 O   0  0  0  0  0  0  0  0  0  0  0  0
    3.2867  -10.1128    5.4697 C   0  0  1  0  0  0  0  0  0  0  0  0
    3.0909  -10.4937    6.7898 O   0  0  0  0  0  0  0  0  0  0  0  0
    4.3381  -11.2353    4.8769 C   0  0  0  0  0  0  0  0  0  0  0  0
    5.2274  -10.9530    3.6006 C   0  0  0  0  0  0  0  0  0  0  0  0
    3.7342  -12.6315    4.5475 C   0  0  0  0  0  0  0  0  0  0  0  0
    3.4221   -8.4602    5.4010 C   0  0  2  0  0  0  0  0  0  0  0  0
    4.8487   -8.2987    5.1467 O   0  0  0  0  0  0  0  0  0  0  0  0
    5.9605   -8.8549    5.8178 C   0  0  0  0  0  0  0  0  0  0  0  0
    7.2820   -8.4877    5.1028 C   0  0  0  0  0  0  0  0  0  0  0  0
    5.9294   -9.5596    6.8319 O   0  0  0  0  0  0  0  0  0  0  0  0
    3.1996   -5.1453    4.7669 C   0  0  2  0  0  0  0  0  0  0  0  0
    3.3965   -6.1127    3.7553 O   0  0  0  0  0  0  0  0  0  0  0  0
    3.4896   -3.5732    4.8323 O   0  0  0  0  0  0  0  0  0  0  0  0
    6.5688   -0.9437    6.5893 H   0  0  0  0  0  0  0  0  0  0  0  0
    5.0979   -0.9520    7.5333 H   0  0  0  0  0  0  0  0  0  0  0  0
    5.1110   -0.2534    5.9138 H   0  0  0  0  0  0  0  0  0  0  0  0
    3.3109   -1.7394    5.5734 H   0  0  0  0  0  0  0  0  0  0  0  0
    4.1941   -3.2723    7.8758 H   0  0  0  0  0  0  0  0  0  0  0  0
    2.7734   -2.2675    7.6194 H   0  0  0  0  0  0  0  0  0  0  0  0
    2.7719   -4.3465    8.8692 H   0  0  0  0  0  0  0  0  0  0  0  0
    0.4572   -4.2634    6.2844 H   0  0  0  0  0  0  0  0  0  0  0  0
    1.2601   -2.9289    5.7620 H   0  0  0  0  0  0  0  0  0  0  0  0
    1.3252   -3.9812    2.3072 H   0  0  0  0  0  0  0  0  0  0  0  0
    1.8249   -2.7297    3.3608 H   0  0  0  0  0  0  0  0  0  0  0  0
    3.7236   -1.6200    2.6520 H   0  0  0  0  0  0  0  0  0  0  0  0
    2.9249   -2.0950    1.1730 H   0  0  0  0  0  0  0  0  0  0  0  0
    4.6627   -2.1764    1.3093 H   0  0  0  0  0  0  0  0  0  0  0  0
    4.6173   -6.8448   -0.8018 H   0  0  0  0  0  0  0  0  0  0  0  0
    2.9820   -6.5264   -0.2769 H   0  0  0  0  0  0  0  0  0  0  0  0
    4.1464   -7.1295    0.8725 H   0  0  0  0  0  0  0  0  0  0  0  0
    4.6832   -4.4064   -1.7385 H   0  0  0  0  0  0  0  0  0  0  0  0
    4.1987   -3.0671   -0.7247 H   0  0  0  0  0  0  0  0  0  0  0  0
    3.0159   -4.2324   -1.2368 H   0  0  0  0  0  0  0  0  0  0  0  0
    6.3333   -5.6743    0.3254 H   0  0  0  0  0  0  0  0  0  0  0  0
    8.0058   -1.5325    0.8812 H   0  0  0  0  0  0  0  0  0  0  0  0
    7.4731   -1.7005   -0.7930 H   0  0  0  0  0  0  0  0  0  0  0  0
    9.1510   -2.0856   -0.3523 H   0  0  0  0  0  0  0  0  0  0  0  0
    5.4107   -6.2832    2.4565 H   0  0  0  0  0  0  0  0  0  0  0  0
    9.2502   -6.0156    4.3186 H   0  0  0  0  0  0  0  0  0  0  0  0
    9.8861   -5.6338    2.7237 H   0  0  0  0  0  0  0  0  0  0  0  0
    9.8285   -7.3058    3.2814 H   0  0  0  0  0  0  0  0  0  0  0  0
    5.3049   -2.5978    4.0113 H   0  0  0  0  0  0  0  0  0  0  0  0
    6.0474   -6.4064    4.5887 H   0  0  0  0  0  0  0  0  0  0  0  0
    5.9805   -6.1464    6.3322 H   0  0  0  0  0  0  0  0  0  0  0  0
    6.7155   -4.9964    5.3283 H   0  0  0  0  0  0  0  0  0  0  0  0
    4.2558   -5.4328    7.1964 H   0  0  0  0  0  0  0  0  0  0  0  0
    3.6867   -8.7173    8.1937 H   0  0  0  0  0  0  0  0  0  0  0  0
    5.2908   -6.4532    8.0637 H   0  0  0  0  0  0  0  0  0  0  0  0
    3.7451   -7.4362   10.1763 H   0  0  0  0  0  0  0  0  0  0  0  0
    3.6414   -5.9213    9.3649 H   0  0  0  0  0  0  0  0  0  0  0  0
    1.4786   -7.8644   10.1032 H   0  0  0  0  0  0  0  0  0  0  0  0
    1.5294   -6.1341   10.2988 H   0  0  0  0  0  0  0  0  0  0  0  0
    1.6459   -9.3211    8.4945 H   0  0  0  0  0  0  0  0  0  0  0  0
    0.8531   -9.7804    7.0479 H   0  0  0  0  0  0  0  0  0  0  0  0
   -0.0002   -8.9166    8.1188 H   0  0  0  0  0  0  0  0  0  0  0  0
   -0.1073   -4.9833    3.6713 H   0  0  0  0  0  0  0  0  0  0  0  0
   -1.4955   -7.0703    2.7016 H   0  0  0  0  0  0  0  0  0  0  0  0
   -0.5263   -7.5691    1.3234 H   0  0  0  0  0  0  0  0  0  0  0  0
   -0.7319   -5.8785    1.5931 H   0  0  0  0  0  0  0  0  0  0  0  0
    0.8206   -8.9210    2.6947 H   0  0  0  0  0  0  0  0  0  0  0  0
    3.2850   -9.9045    2.6382 H   0  0  0  0  0  0  0  0  0  0  0  0
    1.1613   -9.6343    5.1805 H   0  0  0  0  0  0  0  0  0  0  0  0
    2.2132  -11.5166    3.4960 H   0  0  0  0  0  0  0  0  0  0  0  0
    2.4428  -11.2299    6.7879 H   0  0  0  0  0  0  0  0  0  0  0  0
    5.0399  -11.4802    5.6872 H   0  0  0  0  0  0  0  0  0  0  0  0
    4.6143  -10.8372    2.6856 H   0  0  0  0  0  0  0  0  0  0  0  0
    5.9283  -11.7948    3.4637 H   0  0  0  0  0  0  0  0  0  0  0  0
    5.8600  -10.0681    3.6849 H   0  0  0  0  0  0  0  0  0  0  0  0
    3.2490  -12.6362    3.5718 H   0  0  0  0  0  0  0  0  0  0  0  0
    3.0413  -13.0121    5.2988 H   0  0  0  0  0  0  0  0  0  0  0  0
    4.5289  -13.3684    4.4176 H   0  0  0  0  0  0  0  0  0  0  0  0
    7.0255   -8.3433    4.0465 H   0  0  0  0  0  0  0  0  0  0  0  0
    8.0058   -9.2896    5.1943 H   0  0  0  0  0  0  0  0  0  0  0  0
    7.7446   -7.5699    5.4923 H   0  0  0  0  0  0  0  0  0  0  0  0
    3.0087   -5.8019    2.9569 H   0  0  0  0  0  0  0  0  0  0  0  0
  1  2  1  0
  1 65  1  0
  1 66  1  0
  1 67  1  0
  2  3  1  0
  3 64  1  0
  3  4  1  0
  3 68  1  6
  4  5  1  0
  4 69  1  0
  4 70  1  0
  5 30  1  0
  5  6  1  1
  5  7  1  0
  6 71  1  0
  7  8  1  0
  7 72  1  0
  7 73  1  0
  8 43  1  0
  8 62  1  0
  8  9  1  6
  9 10  1  0
  9 74  1  0
  9 75  1  0
 10 26  1  0
 10 11  1  6
 10 12  1  0
 11 76  1  0
 11 77  1  0
 11 78  1  0
 12 13  1  0
 13 14  1  0
 13 15  1  0
 13 16  1  0
 14 79  1  0
 14 80  1  0
 14 81  1  0
 15 82  1  0
 15 83  1  0
 15 84  1  0
 16 17  1  0
 16 21  1  0
 16 85  1  6
 17 18  1  0
 18 19  1  0
 18 20  2  0
 19 86  1  0
 19 87  1  0
 19 88  1  0
 21 22  1  0
 21 26  1  0
 21 89  1  6
 22 23  1  0
 23 24  1  0
 23 25  2  0
 24 90  1  0
 24 91  1  0
 24 92  1  0
 26 27  1  1
 26 28  1  0
 27 93  1  0
 28 29  1  1
 28 30  1  0
 28 62  1  0
 29 94  1  0
 29 95  1  0
 29 96  1  0
 30 31  1  0
 30 97  1  1
 31 38  1  1
 31 57  1  0
 31 32  1  0
 32 33  1  0
 32 34  1  0
 32 98  1  1
 33 99  1  0
 34 35  1  0
 34100  1  0
 34101  1  0
 35 36  1  0
 35102  1  0
 35103  1  0
 36 37  2  0
 36 38  1  0
 38 39  1  1
 38 40  1  0
 39104  1  0
 39105  1  0
 39106  1  0
 41 40  1  1
 41 42  2  0
 41 43  1  0
 43 44  1  0
 43107  1  6
 44 47  1  0
 44 45  1  6
 44 46  1  0
 45108  1  0
 45109  1  0
 45110  1  0
 46 47  1  0
 47 48  1  0
 47111  1  6
 48 57  1  0
 48 49  1  6
 48 50  1  0
 49112  1  0
 50 51  1  0
 50 52  1  0
 50113  1  1
 51114  1  0
 52 53  1  1
 52 54  1  0
 52 57  1  0
 53115  1  0
 54 55  1  0
 54 56  1  0
 54116  1  0
 55117  1  0
 55118  1  0
 55119  1  0
 56120  1  0
 56121  1  0
 56122  1  0
 57 58  1  6
 58 59  1  0
 59 60  1  0
 59 61  2  0
 60123  1  0
 60124  1  0
 60125  1  0
 62 63  1  1
 62 64  1  0
 63126  1  0
M  END
>  <i_m_ct_stereo_status>  (214) 
1

>  <s_m_source_file>  (214) 
/var/tmp/pbs.5075288.sched01/tmpo2oug7hv/195455be7ie.sdf

>  <i_m_source_file_index>  (214) 
18

>  <i_lp_mmshare_version>  (214) 
48012

>  <i_f3d_flags>  (214) 
0

>  <s_epik_input>  (214) 
W0NAQF0xMjNbQ0hdNFtDQF01KFtDSDNdKVtDQEBIXShPNSlbQ0BAXTYoW09IXSlbQ0BAXShbQ0BAXShbT0hdKShbQ0BASF02W09IXSlbQ0hdKFtDSDNdKVtDSDNdKShPQyg9TylbQ0gzXSlbQ0BdNyhbQ0BdKFtDSDNdKShPW1MrXTRbTy1dKUMoPU8pW0NIMl1bQ0gyXVtDQEBIXTdbT0hdKVtDQEBIXThbQ0BdKFtPSF0pKFtDSDJdMSlbQ0gyXVtDQEBIXShPW0NIM10pT1tDQEBdMyhbT0hdKUM4KFtDSDNdKVtDQF05KFtPSF0pW0NAQF0oW0NIMl0yKShbQ0gzXSlPQyhbQ0gzXSkoW0NIM10pW0NAQEhdKE9DKD1PKVtDSDNdKVtDQEhdOU9DKD1PKVtDSDNd

>  <s_epik_cmdline>  (214) 
J2VwaWtfcHl0aG9uJywgJy1waHQnLCAnMi4wJywgJy1waCcsICc3LjAnLCAnLXRuJywgJzgnLCAnLW1hJywgJzIwMCcsICctaW1hZScsICc8aW5maWxlLm1hZT4nLCAnLW9tYWUnLCAnPG91dGZpbGUubWFlPic=

>  <r_lp_tautomer_probability>  (214) 
1

>  <r_epik_Ionization_Penalty>  (214) 
9.26532e-06

>  <r_epik_Ionization_Penalty_Charging>  (214) 
0

>  <r_epik_Ionization_Penalty_Neutral>  (214) 
9.26532e-06

>  <r_epik_State_Penalty>  (214) 
-0

>  <r_epik_Charging_Adjusted_Penalty>  (214) 
0

>  <i_epik_Tot_Q>  (214) 
0

>  <i_epik_Tot_abs_Q>  (214) 
2

>  <s_epik_Chemistry_Notes>  (214) 
This compound has an ester and may undergo hydrolysis at high or low pH. This compound contains an acetal/aminal-like group ( X-CH(R)-Y where X, Y are N, S, or O) that may be acid/base labile, releasing an aldehyde.

>  <s_lp_Force_Field>  (214) 
OPLS3e

>  <r_lp_Energy>  (214) 
757.56

>  <b_lp_Chiralities_Consistent>  (214) 
1

>  <s_lp_Variant>  (214) 
83:0-2

>  <s_i_glide_gridfile>  (214) 
pfpi4k_grid

>  <i_i_glide_lignum>  (214) 
18

>  <i_i_glide_rotatable_bonds>  (214) 
15

>  <r_i_docking_score>  (214) 
-2.40542

>  <r_i_glide_ligand_efficiency>  (214) 
-0.0375847

>  <r_i_glide_ligand_efficiency_sa>  (214) 
-0.150339

>  <r_i_glide_ligand_efficiency_ln>  (214) 
-0.466268

>  <r_i_glide_gscore>  (214) 
-2.40542

>  <r_i_glide_lipo>  (214) 
-0.217074

>  <r_i_glide_hbond>  (214) 
-0.085666

>  <r_i_glide_metal>  (214) 
-0

>  <r_i_glide_rewards>  (214) 
-0.259499

>  <r_i_glide_evdw>  (214) 
-26.8616

>  <r_i_glide_ecoul>  (214) 
-8.56296

>  <r_i_glide_erotb>  (214) 
0.0765726

>  <r_i_glide_esite>  (214) 
-0.0402054

>  <r_i_glide_emodel>  (214) 
-30.1197

>  <r_i_glide_energy>  (214) 
-35.4245

>  <r_i_glide_einternal>  (214) 
9.07311

>  <r_i_glide_intrahb_reward>  (214) 
-0

>  <i_i_glide_confnum>  (214) 
4

>  <i_i_glide_posenum>  (214) 
9

>  <r_i_glide_eff_state_penalty>  (214) 
0

>  <ligand_id>  (214) 
83

>  <original_smiles>  (214) 
COC1CC2(O)CC34CC5(C)OC(C)(C)C(OC(C)=O)C(OC(C)=O)C5(O)C(C)(C2C25C(O)CCC(=O)C2(C)O[S+]([O-])C3C2(C)OC2C2(O)C(O)C(O)(C(C)C)C25OC(C)=O)C4(O)O1

>  <smiles>  (214) 
[H]OC1([H])C2(O[H])C3([H])OC3(C([H])([H])[H])C3([H])S(=O)OC4(C([H])([H])[H])C(=O)C([H])([H])C([H])([H])C([H])(O[H])C4(C4([H])C5(O[H])C([H])([H])C([H])(OC([H])([H])[H])OC6(O[H])C3(C5([H])[H])C([H])([H])C3(C([H])([H])[H])OC(C([H])([H])[H])(C([H])([H])[H])C([H])(OC(=O)C([H])([H])[H])C([H])(OC(=O)C([H])([H])[H])C3(O[H])C64C([H])([H])[H])C2(OC(=O)C([H])([H])[H])C1(O[H])C([H])(C([H])([H])[H])C([H])([H])[H]

$$$$
84:0:0
     RDKit          3D

 81 86  0  0  1  0  0  0  0  0999 V2000
    1.0957   -2.2883    8.0552 C   0  0  0  0  0  0  0  0  0  0  0  0
    1.8733   -1.4374    7.3555 C   0  0  0  0  0  0  0  0  0  0  0  0
    2.6400   -2.0327    6.0285 C   0  0  0  0  0  0  0  0  0  0  0  0
    2.1689   -1.6676    4.4650 C   0  0  2  0  0  0  0  0  0  0  0  0
    1.6899   -2.8596    3.7861 O   0  0  0  0  0  0  0  0  0  0  0  0
    2.4021   -4.0120    3.6847 C   0  0  0  0  0  0  0  0  0  0  0  0
    1.6302   -5.1269    2.9967 C   0  0  0  0  0  0  0  0  0  0  0  0
    3.5550   -4.1820    4.0817 O   0  0  0  0  0  0  0  0  0  0  0  0
    3.0800   -0.7991    3.4500 C   0  0  1  0  0  0  0  0  0  0  0  0
    3.3481   -1.6165    2.2897 O   0  0  0  0  0  0  0  0  0  0  0  0
    4.6205   -1.8785    1.8752 C   0  0  0  0  0  0  0  0  0  0  0  0
    4.6718   -2.8287    0.6880 C   0  0  0  0  0  0  0  0  0  0  0  0
    5.6586   -1.4252    2.3705 O   0  0  0  0  0  0  0  0  0  0  0  0
    2.5220    0.6507    2.9173 C   0  0  2  0  0  0  0  0  0  0  0  0
    3.4900    0.9336    1.9320 O   0  0  0  0  0  0  0  0  0  0  0  0
    2.4158    2.1061    3.7313 C   0  0  1  0  0  0  0  0  0  0  0  0
    2.5383    3.0633    2.6757 O   0  0  0  0  0  0  0  0  0  0  0  0
    1.2169    2.6917    4.7839 C   0  0  1  0  0  0  0  0  0  0  0  0
    1.1809    4.2463    4.5029 C   0  0  0  0  0  0  0  0  0  0  0  0
    0.1511    2.2444    4.0476 O   0  0  0  0  0  0  0  0  0  0  0  0
   -0.6957    1.1429    4.3571 C   0  0  1  0  0  0  0  0  0  0  0  0
   -1.2861    0.7166    5.7721 C   0  0  0  0  0  0  0  0  0  0  0  0
   -1.6993    1.7541    6.6311 O   0  0  0  0  0  0  0  0  0  0  0  0
   -0.9532    2.9146    6.3678 C   0  0  2  0  0  0  0  0  0  0  0  0
   -1.3612    3.8982    7.4934 C   0  0  0  0  0  0  0  0  0  0  0  0
   -1.8691    3.2252    5.0420 C   0  0  1  0  0  0  0  0  0  0  0  0
   -1.7239    4.5104    4.4562 O   0  0  0  0  0  0  0  0  0  0  0  0
   -1.8705    2.0558    3.9600 C   0  0  1  0  0  0  0  0  0  0  0  0
   -1.9475    2.5157    2.6216 O   0  0  0  0  0  0  0  0  0  0  0  0
    0.6769    2.5033    6.4034 C   0  0  2  0  0  0  0  0  0  0  0  0
    1.3265    3.6092    7.0171 O   0  0  0  0  0  0  0  0  0  0  0  0
    1.0662    1.3773    7.7042 C   0  0  1  0  0  0  0  0  0  0  0  0
   -0.0407    1.0684    8.5337 O   0  0  0  0  0  0  0  0  0  0  0  0
    2.0967    0.0556    7.9205 C   0  0  1  0  0  0  0  0  0  0  0  0
    2.3733   -0.0917    9.4505 C   0  0  0  0  0  0  0  0  0  0  0  0
    3.4031    0.4316    7.3605 C   0  0  0  0  0  0  0  0  0  0  0  0
    3.0368    0.6477    5.9338 C   0  0  0  0  0  0  0  0  0  0  0  0
    1.6141    0.2803    5.4697 O   0  0  0  0  0  0  0  0  0  0  0  0
    0.9863   -0.7960    4.7308 C   0  0  2  0  0  0  0  0  0  0  0  0
    0.0871   -1.6748    5.4015 O   0  0  0  0  0  0  0  0  0  0  0  0
   -0.0038   -0.1162    3.6759 C   0  0  2  0  0  0  0  0  0  0  0  0
    0.9005    0.2929    2.1130 S   0  0  0  0  0  0  0  0  0  0  0  0
    0.3810    1.6186    1.5546 O   0  0  0  0  0  0  0  0  0  0  0  0
    0.5673   -1.9825    8.9447 H   0  0  0  0  0  0  0  0  0  0  0  0
    0.9431   -3.3031    7.7161 H   0  0  0  0  0  0  0  0  0  0  0  0
    3.7203   -1.9062    6.1166 H   0  0  0  0  0  0  0  0  0  0  0  0
    2.5374   -3.1083    6.1587 H   0  0  0  0  0  0  0  0  0  0  0  0
    0.6837   -5.3097    3.5066 H   0  0  0  0  0  0  0  0  0  0  0  0
    2.2020   -6.0556    2.9940 H   0  0  0  0  0  0  0  0  0  0  0  0
    1.4279   -4.8511    1.9633 H   0  0  0  0  0  0  0  0  0  0  0  0
    4.0625   -0.6831    3.8898 H   0  0  0  0  0  0  0  0  0  0  0  0
    4.1250   -2.3994   -0.1516 H   0  0  0  0  0  0  0  0  0  0  0  0
    4.2234   -3.7894    0.9465 H   0  0  0  0  0  0  0  0  0  0  0  0
    5.7016   -3.0058    0.3757 H   0  0  0  0  0  0  0  0  0  0  0  0
    3.8297    1.8145    2.1015 H   0  0  0  0  0  0  0  0  0  0  0  0
    3.3961    2.3039    4.1487 H   0  0  0  0  0  0  0  0  0  0  0  0
    1.7227    3.0656    2.1777 H   0  0  0  0  0  0  0  0  0  0  0  0
    2.1726    4.6909    4.6050 H   0  0  0  0  0  0  0  0  0  0  0  0
    0.5364    4.8219    5.1629 H   0  0  0  0  0  0  0  0  0  0  0  0
    0.8071    4.4796    3.5012 H   0  0  0  0  0  0  0  0  0  0  0  0
   -2.1296    0.0392    5.6364 H   0  0  0  0  0  0  0  0  0  0  0  0
   -0.6204    0.1853    6.4122 H   0  0  0  0  0  0  0  0  0  0  0  0
   -0.9706    4.8972    7.2973 H   0  0  0  0  0  0  0  0  0  0  0  0
   -0.9920    3.5781    8.4703 H   0  0  0  0  0  0  0  0  0  0  0  0
   -2.4446    3.9746    7.5653 H   0  0  0  0  0  0  0  0  0  0  0  0
   -2.9016    3.2612    5.4005 H   0  0  0  0  0  0  0  0  0  0  0  0
   -0.9361    4.4717    3.9230 H   0  0  0  0  0  0  0  0  0  0  0  0
   -2.7895    1.4940    4.0788 H   0  0  0  0  0  0  0  0  0  0  0  0
   -1.0762    2.7848    2.3314 H   0  0  0  0  0  0  0  0  0  0  0  0
    2.2594    3.4437    6.9968 H   0  0  0  0  0  0  0  0  0  0  0  0
    1.5724    2.0155    8.4303 H   0  0  0  0  0  0  0  0  0  0  0  0
   -0.2803    1.8581    9.0017 H   0  0  0  0  0  0  0  0  0  0  0  0
    2.7838    0.8223    9.8832 H   0  0  0  0  0  0  0  0  0  0  0  0
    3.1009   -0.8851    9.6420 H   0  0  0  0  0  0  0  0  0  0  0  0
    1.4810   -0.3363   10.0300 H   0  0  0  0  0  0  0  0  0  0  0  0
    3.7972    1.3373    7.8292 H   0  0  0  0  0  0  0  0  0  0  0  0
    4.1665   -0.3339    7.5061 H   0  0  0  0  0  0  0  0  0  0  0  0
    3.0776    1.7272    6.0204 H   0  0  0  0  0  0  0  0  0  0  0  0
    3.9084    0.4634    5.3389 H   0  0  0  0  0  0  0  0  0  0  0  0
   -0.7287   -1.2201    5.5449 H   0  0  0  0  0  0  0  0  0  0  0  0
   -0.7712   -0.8390    3.4060 H   0  0  0  0  0  0  0  0  0  0  0  0
  1  2  2  0
  1 44  1  0
  1 45  1  0
  2 34  1  0
  2  3  1  0
  3  4  1  0
  3 46  1  0
  3 47  1  0
  4 39  1  0
  4  5  1  6
  4  9  1  0
  5  6  1  0
  6  7  1  0
  6  8  2  0
  7 48  1  0
  7 49  1  0
  7 50  1  0
  9 10  1  0
  9 14  1  0
  9 51  1  1
 10 11  1  0
 11 12  1  0
 11 13  2  0
 12 52  1  0
 12 53  1  0
 12 54  1  0
 42 14  1  1
 14 15  1  6
 14 16  1  0
 15 55  1  0
 16 17  1  0
 16 18  1  0
 16 56  1  1
 17 57  1  0
 18 30  1  0
 18 19  1  6
 18 20  1  0
 19 58  1  0
 19 59  1  0
 19 60  1  0
 20 21  1  0
 21 28  1  0
 21 41  1  0
 21 22  1  1
 22 23  1  0
 22 61  1  0
 22 62  1  0
 23 24  1  0
 24 25  1  1
 24 26  1  0
 24 30  1  0
 25 63  1  0
 25 64  1  0
 25 65  1  0
 26 27  1  0
 26 28  1  0
 26 66  1  1
 27 67  1  0
 28 29  1  0
 28 68  1  1
 29 69  1  0
 30 31  1  1
 30 32  1  0
 31 70  1  0
 32 33  1  0
 32 34  1  0
 32 71  1  1
 33 72  1  0
 34 35  1  1
 34 36  1  0
 35 73  1  0
 35 74  1  0
 35 75  1  0
 36 37  1  0
 36 76  1  0
 36 77  1  0
 37 38  1  0
 37 78  1  0
 37 79  1  0
 38 39  1  0
 39 40  1  1
 39 41  1  0
 40 80  1  0
 41 42  1  0
 41 81  1  6
 42 43  2  0
M  END
>  <i_m_ct_stereo_status>  (215) 
1

>  <s_m_source_file>  (215) 
/var/tmp/pbs.5075288.sched01/tmpo2oug7hv/195455be7ie.sdf

>  <i_m_source_file_index>  (215) 
19

>  <i_lp_mmshare_version>  (215) 
48012

>  <i_f3d_flags>  (215) 
0

>  <s_epik_input>  (215) 
W0NIM11DKD1PKU9bQ0BAXTEoW0NAXTIoW09IXSlbQ0BIXTNbQ0BdNDU2KVtDSDJdQyg9W0NIMl0pW0NAQF0oW0NIM10pKFtDSDJdW0NIMl1PMilbQ0BIXShbT0hdKVtDQF0oW09IXSkoW0NAXShbQ0gzXSkoT1tDSDJdNSlbQ0BASF0oW09IXSlbQ0BIXTZbT0hdKVtDQEBdKE80KShbQ0gzXSlbQ0BIXShbT0hdKVtDQF0oW09IXSkoW1MrXTNbTy1dKVtDQEBIXTFPQyg9TylbQ0gzXQ==

>  <s_epik_cmdline>  (215) 
J2VwaWtfcHl0aG9uJywgJy1waHQnLCAnMi4wJywgJy1waCcsICc3LjAnLCAnLXRuJywgJzgnLCAnLW1hJywgJzIwMCcsICctaW1hZScsICc8aW5maWxlLm1hZT4nLCAnLW9tYWUnLCAnPG91dGZpbGUubWFlPic=

>  <r_lp_tautomer_probability>  (215) 
1

>  <r_epik_Ionization_Penalty>  (215) 
3.60385e-06

>  <r_epik_Ionization_Penalty_Charging>  (215) 
0

>  <r_epik_Ionization_Penalty_Neutral>  (215) 
3.60385e-06

>  <r_epik_State_Penalty>  (215) 
-0

>  <r_epik_Charging_Adjusted_Penalty>  (215) 
0

>  <i_epik_Tot_Q>  (215) 
0

>  <i_epik_Tot_abs_Q>  (215) 
2

>  <s_epik_Chemistry_Notes>  (215) 
This compound has an ester and may undergo hydrolysis at high or low pH.

>  <s_lp_Force_Field>  (215) 
OPLS3e

>  <r_lp_Energy>  (215) 
416.448

>  <b_lp_Chiralities_Consistent>  (215) 
1

>  <s_lp_Variant>  (215) 
84:0-1

>  <s_i_glide_gridfile>  (215) 
pfpi4k_grid

>  <i_i_glide_lignum>  (215) 
19

>  <i_i_glide_rotatable_bonds>  (215) 
11

>  <r_i_docking_score>  (215) 
-3.51325

>  <r_i_glide_ligand_efficiency>  (215) 
-0.0817035

>  <r_i_glide_ligand_efficiency_sa>  (215) 
-0.28624

>  <r_i_glide_ligand_efficiency_ln>  (215) 
-0.737892

>  <r_i_glide_gscore>  (215) 
-3.51325

>  <r_i_glide_lipo>  (215) 
-0.034962

>  <r_i_glide_hbond>  (215) 
0

>  <r_i_glide_metal>  (215) 
-0

>  <r_i_glide_rewards>  (215) 
-1.04805

>  <r_i_glide_evdw>  (215) 
-29.3574

>  <r_i_glide_ecoul>  (215) 
-6.68609

>  <r_i_glide_erotb>  (215) 
0.105096

>  <r_i_glide_esite>  (215) 
-0.0645454

>  <r_i_glide_emodel>  (215) 
-53.1894

>  <r_i_glide_energy>  (215) 
-36.0435

>  <r_i_glide_einternal>  (215) 
1.48636

>  <r_i_glide_intrahb_reward>  (215) 
-1

>  <i_i_glide_confnum>  (215) 
1

>  <i_i_glide_posenum>  (215) 
29

>  <r_i_glide_eff_state_penalty>  (215) 
0

>  <ligand_id>  (215) 
84

>  <original_smiles>  (215) 
C=C1CC2(OC(C)=O)C(OC(C)=O)C3(O)C(O)C4(C)OC56COC(C)(C(O)C5O)C4(O)C(O)C1(C)CCOC2(O)C6[S+]3[O-]

>  <smiles>  (215) 
[H]OC1([H])C([H])(O[H])C2(C([H])([H])[H])OC([H])([H])C13OC1(C([H])([H])[H])C([H])(O[H])C4(O[H])S(=O)C3([H])C3(O[H])OC([H])([H])C([H])([H])C(C([H])([H])[H])(C(=C([H])[H])C([H])([H])C3(OC(=O)C([H])([H])[H])C4([H])OC(=O)C([H])([H])[H])C([H])(O[H])C21O[H]

$$$$
84:0:1
     RDKit          3D

 81 86  0  0  1  0  0  0  0  0999 V2000
    0.9198   -2.4137    8.0335 C   0  0  0  0  0  0  0  0  0  0  0  0
    1.7270   -1.5577    7.3653 C   0  0  0  0  0  0  0  0  0  0  0  0
    2.4971   -2.1389    6.0441 C   0  0  0  0  0  0  0  0  0  0  0  0
    2.0612   -1.7433    4.4829 C   0  0  2  0  0  0  0  0  0  0  0  0
    1.5654   -2.8990    3.7673 O   0  0  0  0  0  0  0  0  0  0  0  0
    2.2618   -4.0692    3.6700 C   0  0  0  0  0  0  0  0  0  0  0  0
    1.5009   -5.1507    2.9191 C   0  0  0  0  0  0  0  0  0  0  0  0
    3.3904   -4.2760    4.1151 O   0  0  0  0  0  0  0  0  0  0  0  0
    2.9999   -0.8645    3.4971 C   0  0  1  0  0  0  0  0  0  0  0  0
    3.2650   -1.6621    2.3231 O   0  0  0  0  0  0  0  0  0  0  0  0
    4.5428   -1.9435    1.9329 C   0  0  0  0  0  0  0  0  0  0  0  0
    4.6004   -2.8674    0.7197 C   0  0  0  0  0  0  0  0  0  0  0  0
    5.5756   -1.5329    2.4632 O   0  0  0  0  0  0  0  0  0  0  0  0
    2.4820    0.6055    2.9849 C   0  0  2  0  0  0  0  0  0  0  0  0
    3.4874    0.8897    2.0453 O   0  0  0  0  0  0  0  0  0  0  0  0
    2.3848    2.0433    3.8264 C   0  0  1  0  0  0  0  0  0  0  0  0
    2.5419    3.0158    2.7947 O   0  0  0  0  0  0  0  0  0  0  0  0
    1.1853    2.6322    4.8786 C   0  0  1  0  0  0  0  0  0  0  0  0
    1.1839    4.1899    4.6311 C   0  0  0  0  0  0  0  0  0  0  0  0
    0.1202    2.2244    4.1214 O   0  0  0  0  0  0  0  0  0  0  0  0
   -0.7389    1.1215    4.3858 C   0  0  1  0  0  0  0  0  0  0  0  0
   -1.3645    0.6774    5.7806 C   0  0  0  0  0  0  0  0  0  0  0  0
   -1.7761    1.6968    6.6609 O   0  0  0  0  0  0  0  0  0  0  0  0
   -1.0150    2.8548    6.4266 C   0  0  2  0  0  0  0  0  0  0  0  0
   -1.4054    3.8172    7.5669 C   0  0  0  0  0  0  0  0  0  0  0  0
   -1.8986    3.1997    5.1012 C   0  0  1  0  0  0  0  0  0  0  0  0
   -1.7126    4.4707    4.5110 O   0  0  0  0  0  0  0  0  0  0  0  0
   -1.9003    2.0681    3.9920 C   0  0  1  0  0  0  0  0  0  0  0  0
   -1.9489    2.5486    2.6631 O   0  0  0  0  0  0  0  0  0  0  0  0
    0.6096    2.4104    6.4826 C   0  0  2  0  0  0  0  0  0  0  0  0
    1.2620    3.4947    7.1234 O   0  0  0  0  0  0  0  0  0  0  0  0
    0.9694    1.2571    7.7654 C   0  0  1  0  0  0  0  0  0  0  0  0
   -0.1515    0.9434    8.5718 O   0  0  0  0  0  0  0  0  0  0  0  0
    1.9700   -0.0902    7.9664 C   0  0  1  0  0  0  0  0  0  0  0  0
    2.2165   -0.2742    9.4958 C   0  0  0  0  0  0  0  0  0  0  0  0
    3.2870    0.2748    7.4362 C   0  0  0  0  0  0  0  0  0  0  0  0
    2.9481    0.5288    6.0096 C   0  0  0  0  0  0  0  0  0  0  0  0
    1.5286    0.2000    5.5128 O   0  0  0  0  0  0  0  0  0  0  0  0
    0.8913   -0.8454    4.7407 C   0  0  2  0  0  0  0  0  0  0  0  0
   -0.0328   -1.7231    5.4002 O   0  0  0  0  0  0  0  0  0  0  0  0
   -0.0733   -0.1301    3.6879 C   0  0  2  0  0  0  0  0  0  0  0  0
    0.8697    0.2957    2.1550 S   0  0  0  0  0  0  0  0  0  0  0  0
    0.3913    1.6485    1.6447 O   0  0  0  0  0  0  0  0  0  0  0  0
    0.3840   -2.1126    8.9218 H   0  0  0  0  0  0  0  0  0  0  0  0
    0.7615   -3.4249    7.6839 H   0  0  0  0  0  0  0  0  0  0  0  0
    3.5782   -2.0315    6.1433 H   0  0  0  0  0  0  0  0  0  0  0  0
    2.3812   -3.2112    6.1567 H   0  0  0  0  0  0  0  0  0  0  0  0
    0.5078   -5.3008    3.3519 H   0  0  0  0  0  0  0  0  0  0  0  0
    2.0310   -6.1049    2.9422 H   0  0  0  0  0  0  0  0  0  0  0  0
    1.4120   -4.8558    1.8786 H   0  0  0  0  0  0  0  0  0  0  0  0
    3.9795   -0.7692    3.9496 H   0  0  0  0  0  0  0  0  0  0  0  0
    4.0933   -2.3983   -0.1229 H   0  0  0  0  0  0  0  0  0  0  0  0
    4.1160   -3.8214    0.9376 H   0  0  0  0  0  0  0  0  0  0  0  0
    5.6334   -3.0663    0.4314 H   0  0  0  0  0  0  0  0  0  0  0  0
    3.7322    1.8096    2.1508 H   0  0  0  0  0  0  0  0  0  0  0  0
    3.3611    2.2170    4.2665 H   0  0  0  0  0  0  0  0  0  0  0  0
    1.7416    3.0254    2.2734 H   0  0  0  0  0  0  0  0  0  0  0  0
    2.1846    4.6105    4.7572 H   0  0  0  0  0  0  0  0  0  0  0  0
    0.5357    4.7614    5.2911 H   0  0  0  0  0  0  0  0  0  0  0  0
    0.8334    4.4488    3.6259 H   0  0  0  0  0  0  0  0  0  0  0  0
   -2.2161    0.0056    5.6109 H   0  0  0  0  0  0  0  0  0  0  0  0
   -0.7185    0.1254    6.4285 H   0  0  0  0  0  0  0  0  0  0  0  0
   -0.9990    4.8189    7.3985 H   0  0  0  0  0  0  0  0  0  0  0  0
   -1.0624    3.4759    8.5460 H   0  0  0  0  0  0  0  0  0  0  0  0
   -2.4935    3.9142    7.6249 H   0  0  0  0  0  0  0  0  0  0  0  0
   -2.9403    3.2345    5.4513 H   0  0  0  0  0  0  0  0  0  0  0  0
   -0.8665    4.4459    4.1058 H   0  0  0  0  0  0  0  0  0  0  0  0
   -2.8284    1.5105    4.0638 H   0  0  0  0  0  0  0  0  0  0  0  0
   -1.0651    2.8043    2.3909 H   0  0  0  0  0  0  0  0  0  0  0  0
    2.1967    3.3171    7.1106 H   0  0  0  0  0  0  0  0  0  0  0  0
    1.4743    1.8774    8.5066 H   0  0  0  0  0  0  0  0  0  0  0  0
   -0.3940    1.7281    9.0425 H   0  0  0  0  0  0  0  0  0  0  0  0
    2.6406    0.6224    9.9485 H   0  0  0  0  0  0  0  0  0  0  0  0
    2.9238   -1.0815    9.6765 H   0  0  0  0  0  0  0  0  0  0  0  0
    1.3124   -0.5136   10.0595 H   0  0  0  0  0  0  0  0  0  0  0  0
    3.6917    1.1647    7.9282 H   0  0  0  0  0  0  0  0  0  0  0  0
    4.0330   -0.5079    7.5770 H   0  0  0  0  0  0  0  0  0  0  0  0
    3.0086    1.6069    6.1224 H   0  0  0  0  0  0  0  0  0  0  0  0
    3.8263    0.3440    5.4217 H   0  0  0  0  0  0  0  0  0  0  0  0
    0.4766   -2.2739    5.9660 H   0  0  0  0  0  0  0  0  0  0  0  0
   -0.8612   -0.8270    3.4185 H   0  0  0  0  0  0  0  0  0  0  0  0
  1  2  2  0
  1 44  1  0
  1 45  1  0
  2 34  1  0
  2  3  1  0
  3  4  1  0
  3 46  1  0
  3 47  1  0
  4 39  1  0
  4  5  1  6
  4  9  1  0
  5  6  1  0
  6  7  1  0
  6  8  2  0
  7 48  1  0
  7 49  1  0
  7 50  1  0
  9 10  1  0
  9 14  1  0
  9 51  1  1
 10 11  1  0
 11 12  1  0
 11 13  2  0
 12 52  1  0
 12 53  1  0
 12 54  1  0
 42 14  1  1
 14 15  1  6
 14 16  1  0
 15 55  1  0
 16 17  1  0
 16 18  1  0
 16 56  1  1
 17 57  1  0
 18 30  1  0
 18 19  1  1
 18 20  1  0
 19 58  1  0
 19 59  1  0
 19 60  1  0
 20 21  1  0
 21 28  1  0
 21 41  1  0
 21 22  1  1
 22 23  1  0
 22 61  1  0
 22 62  1  0
 23 24  1  0
 24 25  1  1
 24 26  1  0
 24 30  1  0
 25 63  1  0
 25 64  1  0
 25 65  1  0
 26 27  1  0
 26 28  1  0
 26 66  1  1
 27 67  1  0
 28 29  1  0
 28 68  1  1
 29 69  1  0
 30 31  1  1
 30 32  1  0
 31 70  1  0
 32 33  1  0
 32 34  1  0
 32 71  1  1
 33 72  1  0
 34 35  1  1
 34 36  1  0
 35 73  1  0
 35 74  1  0
 35 75  1  0
 36 37  1  0
 36 76  1  0
 36 77  1  0
 37 38  1  0
 37 78  1  0
 37 79  1  0
 38 39  1  0
 39 40  1  1
 39 41  1  0
 40 80  1  0
 41 42  1  0
 41 81  1  6
 42 43  2  0
M  END
>  <i_m_ct_stereo_status>  (216) 
1

>  <s_m_source_file>  (216) 
/var/tmp/pbs.5075288.sched01/tmpo2oug7hv/195455be7ie.sdf

>  <i_m_source_file_index>  (216) 
19

>  <i_lp_mmshare_version>  (216) 
48012

>  <i_f3d_flags>  (216) 
0

>  <s_epik_input>  (216) 
W0NIM11DKD1PKU9bQ0BAXTEoW0NAXTIoW09IXSlbQ0BIXTNbQ0BdNDU2KVtDSDJdQyg9W0NIMl0pW0NAQF0oW0NIM10pKFtDSDJdW0NIMl1PMilbQ0BIXShbT0hdKVtDQF0oW09IXSkoW0NAXShbQ0gzXSkoT1tDSDJdNSlbQ0BASF0oW09IXSlbQ0BIXTZbT0hdKVtDQEBdKE80KShbQ0gzXSlbQ0BIXShbT0hdKVtDQF0oW09IXSkoW1MrXTNbTy1dKVtDQEBIXTFPQyg9TylbQ0gzXQ==

>  <s_epik_cmdline>  (216) 
J2VwaWtfcHl0aG9uJywgJy1waHQnLCAnMi4wJywgJy1waCcsICc3LjAnLCAnLXRuJywgJzgnLCAnLW1hJywgJzIwMCcsICctaW1hZScsICc8aW5maWxlLm1hZT4nLCAnLW9tYWUnLCAnPG91dGZpbGUubWFlPic=

>  <r_lp_tautomer_probability>  (216) 
1

>  <r_epik_Ionization_Penalty>  (216) 
3.60385e-06

>  <r_epik_Ionization_Penalty_Charging>  (216) 
0

>  <r_epik_Ionization_Penalty_Neutral>  (216) 
3.60385e-06

>  <r_epik_State_Penalty>  (216) 
-0

>  <r_epik_Charging_Adjusted_Penalty>  (216) 
0

>  <i_epik_Tot_Q>  (216) 
0

>  <i_epik_Tot_abs_Q>  (216) 
2

>  <s_epik_Chemistry_Notes>  (216) 
This compound has an ester and may undergo hydrolysis at high or low pH.

>  <s_lp_Force_Field>  (216) 
OPLS3e

>  <r_lp_Energy>  (216) 
416.448

>  <b_lp_Chiralities_Consistent>  (216) 
1

>  <s_lp_Variant>  (216) 
84:0-1

>  <s_i_glide_gridfile>  (216) 
pfpi4k_grid

>  <i_i_glide_lignum>  (216) 
19

>  <i_i_glide_rotatable_bonds>  (216) 
11

>  <r_i_docking_score>  (216) 
-3.49882

>  <r_i_glide_ligand_efficiency>  (216) 
-0.0813678

>  <r_i_glide_ligand_efficiency_sa>  (216) 
-0.285064

>  <r_i_glide_ligand_efficiency_ln>  (216) 
-0.73486

>  <r_i_glide_gscore>  (216) 
-3.49882

>  <r_i_glide_lipo>  (216) 
-0.0403002

>  <r_i_glide_hbond>  (216) 
0

>  <r_i_glide_metal>  (216) 
-0

>  <r_i_glide_rewards>  (216) 
-1.03991

>  <r_i_glide_evdw>  (216) 
-29.8489

>  <r_i_glide_ecoul>  (216) 
-6.4585

>  <r_i_glide_erotb>  (216) 
0.105096

>  <r_i_glide_esite>  (216) 
-0.0624833

>  <r_i_glide_emodel>  (216) 
-53.2599

>  <r_i_glide_energy>  (216) 
-36.3074

>  <r_i_glide_einternal>  (216) 
1.48063

>  <r_i_glide_intrahb_reward>  (216) 
-1

>  <i_i_glide_confnum>  (216) 
3

>  <i_i_glide_posenum>  (216) 
18

>  <r_i_glide_eff_state_penalty>  (216) 
0

>  <ligand_id>  (216) 
84

>  <original_smiles>  (216) 
C=C1CC2(OC(C)=O)C(OC(C)=O)C3(O)C(O)C4(C)OC56COC(C)(C(O)C5O)C4(O)C(O)C1(C)CCOC2(O)C6[S+]3[O-]

>  <smiles>  (216) 
[H]OC1([H])C([H])(O[H])C2(C([H])([H])[H])OC([H])([H])C13OC1(C([H])([H])[H])C([H])(O[H])C4(O[H])S(=O)C3([H])C3(O[H])OC([H])([H])C([H])([H])C(C([H])([H])[H])(C(=C([H])[H])C([H])([H])C3(OC(=O)C([H])([H])[H])C4([H])OC(=O)C([H])([H])[H])C([H])(O[H])C21O[H]

$$$$
84:0:2
     RDKit          3D

 81 86  0  0  1  0  0  0  0  0999 V2000
    0.7841   -2.3064    8.2436 C   0  0  0  0  0  0  0  0  0  0  0  0
    1.6099   -1.5010    7.5510 C   0  0  0  0  0  0  0  0  0  0  0  0
    2.3888   -2.1496    6.2571 C   0  0  0  0  0  0  0  0  0  0  0  0
    1.9746   -1.8068    4.6762 C   0  0  2  0  0  0  0  0  0  0  0  0
    1.4640   -3.0000    4.0238 O   0  0  0  0  0  0  0  0  0  0  0  0
    2.1455   -4.1740    3.9516 C   0  0  0  0  0  0  0  0  0  0  0  0
    1.3426   -5.2870    3.2987 C   0  0  0  0  0  0  0  0  0  0  0  0
    3.2933   -4.3640    4.3585 O   0  0  0  0  0  0  0  0  0  0  0  0
    2.9466   -0.9967    3.6680 C   0  0  1  0  0  0  0  0  0  0  0  0
    3.2070   -1.8517    2.5310 O   0  0  0  0  0  0  0  0  0  0  0  0
    4.4791   -2.1364    2.1275 C   0  0  0  0  0  0  0  0  0  0  0  0
    4.5319   -3.1440    0.9900 C   0  0  0  0  0  0  0  0  0  0  0  0
    5.5173   -1.6599    2.5974 O   0  0  0  0  0  0  0  0  0  0  0  0
    2.4728    0.4640    3.0973 C   0  0  2  0  0  0  0  0  0  0  0  0
    3.5196    0.6959    2.1737 O   0  0  0  0  0  0  0  0  0  0  0  0
    2.3867    1.9385    3.8690 C   0  0  1  0  0  0  0  0  0  0  0  0
    2.5644    2.8540    2.7807 O   0  0  0  0  0  0  0  0  0  0  0  0
    1.1757    2.5891    4.8677 C   0  0  1  0  0  0  0  0  0  0  0  0
    1.2061    4.1370    4.5519 C   0  0  0  0  0  0  0  0  0  0  0  0
    0.1115    2.1714    4.1141 O   0  0  0  0  0  0  0  0  0  0  0  0
   -0.7796    1.1043    4.4251 C   0  0  1  0  0  0  0  0  0  0  0  0
   -1.4216    0.7284    5.8330 C   0  0  0  0  0  0  0  0  0  0  0  0
   -1.8215    1.7989    6.6588 O   0  0  0  0  0  0  0  0  0  0  0  0
   -1.0255    2.9260    6.3933 C   0  0  2  0  0  0  0  0  0  0  0  0
   -1.4224    3.9502    7.4828 C   0  0  0  0  0  0  0  0  0  0  0  0
   -1.8952    3.2440    5.0395 C   0  0  1  0  0  0  0  0  0  0  0  0
   -1.6958    4.5202    4.4466 O   0  0  0  0  0  0  0  0  0  0  0  0
   -1.9092    2.0544    3.9775 C   0  0  1  0  0  0  0  0  0  0  0  0
   -1.9402    2.4905    2.6327 O   0  0  0  0  0  0  0  0  0  0  0  0
    0.5909    2.4516    6.4779 C   0  0  2  0  0  0  0  0  0  0  0  0
    1.2930    3.5353    7.0779 O   0  0  0  0  0  0  0  0  0  0  0  0
    0.8983    1.3468    7.8143 C   0  0  1  0  0  0  0  0  0  0  0  0
   -0.2390    1.0995    8.6229 O   0  0  0  0  0  0  0  0  0  0  0  0
    1.8732   -0.0045    8.0873 C   0  0  1  0  0  0  0  0  0  0  0  0
    2.1017   -0.1229    9.6271 C   0  0  0  0  0  0  0  0  0  0  0  0
    3.2056    0.3147    7.5561 C   0  0  0  0  0  0  0  0  0  0  0  0
    2.8858    0.5113    6.1159 C   0  0  0  0  0  0  0  0  0  0  0  0
    1.4675    0.1831    5.6167 O   0  0  0  0  0  0  0  0  0  0  0  0
    0.8168   -0.8819    4.8865 C   0  0  2  0  0  0  0  0  0  0  0  0
   -0.1291   -1.7026    5.5601 O   0  0  0  0  0  0  0  0  0  0  0  0
   -0.1162   -0.1927    3.7896 C   0  0  2  0  0  0  0  0  0  0  0  0
    0.8616    0.1493    2.2477 S   0  0  0  0  0  0  0  0  0  0  0  0
    0.4050    1.4760    1.6371 O   0  0  0  0  0  0  0  0  0  0  0  0
    0.2461   -1.9563    9.1119 H   0  0  0  0  0  0  0  0  0  0  0  0
    0.6073   -3.3297    7.9391 H   0  0  0  0  0  0  0  0  0  0  0  0
    3.4693   -2.0547    6.3711 H   0  0  0  0  0  0  0  0  0  0  0  0
    2.2566   -3.2202    6.4066 H   0  0  0  0  0  0  0  0  0  0  0  0
    0.3918   -5.4249    3.8156 H   0  0  0  0  0  0  0  0  0  0  0  0
    1.8842   -6.2329    3.3257 H   0  0  0  0  0  0  0  0  0  0  0  0
    1.1443   -5.0416    2.2567 H   0  0  0  0  0  0  0  0  0  0  0  0
    3.9227   -0.9119    4.1297 H   0  0  0  0  0  0  0  0  0  0  0  0
    3.9783   -2.7612    0.1328 H   0  0  0  0  0  0  0  0  0  0  0  0
    4.0941   -4.0939    1.3016 H   0  0  0  0  0  0  0  0  0  0  0  0
    5.5627   -3.3270    0.6820 H   0  0  0  0  0  0  0  0  0  0  0  0
    3.6672    1.6436    2.1708 H   0  0  0  0  0  0  0  0  0  0  0  0
    3.3595    2.1185    4.3090 H   0  0  0  0  0  0  0  0  0  0  0  0
    1.7554    2.8668    2.2745 H   0  0  0  0  0  0  0  0  0  0  0  0
    2.2109    4.5493    4.6684 H   0  0  0  0  0  0  0  0  0  0  0  0
    0.5604    4.7550    5.1717 H   0  0  0  0  0  0  0  0  0  0  0  0
    0.8730    4.3550    3.5320 H   0  0  0  0  0  0  0  0  0  0  0  0
   -2.2792    0.0704    5.6881 H   0  0  0  0  0  0  0  0  0  0  0  0
   -0.7946    0.1912    6.5075 H   0  0  0  0  0  0  0  0  0  0  0  0
   -0.9965    4.9331    7.2760 H   0  0  0  0  0  0  0  0  0  0  0  0
   -1.0946    3.6396    8.4767 H   0  0  0  0  0  0  0  0  0  0  0  0
   -2.5062    4.0676    7.5244 H   0  0  0  0  0  0  0  0  0  0  0  0
   -2.9377    3.3156    5.3682 H   0  0  0  0  0  0  0  0  0  0  0  0
   -0.9099    4.4465    3.9071 H   0  0  0  0  0  0  0  0  0  0  0  0
   -2.8552    1.5305    4.0720 H   0  0  0  0  0  0  0  0  0  0  0  0
   -1.0607    2.7525    2.3651 H   0  0  0  0  0  0  0  0  0  0  0  0
    1.2197    4.2804    6.4979 H   0  0  0  0  0  0  0  0  0  0  0  0
    1.4118    1.9810    8.5386 H   0  0  0  0  0  0  0  0  0  0  0  0
   -0.3882    1.8714    9.1567 H   0  0  0  0  0  0  0  0  0  0  0  0
    2.5348    0.7858   10.0487 H   0  0  0  0  0  0  0  0  0  0  0  0
    2.7958   -0.9350    9.8564 H   0  0  0  0  0  0  0  0  0  0  0  0
    1.1885   -0.3213   10.1903 H   0  0  0  0  0  0  0  0  0  0  0  0
    3.6177    1.2173    8.0137 H   0  0  0  0  0  0  0  0  0  0  0  0
    3.9377   -0.4720    7.7403 H   0  0  0  0  0  0  0  0  0  0  0  0
    2.9639    1.5902    6.1813 H   0  0  0  0  0  0  0  0  0  0  0  0
    3.7655    0.2812    5.5475 H   0  0  0  0  0  0  0  0  0  0  0  0
    0.3632   -2.2642    6.1514 H   0  0  0  0  0  0  0  0  0  0  0  0
   -0.9135   -0.8932    3.5419 H   0  0  0  0  0  0  0  0  0  0  0  0
  1  2  2  0
  1 44  1  0
  1 45  1  0
  2 34  1  0
  2  3  1  0
  3  4  1  0
  3 46  1  0
  3 47  1  0
  4 39  1  0
  4  5  1  6
  4  9  1  0
  5  6  1  0
  6  7  1  0
  6  8  2  0
  7 48  1  0
  7 49  1  0
  7 50  1  0
  9 10  1  0
  9 14  1  0
  9 51  1  1
 10 11  1  0
 11 12  1  0
 11 13  2  0
 12 52  1  0
 12 53  1  0
 12 54  1  0
 42 14  1  1
 14 15  1  6
 14 16  1  0
 15 55  1  0
 16 17  1  0
 16 18  1  0
 16 56  1  1
 17 57  1  0
 18 30  1  0
 18 19  1  6
 18 20  1  0
 19 58  1  0
 19 59  1  0
 19 60  1  0
 20 21  1  0
 21 28  1  0
 21 41  1  0
 21 22  1  1
 22 23  1  0
 22 61  1  0
 22 62  1  0
 23 24  1  0
 24 25  1  1
 24 26  1  0
 24 30  1  0
 25 63  1  0
 25 64  1  0
 25 65  1  0
 26 27  1  0
 26 28  1  0
 26 66  1  1
 27 67  1  0
 28 29  1  0
 28 68  1  1
 29 69  1  0
 30 31  1  1
 30 32  1  0
 31 70  1  0
 32 33  1  0
 32 34  1  0
 32 71  1  1
 33 72  1  0
 34 35  1  1
 34 36  1  0
 35 73  1  0
 35 74  1  0
 35 75  1  0
 36 37  1  0
 36 76  1  0
 36 77  1  0
 37 38  1  0
 37 78  1  0
 37 79  1  0
 38 39  1  0
 39 40  1  1
 39 41  1  0
 40 80  1  0
 41 42  1  0
 41 81  1  6
 42 43  2  0
M  END
>  <i_m_ct_stereo_status>  (217) 
1

>  <s_m_source_file>  (217) 
/var/tmp/pbs.5075288.sched01/tmpo2oug7hv/195455be7ie.sdf

>  <i_m_source_file_index>  (217) 
19

>  <i_lp_mmshare_version>  (217) 
48012

>  <i_f3d_flags>  (217) 
0

>  <s_epik_input>  (217) 
W0NIM11DKD1PKU9bQ0BAXTEoW0NAXTIoW09IXSlbQ0BIXTNbQ0BdNDU2KVtDSDJdQyg9W0NIMl0pW0NAQF0oW0NIM10pKFtDSDJdW0NIMl1PMilbQ0BIXShbT0hdKVtDQF0oW09IXSkoW0NAXShbQ0gzXSkoT1tDSDJdNSlbQ0BASF0oW09IXSlbQ0BIXTZbT0hdKVtDQEBdKE80KShbQ0gzXSlbQ0BIXShbT0hdKVtDQF0oW09IXSkoW1MrXTNbTy1dKVtDQEBIXTFPQyg9TylbQ0gzXQ==

>  <s_epik_cmdline>  (217) 
J2VwaWtfcHl0aG9uJywgJy1waHQnLCAnMi4wJywgJy1waCcsICc3LjAnLCAnLXRuJywgJzgnLCAnLW1hJywgJzIwMCcsICctaW1hZScsICc8aW5maWxlLm1hZT4nLCAnLW9tYWUnLCAnPG91dGZpbGUubWFlPic=

>  <r_lp_tautomer_probability>  (217) 
1

>  <r_epik_Ionization_Penalty>  (217) 
3.60385e-06

>  <r_epik_Ionization_Penalty_Charging>  (217) 
0

>  <r_epik_Ionization_Penalty_Neutral>  (217) 
3.60385e-06

>  <r_epik_State_Penalty>  (217) 
-0

>  <r_epik_Charging_Adjusted_Penalty>  (217) 
0

>  <i_epik_Tot_Q>  (217) 
0

>  <i_epik_Tot_abs_Q>  (217) 
2

>  <s_epik_Chemistry_Notes>  (217) 
This compound has an ester and may undergo hydrolysis at high or low pH.

>  <s_lp_Force_Field>  (217) 
OPLS3e

>  <r_lp_Energy>  (217) 
416.448

>  <b_lp_Chiralities_Consistent>  (217) 
1

>  <s_lp_Variant>  (217) 
84:0-1

>  <s_i_glide_gridfile>  (217) 
pfpi4k_grid

>  <i_i_glide_lignum>  (217) 
19

>  <i_i_glide_rotatable_bonds>  (217) 
11

>  <r_i_docking_score>  (217) 
-3.39102

>  <r_i_glide_ligand_efficiency>  (217) 
-0.0788609

>  <r_i_glide_ligand_efficiency_sa>  (217) 
-0.276281

>  <r_i_glide_ligand_efficiency_ln>  (217) 
-0.71222

>  <r_i_glide_gscore>  (217) 
-3.39102

>  <r_i_glide_lipo>  (217) 
-0.0436296

>  <r_i_glide_hbond>  (217) 
0

>  <r_i_glide_metal>  (217) 
-0

>  <r_i_glide_rewards>  (217) 
-1.03335

>  <r_i_glide_evdw>  (217) 
-30.2907

>  <r_i_glide_ecoul>  (217) 
-5.64459

>  <r_i_glide_erotb>  (217) 
0.105096

>  <r_i_glide_esite>  (217) 
-0.0579128

>  <r_i_glide_emodel>  (217) 
-52.7403

>  <r_i_glide_energy>  (217) 
-35.9353

>  <r_i_glide_einternal>  (217) 
1.90436

>  <r_i_glide_intrahb_reward>  (217) 
-1

>  <i_i_glide_confnum>  (217) 
1

>  <i_i_glide_posenum>  (217) 
32

>  <r_i_glide_eff_state_penalty>  (217) 
0

>  <ligand_id>  (217) 
84

>  <original_smiles>  (217) 
C=C1CC2(OC(C)=O)C(OC(C)=O)C3(O)C(O)C4(C)OC56COC(C)(C(O)C5O)C4(O)C(O)C1(C)CCOC2(O)C6[S+]3[O-]

>  <smiles>  (217) 
[H]OC1([H])C([H])(O[H])C2(C([H])([H])[H])OC([H])([H])C13OC1(C([H])([H])[H])C([H])(O[H])C4(O[H])S(=O)C3([H])C3(O[H])OC([H])([H])C([H])([H])C(C([H])([H])[H])(C(=C([H])[H])C([H])([H])C3(OC(=O)C([H])([H])[H])C4([H])OC(=O)C([H])([H])[H])C([H])(O[H])C21O[H]

$$$$
89:0:0
     RDKit          3D

 95100  0  0  1  0  0  0  0  0999 V2000
    3.4107    5.8902    3.2451 C   0  0  0  0  0  0  0  0  0  0  0  0
    2.5376    4.8677    3.6941 O   0  0  0  0  0  0  0  0  0  0  0  0
    2.3690    4.6811    5.0225 C   0  0  0  0  0  0  0  0  0  0  0  0
    3.0366    5.2705    5.8695 O   0  0  0  0  0  0  0  0  0  0  0  0
    1.1887    3.7390    5.3865 C   0  0  1  0  0  0  0  0  0  0  0  0
    0.0733    4.4179    4.8336 O   0  0  0  0  0  0  0  0  0  0  0  0
    1.1343    2.3198    4.6582 C   0  0  2  0  0  0  0  0  0  0  0  0
    0.7218    2.4954    3.3042 O   0  0  0  0  0  0  0  0  0  0  0  0
   -0.0062    1.6740    5.4573 C   0  0  0  0  0  0  0  0  0  0  0  0
   -0.7607    0.7944    5.0338 O   0  0  0  0  0  0  0  0  0  0  0  0
   -0.2408    2.3944    6.8020 C   0  0  2  0  0  0  0  0  0  0  0  0
   -1.6905    2.9885    6.8806 C   0  0  0  0  0  0  0  0  0  0  0  0
   -2.6307    2.5469    6.2253 O   0  0  0  0  0  0  0  0  0  0  0  0
   -1.8952    4.0498    7.7198 O   0  0  0  0  0  0  0  0  0  0  0  0
   -0.8608    4.5535    8.5621 C   0  0  2  0  0  0  0  0  0  0  0  0
   -1.0178    6.0744    8.7386 C   0  0  0  0  0  0  0  0  0  0  0  0
    0.2520    6.3604    7.4266 S   0  0  0  0  0  0  0  0  0  0  0  0
   -0.4622    6.5546    6.1263 O   0  0  0  0  0  0  0  0  0  0  0  0
    0.5272    4.5931    7.8791 C   0  0  2  0  0  0  0  0  0  0  0  0
    0.9252    3.4308    6.9221 C   0  0  2  0  0  0  0  0  0  0  0  0
    2.0710    2.6337    7.6448 C   0  0  0  0  0  0  0  0  0  0  0  0
    1.9602    2.2382    8.9964 C   0  0  0  0  0  0  0  0  0  0  0  0
    3.1197    1.5508    9.7375 C   0  0  0  0  0  0  0  0  0  0  0  0
    1.0437    2.3493    9.8190 O   0  0  0  0  0  0  0  0  0  0  0  0
    3.2942    2.3210    6.8971 C   0  0  0  0  0  0  0  0  0  0  0  0
    4.2977    3.0010    7.1057 O   0  0  0  0  0  0  0  0  0  0  0  0
    3.3489    1.1594    5.8635 C   0  0  1  0  0  0  0  0  0  0  0  0
    4.7265    1.1485    5.3649 O   0  0  0  0  0  0  0  0  0  0  0  0
    5.8312    0.7161    6.2044 C   0  0  0  0  0  0  0  0  0  0  0  0
    3.0415   -0.2506    6.4939 C   0  0  1  0  0  0  0  0  0  0  0  0
    1.7419   -0.3090    7.0820 O   0  0  0  0  0  0  0  0  0  0  0  0
    1.4389   -1.0100    8.2150 C   0  0  0  0  0  0  0  0  0  0  0  0
    2.6210   -1.6689    8.9629 C   0  0  0  0  0  0  0  0  0  0  0  0
    0.2815   -1.1477    8.6257 O   0  0  0  0  0  0  0  0  0  0  0  0
    3.2218   -1.3885    5.4403 C   0  0  1  0  0  0  0  0  0  0  0  0
    3.0992   -2.6767    6.0542 O   0  0  0  0  0  0  0  0  0  0  0  0
    4.1594   -3.4209    6.5600 C   0  0  0  0  0  0  0  0  0  0  0  0
    5.5210   -2.7386    6.5182 C   0  0  0  0  0  0  0  0  0  0  0  0
    4.0376   -4.5534    7.0422 O   0  0  0  0  0  0  0  0  0  0  0  0
    2.3487   -1.2525    4.1447 C   0  0  2  0  0  0  0  0  0  0  0  0
    0.8529   -1.6108    4.3762 C   0  0  0  0  0  0  0  0  0  0  0  0
    2.9071   -2.0746    2.9006 C   0  0  1  0  0  0  0  0  0  0  0  0
    2.4664   -3.5996    2.6671 C   0  0  2  0  0  0  0  0  0  0  0  0
    2.6349   -4.5331    3.8869 C   0  0  0  0  0  0  0  0  0  0  0  0
    3.2218   -4.2248    1.4468 C   0  0  0  0  0  0  0  0  0  0  0  0
    2.4749   -5.2920    0.5823 C   0  0  0  0  0  0  0  0  0  0  0  0
    1.5647   -6.2939    1.2824 C   0  0  0  0  0  0  0  0  0  0  0  0
    0.3550   -6.2765    0.9725 O   0  0  0  0  0  0  0  0  0  0  0  0
    2.0839   -7.0425    2.1277 O   0  0  0  0  0  0  0  0  0  0  0  0
    2.5835   -1.1540    1.6703 C   0  0  0  0  0  0  0  0  0  0  0  0
    2.1253    0.2043    2.1946 C   0  0  0  0  0  0  0  0  0  0  0  0
    2.6090    0.1987    3.6305 C   0  0  1  0  0  0  0  0  0  0  0  0
    2.4886    1.4683    4.5695 C   0  0  1  0  0  0  0  0  0  0  0  0
    3.4228    5.8788    2.1614 H   0  0  0  0  0  0  0  0  0  0  0  0
    4.4198    5.7464    3.6167 H   0  0  0  0  0  0  0  0  0  0  0  0
    3.0592    6.8625    3.5804 H   0  0  0  0  0  0  0  0  0  0  0  0
    0.2036    4.5093    3.8944 H   0  0  0  0  0  0  0  0  0  0  0  0
    1.4072    2.9503    2.8308 H   0  0  0  0  0  0  0  0  0  0  0  0
   -0.2159    1.6500    7.5920 H   0  0  0  0  0  0  0  0  0  0  0  0
   -0.8109    4.0131    9.5154 H   0  0  0  0  0  0  0  0  0  0  0  0
   -2.0268    6.3959    8.5631 H   0  0  0  0  0  0  0  0  0  0  0  0
   -0.6573    6.4223    9.6858 H   0  0  0  0  0  0  0  0  0  0  0  0
    1.3004    4.7720    8.6016 H   0  0  0  0  0  0  0  0  0  0  0  0
    3.9590    1.2410    9.1192 H   0  0  0  0  0  0  0  0  0  0  0  0
    2.7724    0.6537   10.2507 H   0  0  0  0  0  0  0  0  0  0  0  0
    3.5322    2.1929   10.5190 H   0  0  0  0  0  0  0  0  0  0  0  0
    6.7869    1.0336    5.7442 H   0  0  0  0  0  0  0  0  0  0  0  0
    5.8584   -0.3555    6.2698 H   0  0  0  0  0  0  0  0  0  0  0  0
    5.8225    1.1175    7.2348 H   0  0  0  0  0  0  0  0  0  0  0  0
    3.7852   -0.3921    7.2604 H   0  0  0  0  0  0  0  0  0  0  0  0
    2.8483   -2.6271    8.4860 H   0  0  0  0  0  0  0  0  0  0  0  0
    2.3508   -1.9172   10.0039 H   0  0  0  0  0  0  0  0  0  0  0  0
    3.5212   -1.0279    8.9358 H   0  0  0  0  0  0  0  0  0  0  0  0
    4.2307   -1.2913    5.0609 H   0  0  0  0  0  0  0  0  0  0  0  0
    5.7353   -2.3750    5.5006 H   0  0  0  0  0  0  0  0  0  0  0  0
    6.3357   -3.3870    6.8658 H   0  0  0  0  0  0  0  0  0  0  0  0
    5.4053   -1.8950    7.1956 H   0  0  0  0  0  0  0  0  0  0  0  0
    0.2263   -1.2942    3.5456 H   0  0  0  0  0  0  0  0  0  0  0  0
    0.4749   -1.2006    5.2998 H   0  0  0  0  0  0  0  0  0  0  0  0
    0.6758   -2.6699    4.4965 H   0  0  0  0  0  0  0  0  0  0  0  0
    4.0047   -2.0796    2.9860 H   0  0  0  0  0  0  0  0  0  0  0  0
    1.4195   -3.5240    2.3602 H   0  0  0  0  0  0  0  0  0  0  0  0
    3.6622   -4.3987    4.2277 H   0  0  0  0  0  0  0  0  0  0  0  0
    2.4377   -5.5578    3.6489 H   0  0  0  0  0  0  0  0  0  0  0  0
    1.9538   -4.2225    4.6742 H   0  0  0  0  0  0  0  0  0  0  0  0
    3.5452   -3.4421    0.7393 H   0  0  0  0  0  0  0  0  0  0  0  0
    4.1889   -4.5994    1.7907 H   0  0  0  0  0  0  0  0  0  0  0  0
    1.9160   -4.7601   -0.1791 H   0  0  0  0  0  0  0  0  0  0  0  0
    3.2257   -5.8616    0.0452 H   0  0  0  0  0  0  0  0  0  0  0  0
    3.4672   -1.0494    1.0394 H   0  0  0  0  0  0  0  0  0  0  0  0
    1.8102   -1.6065    1.0582 H   0  0  0  0  0  0  0  0  0  0  0  0
    2.5457    1.0234    1.6264 H   0  0  0  0  0  0  0  0  0  0  0  0
    1.0439    0.2608    2.1613 H   0  0  0  0  0  0  0  0  0  0  0  0
    3.6946    0.1881    3.4687 H   0  0  0  0  0  0  0  0  0  0  0  0
    3.1401    2.1809    4.0546 H   0  0  0  0  0  0  0  0  0  0  0  0
  1  2  1  0
  1 54  1  0
  1 55  1  0
  1 56  1  0
  2  3  1  0
  3  4  2  0
  3  5  1  0
  5 20  1  0
  5  6  1  6
  5  7  1  0
  6 57  1  0
  7 53  1  0
  7  8  1  6
  7  9  1  0
  8 58  1  0
  9 10  2  0
  9 11  1  0
 11 20  1  0
 11 12  1  0
 11 59  1  1
 12 13  2  0
 12 14  1  0
 14 15  1  0
 15 19  1  0
 15 16  1  0
 15 60  1  1
 17 16  1  1
 16 61  1  0
 16 62  1  0
 17 18  2  0
 17 19  1  0
 19 20  1  0
 19 63  1  1
 20 21  1  1
 21 22  2  0
 21 25  1  0
 22 23  1  0
 22 24  1  0
 23 64  1  0
 23 65  1  0
 23 66  1  0
 25 26  2  0
 25 27  1  0
 27 53  1  0
 27 28  1  6
 27 30  1  0
 28 29  1  0
 29 67  1  0
 29 68  1  0
 29 69  1  0
 30 31  1  0
 30 35  1  0
 30 70  1  1
 31 32  1  0
 32 33  1  0
 32 34  2  0
 33 71  1  0
 33 72  1  0
 33 73  1  0
 35 36  1  0
 35 40  1  0
 35 74  1  6
 36 37  1  0
 37 38  1  0
 37 39  2  0
 38 75  1  0
 38 76  1  0
 38 77  1  0
 40 52  1  0
 40 41  1  1
 40 42  1  0
 41 78  1  0
 41 79  1  0
 41 80  1  0
 42 43  1  0
 42 50  1  0
 42 81  1  1
 43 44  1  0
 43 45  1  0
 43 82  1  6
 44 83  1  0
 44 84  1  0
 44 85  1  0
 45 46  1  0
 45 86  1  0
 45 87  1  0
 46 47  1  0
 46 88  1  0
 46 89  1  0
 47 48  1  0
 47 49  2  0
 50 51  1  0
 50 90  1  0
 50 91  1  0
 51 52  1  0
 51 92  1  0
 51 93  1  0
 52 53  1  0
 52 94  1  6
 53 95  1  6
M  CHG  2  24  -1  48  -1
M  END
>  <i_m_ct_stereo_status>  (218) 
1

>  <s_m_source_file>  (218) 
/var/tmp/pbs.5075288.sched01/tmpo2oug7hv/195455be7ie.sdf

>  <i_m_source_file_index>  (218) 
40

>  <i_lp_mmshare_version>  (218) 
48012

>  <i_f3d_flags>  (218) 
0

>  <s_epik_input>  (218) 
W0NIMl0xW1MrXShbTy1dKVtDQEhdMltDQEBIXTFPQyg9TylbQ0BIXShbQ0BdMjM0KUMoPU8pW0NAQF0oW09IXSkoW0NAXTMoW09IXSlDKD1PKU9bQ0gzXSlbQ0BIXTVbQ0BAXShPW0NIM10pKEMoPU8pW0NAQEhdNEMoPU8pW0NIM10pW0NAQEhdKE9DKD1PKVtDSDNdKVtDQEBIXShPQyg9TylbQ0gzXSlbQ0BAXTYoW0NIM10pW0NASF01W0NIMl1bQ0gyXVtDQEBIXTZbQ0BIXShbQ0gzXSlbQ0gyXVtDSDJdQyg9TylbT0hd

>  <s_epik_cmdline>  (218) 
J2VwaWtfcHl0aG9uJywgJy1waHQnLCAnMi4wJywgJy1waCcsICc3LjAnLCAnLXRuJywgJzgnLCAnLW1hJywgJzIwMCcsICctaW1hZScsICc8aW5maWxlLm1hZT4nLCAnLW9tYWUnLCAnPG91dGZpbGUubWFlPic=

>  <r_lp_tautomer_probability>  (218) 
1

>  <r_epik_Ionization_Penalty>  (218) 
0.011693

>  <r_epik_Ionization_Penalty_Charging>  (218) 
0.0111754

>  <r_epik_Ionization_Penalty_Neutral>  (218) 
0.000517624

>  <r_epik_State_Penalty>  (218) 
-0

>  <r_epik_Charging_Adjusted_Penalty>  (218) 
0.0111754

>  <i_epik_Tot_Q>  (218) 
-2

>  <i_epik_Tot_abs_Q>  (218) 
4

>  <s_epik_Chemistry_Notes>  (218) 
This compound has an ester and may undergo hydrolysis at high or low pH.

>  <s_lp_Force_Field>  (218) 
OPLS3e

>  <r_lp_Energy>  (218) 
109.769

>  <b_lp_Chiralities_Consistent>  (218) 
1

>  <s_lp_Variant>  (218) 
89:0-1

>  <s_i_glide_gridfile>  (218) 
pfpi4k_grid

>  <i_i_glide_lignum>  (218) 
40

>  <i_i_glide_rotatable_bonds>  (218) 
13

>  <r_i_docking_score>  (218) 
-3.65223

>  <r_i_glide_ligand_efficiency>  (218) 
-0.06891

>  <r_i_glide_ligand_efficiency_sa>  (218) 
-0.258846

>  <r_i_glide_ligand_efficiency_ln>  (218) 
-0.734812

>  <r_i_glide_gscore>  (218) 
-3.65223

>  <r_i_glide_lipo>  (218) 
-0.14515

>  <r_i_glide_hbond>  (218) 
-0.265131

>  <r_i_glide_metal>  (218) 
-0

>  <r_i_glide_rewards>  (218) 
-0.561684

>  <r_i_glide_evdw>  (218) 
-28.6635

>  <r_i_glide_ecoul>  (218) 
-7.9818

>  <r_i_glide_erotb>  (218) 
0.0245045

>  <r_i_glide_esite>  (218) 
-0.0743251

>  <r_i_glide_emodel>  (218) 
-43.8134

>  <r_i_glide_energy>  (218) 
-36.6453

>  <r_i_glide_einternal>  (218) 
15.7017

>  <r_i_glide_intrahb_reward>  (218) 
-0.5

>  <i_i_glide_confnum>  (218) 
2

>  <i_i_glide_posenum>  (218) 
6

>  <r_i_glide_eff_state_penalty>  (218) 
0

>  <ligand_id>  (218) 
89

>  <original_smiles>  (218) 
COC(=O)C1(O)C2(O)C(=O)C3C(=O)OC4C[S+]([O-])C4C31C(C(C)=O)C(=O)C1(OC)C(OC(C)=O)C(OC(C)=O)C3(C)C(C(C)CCC(=O)O)CCC3C12

>  <smiles>  (218) 
[H]OC12C(=O)C3([H])C(=O)OC4([H])C([H])([H])S(=O)C4([H])C3(C(=C([O-])C([H])([H])[H])C(=O)C3(OC([H])([H])[H])C([H])(OC(=O)C([H])([H])[H])C([H])(OC(=O)C([H])([H])[H])C4(C([H])([H])[H])C([H])(C([H])(C([H])([H])[H])C([H])([H])C([H])([H])C(=O)[O-])C([H])([H])C([H])([H])C4([H])C31[H])C2(O[H])C(=O)OC([H])([H])[H]

$$$$
89:0:1
     RDKit          3D

 95100  0  0  1  0  0  0  0  0999 V2000
    2.7655    4.8232    2.8130 C   0  0  0  0  0  0  0  0  0  0  0  0
    2.1922    3.5596    3.0995 O   0  0  0  0  0  0  0  0  0  0  0  0
    1.8321    3.2884    4.3593 C   0  0  0  0  0  0  0  0  0  0  0  0
    2.0042    4.0553    5.3176 O   0  0  0  0  0  0  0  0  0  0  0  0
    1.0688    1.9596    4.5007 C   0  0  1  0  0  0  0  0  0  0  0  0
   -0.1457    2.2018    3.8091 O   0  0  0  0  0  0  0  0  0  0  0  0
    1.6951    0.6718    3.7760 C   0  0  2  0  0  0  0  0  0  0  0  0
    1.4406    0.7999    2.3758 O   0  0  0  0  0  0  0  0  0  0  0  0
    0.7858   -0.4243    4.3720 C   0  0  0  0  0  0  0  0  0  0  0  0
    0.4952   -1.4856    3.7935 O   0  0  0  0  0  0  0  0  0  0  0  0
    0.0850    0.0275    5.6518 C   0  0  2  0  0  0  0  0  0  0  0  0
   -1.4563   -0.0005    5.4968 C   0  0  0  0  0  0  0  0  0  0  0  0
   -2.0427   -0.7451    4.7104 O   0  0  0  0  0  0  0  0  0  0  0  0
   -2.1560    0.8048    6.3114 O   0  0  0  0  0  0  0  0  0  0  0  0
   -1.5708    1.6294    7.3162 C   0  0  2  0  0  0  0  0  0  0  0  0
   -2.3364    2.9540    7.4819 C   0  0  0  0  0  0  0  0  0  0  0  0
   -1.1605    3.7777    6.3260 S   0  0  0  0  0  0  0  0  0  0  0  0
   -1.8971    3.6630    4.9828 O   0  0  0  0  0  0  0  0  0  0  0  0
   -0.2457    2.2534    6.8789 C   0  0  2  0  0  0  0  0  0  0  0  0
    0.7250    1.4221    5.9750 C   0  0  2  0  0  0  0  0  0  0  0  0
    1.9623    1.0817    6.8887 C   0  0  0  0  0  0  0  0  0  0  0  0
    1.8182    0.5924    8.1924 C   0  0  0  0  0  0  0  0  0  0  0  0
    3.0123    0.3485    9.1166 C   0  0  0  0  0  0  0  0  0  0  0  0
    0.7954    0.2481    8.8389 O   0  0  0  0  0  0  0  0  0  0  0  0
    3.3128    1.3344    6.3470 C   0  0  0  0  0  0  0  0  0  0  0  0
    3.9177    2.3420    6.7002 O   0  0  0  0  0  0  0  0  0  0  0  0
    3.9719    0.3751    5.3300 C   0  0  1  0  0  0  0  0  0  0  0  0
    5.3151    0.8800    5.0762 O   0  0  0  0  0  0  0  0  0  0  0  0
    6.3389    0.8252    6.0827 C   0  0  0  0  0  0  0  0  0  0  0  0
    4.1828   -1.0912    5.9050 C   0  0  1  0  0  0  0  0  0  0  0  0
    2.9230   -1.6818    6.2907 O   0  0  0  0  0  0  0  0  0  0  0  0
    2.7142   -2.4682    7.3667 C   0  0  0  0  0  0  0  0  0  0  0  0
    3.8965   -2.7755    8.2947 C   0  0  0  0  0  0  0  0  0  0  0  0
    1.6144   -2.9710    7.5760 O   0  0  0  0  0  0  0  0  0  0  0  0
    4.9207   -2.0155    4.8645 C   0  0  1  0  0  0  0  0  0  0  0  0
    5.2092   -3.2917    5.4265 O   0  0  0  0  0  0  0  0  0  0  0  0
    6.2226   -3.5027    6.3159 C   0  0  0  0  0  0  0  0  0  0  0  0
    6.3296   -4.9631    6.7364 C   0  0  0  0  0  0  0  0  0  0  0  0
    7.0076   -2.6649    6.7486 O   0  0  0  0  0  0  0  0  0  0  0  0
    4.2555   -2.0871    3.4740 C   0  0  2  0  0  0  0  0  0  0  0  0
    2.9786   -2.9925    3.4324 C   0  0  0  0  0  0  0  0  0  0  0  0
    5.2377   -2.5519    2.3433 C   0  0  1  0  0  0  0  0  0  0  0  0
    5.5424   -4.0620    1.9401 C   0  0  2  0  0  0  0  0  0  0  0  0
    5.5278   -5.1634    3.0490 C   0  0  0  0  0  0  0  0  0  0  0  0
    6.9166   -4.2409    1.2113 C   0  0  0  0  0  0  0  0  0  0  0  0
    7.4381   -3.1762    0.2171 C   0  0  0  0  0  0  0  0  0  0  0  0
    6.5480   -2.9729   -1.0130 C   0  0  0  0  0  0  0  0  0  0  0  0
    6.7099   -1.9214   -1.6542 O   0  0  0  0  0  0  0  0  0  0  0  0
    5.7555   -3.8885   -1.3291 O   0  0  0  0  0  0  0  0  0  0  0  0
    4.7467   -1.7181    1.1088 C   0  0  0  0  0  0  0  0  0  0  0  0
    3.7418   -0.6796    1.5365 C   0  0  0  0  0  0  0  0  0  0  0  0
    4.0226   -0.6221    3.0268 C   0  0  1  0  0  0  0  0  0  0  0  0
    3.2826    0.4407    3.9238 C   0  0  1  0  0  0  0  0  0  0  0  0
    2.9800    4.8833    1.7453 H   0  0  0  0  0  0  0  0  0  0  0  0
    3.7007    4.9549    3.3679 H   0  0  0  0  0  0  0  0  0  0  0  0
    2.0837    5.6429    3.0751 H   0  0  0  0  0  0  0  0  0  0  0  0
    0.0884    2.4445    2.9266 H   0  0  0  0  0  0  0  0  0  0  0  0
    1.9769    1.4936    2.0357 H   0  0  0  0  0  0  0  0  0  0  0  0
    0.2869   -0.6929    6.4238 H   0  0  0  0  0  0  0  0  0  0  0  0
   -1.4733    1.1386    8.2649 H   0  0  0  0  0  0  0  0  0  0  0  0
   -3.3562    2.9061    7.1034 H   0  0  0  0  0  0  0  0  0  0  0  0
   -2.2984    3.3633    8.4973 H   0  0  0  0  0  0  0  0  0  0  0  0
    0.2781    2.6666    7.7428 H   0  0  0  0  0  0  0  0  0  0  0  0
    3.9745    0.4305    8.6232 H   0  0  0  0  0  0  0  0  0  0  0  0
    2.9843   -0.6435    9.5604 H   0  0  0  0  0  0  0  0  0  0  0  0
    3.0230    1.0489    9.9461 H   0  0  0  0  0  0  0  0  0  0  0  0
    7.1687    1.4620    5.7842 H   0  0  0  0  0  0  0  0  0  0  0  0
    6.7586   -0.1689    6.1950 H   0  0  0  0  0  0  0  0  0  0  0  0
    6.0279    1.1511    7.0715 H   0  0  0  0  0  0  0  0  0  0  0  0
    4.7762   -0.9791    6.7900 H   0  0  0  0  0  0  0  0  0  0  0  0
    4.3618   -3.6605    7.8939 H   0  0  0  0  0  0  0  0  0  0  0  0
    3.5624   -3.0624    9.3056 H   0  0  0  0  0  0  0  0  0  0  0  0
    4.6247   -1.9611    8.3602 H   0  0  0  0  0  0  0  0  0  0  0  0
    5.8615   -1.5051    4.7140 H   0  0  0  0  0  0  0  0  0  0  0  0
    5.3438   -5.3052    7.0260 H   0  0  0  0  0  0  0  0  0  0  0  0
    6.9905   -5.0864    7.5964 H   0  0  0  0  0  0  0  0  0  0  0  0
    6.6803   -5.6330    5.9375 H   0  0  0  0  0  0  0  0  0  0  0  0
    2.4056   -2.8133    2.4993 H   0  0  0  0  0  0  0  0  0  0  0  0
    2.3137   -2.7446    4.2552 H   0  0  0  0  0  0  0  0  0  0  0  0
    3.1567   -4.0345    3.5235 H   0  0  0  0  0  0  0  0  0  0  0  0
    6.1938   -2.1206    2.6303 H   0  0  0  0  0  0  0  0  0  0  0  0
    4.7612   -4.3638    1.2404 H   0  0  0  0  0  0  0  0  0  0  0  0
    6.2526   -4.8981    3.8277 H   0  0  0  0  0  0  0  0  0  0  0  0
    5.9361   -6.1045    2.6450 H   0  0  0  0  0  0  0  0  0  0  0  0
    4.5736   -5.3764    3.4909 H   0  0  0  0  0  0  0  0  0  0  0  0
    7.7010   -4.3504    1.9716 H   0  0  0  0  0  0  0  0  0  0  0  0
    6.9110   -5.2067    0.6922 H   0  0  0  0  0  0  0  0  0  0  0  0
    7.5169   -2.2144    0.7140 H   0  0  0  0  0  0  0  0  0  0  0  0
    8.4674   -3.4073   -0.1112 H   0  0  0  0  0  0  0  0  0  0  0  0
    5.5687   -1.1422    0.6574 H   0  0  0  0  0  0  0  0  0  0  0  0
    4.2585   -2.3341    0.3466 H   0  0  0  0  0  0  0  0  0  0  0  0
    3.9047    0.2792    1.0299 H   0  0  0  0  0  0  0  0  0  0  0  0
    2.7282   -1.0250    1.3081 H   0  0  0  0  0  0  0  0  0  0  0  0
    5.0236   -0.1918    3.0161 H   0  0  0  0  0  0  0  0  0  0  0  0
    3.6478    1.3800    3.5020 H   0  0  0  0  0  0  0  0  0  0  0  0
  1  2  1  0
  1 54  1  0
  1 55  1  0
  1 56  1  0
  2  3  1  0
  3  4  2  0
  3  5  1  0
  5 20  1  0
  5  6  1  6
  5  7  1  0
  6 57  1  0
  7 53  1  0
  7  8  1  6
  7  9  1  0
  8 58  1  0
  9 10  2  0
  9 11  1  0
 11 20  1  0
 11 12  1  0
 11 59  1  1
 12 13  2  0
 12 14  1  0
 14 15  1  0
 15 19  1  0
 15 16  1  0
 15 60  1  1
 17 16  1  1
 16 61  1  0
 16 62  1  0
 17 18  2  0
 17 19  1  0
 19 20  1  0
 19 63  1  1
 20 21  1  1
 21 22  2  0
 21 25  1  0
 22 23  1  0
 22 24  1  0
 23 64  1  0
 23 65  1  0
 23 66  1  0
 25 26  2  0
 25 27  1  0
 27 53  1  0
 27 28  1  6
 27 30  1  0
 28 29  1  0
 29 67  1  0
 29 68  1  0
 29 69  1  0
 30 31  1  0
 30 35  1  0
 30 70  1  1
 31 32  1  0
 32 33  1  0
 32 34  2  0
 33 71  1  0
 33 72  1  0
 33 73  1  0
 35 36  1  0
 35 40  1  0
 35 74  1  6
 36 37  1  0
 37 38  1  0
 37 39  2  0
 38 75  1  0
 38 76  1  0
 38 77  1  0
 40 52  1  0
 40 41  1  1
 40 42  1  0
 41 78  1  0
 41 79  1  0
 41 80  1  0
 42 43  1  0
 42 50  1  0
 42 81  1  1
 43 44  1  0
 43 45  1  0
 43 82  1  6
 44 83  1  0
 44 84  1  0
 44 85  1  0
 45 46  1  0
 45 86  1  0
 45 87  1  0
 46 47  1  0
 46 88  1  0
 46 89  1  0
 47 48  1  0
 47 49  2  0
 50 51  1  0
 50 90  1  0
 50 91  1  0
 51 52  1  0
 51 92  1  0
 51 93  1  0
 52 53  1  0
 52 94  1  6
 53 95  1  6
M  CHG  2  24  -1  48  -1
M  END
>  <i_m_ct_stereo_status>  (219) 
1

>  <s_m_source_file>  (219) 
/var/tmp/pbs.5075288.sched01/tmpo2oug7hv/195455be7ie.sdf

>  <i_m_source_file_index>  (219) 
40

>  <i_lp_mmshare_version>  (219) 
48012

>  <i_f3d_flags>  (219) 
0

>  <s_epik_input>  (219) 
W0NIMl0xW1MrXShbTy1dKVtDQEhdMltDQEBIXTFPQyg9TylbQ0BIXShbQ0BdMjM0KUMoPU8pW0NAQF0oW09IXSkoW0NAXTMoW09IXSlDKD1PKU9bQ0gzXSlbQ0BIXTVbQ0BAXShPW0NIM10pKEMoPU8pW0NAQEhdNEMoPU8pW0NIM10pW0NAQEhdKE9DKD1PKVtDSDNdKVtDQEBIXShPQyg9TylbQ0gzXSlbQ0BAXTYoW0NIM10pW0NASF01W0NIMl1bQ0gyXVtDQEBIXTZbQ0BIXShbQ0gzXSlbQ0gyXVtDSDJdQyg9TylbT0hd

>  <s_epik_cmdline>  (219) 
J2VwaWtfcHl0aG9uJywgJy1waHQnLCAnMi4wJywgJy1waCcsICc3LjAnLCAnLXRuJywgJzgnLCAnLW1hJywgJzIwMCcsICctaW1hZScsICc8aW5maWxlLm1hZT4nLCAnLW9tYWUnLCAnPG91dGZpbGUubWFlPic=

>  <r_lp_tautomer_probability>  (219) 
1

>  <r_epik_Ionization_Penalty>  (219) 
0.011693

>  <r_epik_Ionization_Penalty_Charging>  (219) 
0.0111754

>  <r_epik_Ionization_Penalty_Neutral>  (219) 
0.000517624

>  <r_epik_State_Penalty>  (219) 
-0

>  <r_epik_Charging_Adjusted_Penalty>  (219) 
0.0111754

>  <i_epik_Tot_Q>  (219) 
-2

>  <i_epik_Tot_abs_Q>  (219) 
4

>  <s_epik_Chemistry_Notes>  (219) 
This compound has an ester and may undergo hydrolysis at high or low pH.

>  <s_lp_Force_Field>  (219) 
OPLS3e

>  <r_lp_Energy>  (219) 
109.769

>  <b_lp_Chiralities_Consistent>  (219) 
1

>  <s_lp_Variant>  (219) 
89:0-1

>  <s_i_glide_gridfile>  (219) 
pfpi4k_grid

>  <i_i_glide_lignum>  (219) 
40

>  <i_i_glide_rotatable_bonds>  (219) 
13

>  <r_i_docking_score>  (219) 
-3.52363

>  <r_i_glide_ligand_efficiency>  (219) 
-0.0664837

>  <r_i_glide_ligand_efficiency_sa>  (219) 
-0.249732

>  <r_i_glide_ligand_efficiency_ln>  (219) 
-0.708939

>  <r_i_glide_gscore>  (219) 
-3.52363

>  <r_i_glide_lipo>  (219) 
-0.685712

>  <r_i_glide_hbond>  (219) 
-0.32682

>  <r_i_glide_metal>  (219) 
-0

>  <r_i_glide_rewards>  (219) 
-0.582587

>  <r_i_glide_evdw>  (219) 
-34.7939

>  <r_i_glide_ecoul>  (219) 
-0.95576

>  <r_i_glide_erotb>  (219) 
0.0245045

>  <r_i_glide_esite>  (219) 
-0.0699598

>  <r_i_glide_emodel>  (219) 
-46.0109

>  <r_i_glide_energy>  (219) 
-35.7497

>  <r_i_glide_einternal>  (219) 
10.0984

>  <r_i_glide_intrahb_reward>  (219) 
-0.5

>  <i_i_glide_confnum>  (219) 
2

>  <i_i_glide_posenum>  (219) 
21

>  <r_i_glide_eff_state_penalty>  (219) 
0

>  <ligand_id>  (219) 
89

>  <original_smiles>  (219) 
COC(=O)C1(O)C2(O)C(=O)C3C(=O)OC4C[S+]([O-])C4C31C(C(C)=O)C(=O)C1(OC)C(OC(C)=O)C(OC(C)=O)C3(C)C(C(C)CCC(=O)O)CCC3C12

>  <smiles>  (219) 
[H]OC12C(=O)C3([H])C(=O)OC4([H])C([H])([H])S(=O)C4([H])C3(C(=C([O-])C([H])([H])[H])C(=O)C3(OC([H])([H])[H])C([H])(OC(=O)C([H])([H])[H])C([H])(OC(=O)C([H])([H])[H])C4(C([H])([H])[H])C([H])(C([H])(C([H])([H])[H])C([H])([H])C([H])([H])C(=O)[O-])C([H])([H])C([H])([H])C4([H])C31[H])C2(O[H])C(=O)OC([H])([H])[H]

$$$$
89:0:2
     RDKit          3D

 95100  0  0  1  0  0  0  0  0999 V2000
    2.8544    4.6121    2.7475 C   0  0  0  0  0  0  0  0  0  0  0  0
    2.1519    3.4170    3.0410 O   0  0  0  0  0  0  0  0  0  0  0  0
    1.7754    3.1704    4.3171 C   0  0  0  0  0  0  0  0  0  0  0  0
    2.0109    3.9254    5.2547 O   0  0  0  0  0  0  0  0  0  0  0  0
    0.9664    1.8680    4.4827 C   0  0  1  0  0  0  0  0  0  0  0  0
   -0.2732    2.1872    3.8643 O   0  0  0  0  0  0  0  0  0  0  0  0
    1.4881    0.5912    3.6802 C   0  0  2  0  0  0  0  0  0  0  0  0
    1.1333    0.7624    2.2993 O   0  0  0  0  0  0  0  0  0  0  0  0
    0.6062   -0.5005    4.3035 C   0  0  0  0  0  0  0  0  0  0  0  0
    0.2633   -1.5496    3.7504 O   0  0  0  0  0  0  0  0  0  0  0  0
    0.0173   -0.0403    5.6452 C   0  0  2  0  0  0  0  0  0  0  0  0
   -1.5521   -0.0202    5.6079 C   0  0  0  0  0  0  0  0  0  0  0  0
   -2.2013   -0.7420    4.8589 O   0  0  0  0  0  0  0  0  0  0  0  0
   -2.1770    0.8242    6.4621 O   0  0  0  0  0  0  0  0  0  0  0  0
   -1.4888    1.5809    7.4489 C   0  0  2  0  0  0  0  0  0  0  0  0
   -2.1810    2.9208    7.7143 C   0  0  0  0  0  0  0  0  0  0  0  0
   -1.0622    3.7263    6.4956 S   0  0  0  0  0  0  0  0  0  0  0  0
   -1.8692    3.7041    5.1972 O   0  0  0  0  0  0  0  0  0  0  0  0
   -0.1543    2.1640    6.9377 C   0  0  2  0  0  0  0  0  0  0  0  0
    0.7088    1.3281    5.9616 C   0  0  2  0  0  0  0  0  0  0  0  0
    2.0035    0.9174    6.7734 C   0  0  0  0  0  0  0  0  0  0  0  0
    1.9292    0.3936    8.0517 C   0  0  0  0  0  0  0  0  0  0  0  0
    3.1848    0.0800    8.8908 C   0  0  0  0  0  0  0  0  0  0  0  0
    0.9515    0.0739    8.7787 O   0  0  0  0  0  0  0  0  0  0  0  0
    3.3193    1.1245    6.1387 C   0  0  0  0  0  0  0  0  0  0  0  0
    3.9659    2.1092    6.4533 O   0  0  0  0  0  0  0  0  0  0  0  0
    3.8809    0.1460    5.0779 C   0  0  1  0  0  0  0  0  0  0  0  0
    5.2071    0.6306    4.7137 O   0  0  0  0  0  0  0  0  0  0  0  0
    6.2893    0.5306    5.6505 C   0  0  0  0  0  0  0  0  0  0  0  0
    4.0704   -1.3363    5.5890 C   0  0  1  0  0  0  0  0  0  0  0  0
    2.8201   -1.8897    6.0064 O   0  0  0  0  0  0  0  0  0  0  0  0
    2.6350   -2.6734    7.1106 C   0  0  0  0  0  0  0  0  0  0  0  0
    3.8841   -3.0352    7.9419 C   0  0  0  0  0  0  0  0  0  0  0  0
    1.5215   -3.1312    7.3909 O   0  0  0  0  0  0  0  0  0  0  0  0
    4.7344   -2.2408    4.4870 C   0  0  1  0  0  0  0  0  0  0  0  0
    4.9945   -3.5585    4.9480 O   0  0  0  0  0  0  0  0  0  0  0  0
    5.9512   -3.8107    5.8690 C   0  0  0  0  0  0  0  0  0  0  0  0
    6.0524   -5.2917    6.2225 C   0  0  0  0  0  0  0  0  0  0  0  0
    6.7335   -2.9927    6.3704 O   0  0  0  0  0  0  0  0  0  0  0  0
    3.9607   -2.2708    3.1297 C   0  0  2  0  0  0  0  0  0  0  0  0
    2.6916   -3.1702    3.1567 C   0  0  0  0  0  0  0  0  0  0  0  0
    4.8299   -2.6929    1.8654 C   0  0  1  0  0  0  0  0  0  0  0  0
    5.0096   -4.1994    1.4061 C   0  0  2  0  0  0  0  0  0  0  0  0
    5.4942   -5.1752    2.5087 C   0  0  0  0  0  0  0  0  0  0  0  0
    5.9982   -4.3680    0.2056 C   0  0  0  0  0  0  0  0  0  0  0  0
    5.5835   -3.7504   -1.1655 C   0  0  0  0  0  0  0  0  0  0  0  0
    6.1631   -2.3392   -1.4055 C   0  0  0  0  0  0  0  0  0  0  0  0
    5.5051   -1.5857   -2.1397 O   0  0  0  0  0  0  0  0  0  0  0  0
    7.2770   -2.0383   -0.9024 O   0  0  0  0  0  0  0  0  0  0  0  0
    4.2473   -1.8145    0.7247 C   0  0  0  0  0  0  0  0  0  0  0  0
    3.2906   -0.7994    1.2837 C   0  0  0  0  0  0  0  0  0  0  0  0
    3.6902   -0.7794    2.7486 C   0  0  1  0  0  0  0  0  0  0  0  0
    3.0730    0.2901    3.7264 C   0  0  1  0  0  0  0  0  0  0  0  0
    3.0558    4.6365    1.6764 H   0  0  0  0  0  0  0  0  0  0  0  0
    3.8031    4.6302    3.2882 H   0  0  0  0  0  0  0  0  0  0  0  0
    2.2702    5.4975    3.0182 H   0  0  0  0  0  0  0  0  0  0  0  0
   -0.0986    2.4369    2.9711 H   0  0  0  0  0  0  0  0  0  0  0  0
    1.6683    1.4316    1.9398 H   0  0  0  0  0  0  0  0  0  0  0  0
    0.2294   -0.7910    6.3833 H   0  0  0  0  0  0  0  0  0  0  0  0
   -1.3259    1.0444    8.3701 H   0  0  0  0  0  0  0  0  0  0  0  0
   -3.2165    2.9093    7.4227 H   0  0  0  0  0  0  0  0  0  0  0  0
   -2.0470    3.2951    8.7237 H   0  0  0  0  0  0  0  0  0  0  0  0
    0.4435    2.5381    7.7678 H   0  0  0  0  0  0  0  0  0  0  0  0
    4.1143    0.1377    8.3325 H   0  0  0  0  0  0  0  0  0  0  0  0
    3.1481   -0.9195    9.3147 H   0  0  0  0  0  0  0  0  0  0  0  0
    3.2842    0.7564    9.7366 H   0  0  0  0  0  0  0  0  0  0  0  0
    7.1206    1.1360    5.3008 H   0  0  0  0  0  0  0  0  0  0  0  0
    6.6725   -0.4809    5.7374 H   0  0  0  0  0  0  0  0  0  0  0  0
    6.0657    0.8648    6.6629 H   0  0  0  0  0  0  0  0  0  0  0  0
    4.6982   -1.2848    6.4513 H   0  0  0  0  0  0  0  0  0  0  0  0
    4.2840   -3.9260    7.4716 H   0  0  0  0  0  0  0  0  0  0  0  0
    3.6023   -3.3009    8.9698 H   0  0  0  0  0  0  0  0  0  0  0  0
    4.6292   -2.2155    7.9068 H   0  0  0  0  0  0  0  0  0  0  0  0
    5.6966   -1.7821    4.2490 H   0  0  0  0  0  0  0  0  0  0  0  0
    5.0492   -5.6197    6.4675 H   0  0  0  0  0  0  0  0  0  0  0  0
    6.6796   -5.4330    7.1012 H   0  0  0  0  0  0  0  0  0  0  0  0
    6.4281   -5.9330    5.4077 H   0  0  0  0  0  0  0  0  0  0  0  0
    2.0653   -3.0079    2.2762 H   0  0  0  0  0  0  0  0  0  0  0  0
    2.0802   -3.0128    4.0342 H   0  0  0  0  0  0  0  0  0  0  0  0
    2.9300   -4.2311    3.1692 H   0  0  0  0  0  0  0  0  0  0  0  0
    5.8420   -2.3460    2.0803 H   0  0  0  0  0  0  0  0  0  0  0  0
    4.0394   -4.5768    1.0803 H   0  0  0  0  0  0  0  0  0  0  0  0
    6.4136   -4.8332    2.9821 H   0  0  0  0  0  0  0  0  0  0  0  0
    5.6934   -6.1754    2.1177 H   0  0  0  0  0  0  0  0  0  0  0  0
    4.7558   -5.3326    3.2889 H   0  0  0  0  0  0  0  0  0  0  0  0
    6.9952   -4.0490    0.5152 H   0  0  0  0  0  0  0  0  0  0  0  0
    6.1165   -5.4285    0.0028 H   0  0  0  0  0  0  0  0  0  0  0  0
    5.9208   -4.3400   -2.0332 H   0  0  0  0  0  0  0  0  0  0  0  0
    4.4947   -3.6721   -1.2526 H   0  0  0  0  0  0  0  0  0  0  0  0
    5.0692   -1.2263    0.3183 H   0  0  0  0  0  0  0  0  0  0  0  0
    3.7332   -2.4092   -0.0257 H   0  0  0  0  0  0  0  0  0  0  0  0
    3.4563    0.1680    0.8175 H   0  0  0  0  0  0  0  0  0  0  0  0
    2.2394   -1.0864    1.1440 H   0  0  0  0  0  0  0  0  0  0  0  0
    4.7085   -0.3782    2.6774 H   0  0  0  0  0  0  0  0  0  0  0  0
    3.4552    1.2138    3.2802 H   0  0  0  0  0  0  0  0  0  0  0  0
  1  2  1  0
  1 54  1  0
  1 55  1  0
  1 56  1  0
  2  3  1  0
  3  4  2  0
  3  5  1  0
  5 20  1  0
  5  6  1  6
  5  7  1  0
  6 57  1  0
  7 53  1  0
  7  8  1  6
  7  9  1  0
  8 58  1  0
  9 10  2  0
  9 11  1  0
 11 20  1  0
 11 12  1  0
 11 59  1  1
 12 13  2  0
 12 14  1  0
 14 15  1  0
 15 19  1  0
 15 16  1  0
 15 60  1  1
 17 16  1  1
 16 61  1  0
 16 62  1  0
 17 18  2  0
 17 19  1  0
 19 20  1  0
 19 63  1  1
 20 21  1  1
 21 22  2  0
 21 25  1  0
 22 23  1  0
 22 24  1  0
 23 64  1  0
 23 65  1  0
 23 66  1  0
 25 26  2  0
 25 27  1  0
 27 53  1  0
 27 28  1  6
 27 30  1  0
 28 29  1  0
 29 67  1  0
 29 68  1  0
 29 69  1  0
 30 31  1  0
 30 35  1  0
 30 70  1  1
 31 32  1  0
 32 33  1  0
 32 34  2  0
 33 71  1  0
 33 72  1  0
 33 73  1  0
 35 36  1  0
 35 40  1  0
 35 74  1  6
 36 37  1  0
 37 38  1  0
 37 39  2  0
 38 75  1  0
 38 76  1  0
 38 77  1  0
 40 52  1  0
 40 41  1  1
 40 42  1  0
 41 78  1  0
 41 79  1  0
 41 80  1  0
 42 43  1  0
 42 50  1  0
 42 81  1  1
 43 44  1  0
 43 45  1  0
 43 82  1  6
 44 83  1  0
 44 84  1  0
 44 85  1  0
 45 46  1  0
 45 86  1  0
 45 87  1  0
 46 47  1  0
 46 88  1  0
 46 89  1  0
 47 48  1  0
 47 49  2  0
 50 51  1  0
 50 90  1  0
 50 91  1  0
 51 52  1  0
 51 92  1  0
 51 93  1  0
 52 53  1  0
 52 94  1  6
 53 95  1  6
M  CHG  2  24  -1  48  -1
M  END
>  <i_m_ct_stereo_status>  (220) 
1

>  <s_m_source_file>  (220) 
/var/tmp/pbs.5075288.sched01/tmpo2oug7hv/195455be7ie.sdf

>  <i_m_source_file_index>  (220) 
40

>  <i_lp_mmshare_version>  (220) 
48012

>  <i_f3d_flags>  (220) 
0

>  <s_epik_input>  (220) 
W0NIMl0xW1MrXShbTy1dKVtDQEhdMltDQEBIXTFPQyg9TylbQ0BIXShbQ0BdMjM0KUMoPU8pW0NAQF0oW09IXSkoW0NAXTMoW09IXSlDKD1PKU9bQ0gzXSlbQ0BIXTVbQ0BAXShPW0NIM10pKEMoPU8pW0NAQEhdNEMoPU8pW0NIM10pW0NAQEhdKE9DKD1PKVtDSDNdKVtDQEBIXShPQyg9TylbQ0gzXSlbQ0BAXTYoW0NIM10pW0NASF01W0NIMl1bQ0gyXVtDQEBIXTZbQ0BIXShbQ0gzXSlbQ0gyXVtDSDJdQyg9TylbT0hd

>  <s_epik_cmdline>  (220) 
J2VwaWtfcHl0aG9uJywgJy1waHQnLCAnMi4wJywgJy1waCcsICc3LjAnLCAnLXRuJywgJzgnLCAnLW1hJywgJzIwMCcsICctaW1hZScsICc8aW5maWxlLm1hZT4nLCAnLW9tYWUnLCAnPG91dGZpbGUubWFlPic=

>  <r_lp_tautomer_probability>  (220) 
1

>  <r_epik_Ionization_Penalty>  (220) 
0.011693

>  <r_epik_Ionization_Penalty_Charging>  (220) 
0.0111754

>  <r_epik_Ionization_Penalty_Neutral>  (220) 
0.000517624

>  <r_epik_State_Penalty>  (220) 
-0

>  <r_epik_Charging_Adjusted_Penalty>  (220) 
0.0111754

>  <i_epik_Tot_Q>  (220) 
-2

>  <i_epik_Tot_abs_Q>  (220) 
4

>  <s_epik_Chemistry_Notes>  (220) 
This compound has an ester and may undergo hydrolysis at high or low pH.

>  <s_lp_Force_Field>  (220) 
OPLS3e

>  <r_lp_Energy>  (220) 
109.769

>  <b_lp_Chiralities_Consistent>  (220) 
1

>  <s_lp_Variant>  (220) 
89:0-1

>  <s_i_glide_gridfile>  (220) 
pfpi4k_grid

>  <i_i_glide_lignum>  (220) 
40

>  <i_i_glide_rotatable_bonds>  (220) 
13

>  <r_i_docking_score>  (220) 
-3.45768

>  <r_i_glide_ligand_efficiency>  (220) 
-0.0652392

>  <r_i_glide_ligand_efficiency_sa>  (220) 
-0.245057

>  <r_i_glide_ligand_efficiency_ln>  (220) 
-0.695669

>  <r_i_glide_gscore>  (220) 
-3.45768

>  <r_i_glide_lipo>  (220) 
-0.512497

>  <r_i_glide_hbond>  (220) 
-0.36

>  <r_i_glide_metal>  (220) 
-0

>  <r_i_glide_rewards>  (220) 
-0.525061

>  <r_i_glide_evdw>  (220) 
-34.0279

>  <r_i_glide_ecoul>  (220) 
-1.70768

>  <r_i_glide_erotb>  (220) 
0.0245045

>  <r_i_glide_esite>  (220) 
-0.127078

>  <r_i_glide_emodel>  (220) 
-45.0903

>  <r_i_glide_energy>  (220) 
-35.7356

>  <r_i_glide_einternal>  (220) 
9.15784

>  <r_i_glide_intrahb_reward>  (220) 
-0.5

>  <i_i_glide_confnum>  (220) 
3

>  <i_i_glide_posenum>  (220) 
40

>  <r_i_glide_eff_state_penalty>  (220) 
0

>  <ligand_id>  (220) 
89

>  <original_smiles>  (220) 
COC(=O)C1(O)C2(O)C(=O)C3C(=O)OC4C[S+]([O-])C4C31C(C(C)=O)C(=O)C1(OC)C(OC(C)=O)C(OC(C)=O)C3(C)C(C(C)CCC(=O)O)CCC3C12

>  <smiles>  (220) 
[H]OC12C(=O)C3([H])C(=O)OC4([H])C([H])([H])S(=O)C4([H])C3(C(=C([O-])C([H])([H])[H])C(=O)C3(OC([H])([H])[H])C([H])(OC(=O)C([H])([H])[H])C([H])(OC(=O)C([H])([H])[H])C4(C([H])([H])[H])C([H])(C([H])(C([H])([H])[H])C([H])([H])C([H])([H])C(=O)[O-])C([H])([H])C([H])([H])C4([H])C31[H])C2(O[H])C(=O)OC([H])([H])[H]

$$$$
95:0:0
     RDKit          3D

117125  0  0  1  0  0  0  0  0999 V2000
    5.2523   -6.8148    6.5775 C   0  0  0  0  0  0  0  0  0  0  0  0
    4.7047   -5.5081    6.6250 O   0  0  0  0  0  0  0  0  0  0  0  0
    5.1098   -4.7660    7.7670 C   0  0  0  0  0  0  0  0  0  0  0  0
    4.4409   -3.3731    7.7313 C   0  0  2  0  0  0  0  0  0  0  0  0
    3.0131   -3.4984    7.8359 O   0  0  0  0  0  0  0  0  0  0  0  0
    2.2711   -2.4963    7.1180 C   0  0  1  0  0  0  0  0  0  0  0  0
    0.8823   -3.2550    6.7976 C   0  0  2  0  0  0  0  0  0  0  0  0
    1.0218   -4.8119    6.6121 C   0  0  0  0  0  0  0  0  0  0  0  0
    0.0376   -2.7201    5.6806 N   0  0  0  0  0  0  0  0  0  0  0  0
    0.1969   -3.3480    4.3569 C   0  0  0  0  0  0  0  0  0  0  0  0
   -1.3972   -2.5552    5.9880 C   0  0  0  0  0  0  0  0  0  0  0  0
    2.1849   -1.4045    8.2839 C   0  0  0  0  0  0  0  0  0  0  0  0
    2.1040    0.1474    8.1257 C   0  0  1  0  0  0  0  0  0  0  0  0
    3.3543    0.6381    6.8368 S   0  0  0  0  0  0  0  0  0  0  0  0
    4.2350    1.7153    7.4506 O   0  0  0  0  0  0  0  0  0  0  0  0
    2.6169    1.2151    5.1769 C   0  0  1  0  0  0  0  0  0  0  0  0
    3.4958    2.4706    4.8979 C   0  0  0  0  0  0  0  0  0  0  0  0
    3.1592    0.0145    4.2418 C   0  0  1  0  0  0  0  0  0  0  0  0
    4.5775    0.1120    3.5991 C   0  0  0  0  0  0  0  0  0  0  0  0
    4.6934   -0.7154    2.2756 C   0  0  0  0  0  0  0  0  0  0  0  0
    4.3751   -2.2127    2.4866 C   0  0  1  0  0  0  0  0  0  0  0  0
    5.5383   -2.8597    3.2259 C   0  0  0  0  0  0  0  0  0  0  0  0
    3.0703   -2.3218    3.2424 C   0  0  1  0  0  0  0  0  0  0  0  0
    2.8613   -3.7192    3.1680 O   0  0  0  0  0  0  0  0  0  0  0  0
    3.1391   -4.1480    1.8883 C   0  0  2  0  0  0  0  0  0  0  0  0
    3.9003   -5.2884    1.9199 O   0  0  0  0  0  0  0  0  0  0  0  0
    4.8429   -5.1771    0.9154 C   0  0  0  0  0  0  0  0  0  0  0  0
    6.1318   -5.8909    1.3605 C   0  0  0  0  0  0  0  0  0  0  0  0
    4.2483   -5.8268   -0.3326 C   0  0  0  0  0  0  0  0  0  0  0  0
    5.1269   -3.8402    0.6783 O   0  0  0  0  0  0  0  0  0  0  0  0
    4.0460   -3.1028    1.2519 C   0  0  2  0  0  0  0  0  0  0  0  0
    3.3274   -2.3767    0.0785 C   0  0  0  0  0  0  0  0  0  0  0  0
    2.8784   -1.5103    4.5868 C   0  0  1  0  0  0  0  0  0  0  0  0
    3.2677   -2.3496    5.8949 C   0  0  1  0  0  0  0  0  0  0  0  0
    4.6950   -2.5886    6.4368 C   0  0  1  0  0  0  0  0  0  0  0  0
    5.4927   -1.4411    6.6782 O   0  0  0  0  0  0  0  0  0  0  0  0
    1.0415    1.8717    5.0049 C   0  0  1  0  0  0  0  0  0  0  0  0
   -0.1000    1.2854    4.0400 C   0  0  0  0  0  0  0  0  0  0  0  0
   -0.8045    2.4477    3.2865 C   0  0  0  0  0  0  0  0  0  0  0  0
    0.2263    0.3006    2.9043 C   0  0  0  0  0  0  0  0  0  0  0  0
   -1.1017    0.5560    4.7646 O   0  0  0  0  0  0  0  0  0  0  0  0
   -1.1653    0.6503    6.1725 C   0  0  1  0  0  0  0  0  0  0  0  0
    0.0411   -0.0297    6.8488 C   0  0  0  0  0  0  0  0  0  0  0  0
    0.7742    0.8582    7.8588 C   0  0  1  0  0  0  0  0  0  0  0  0
   -0.3227    1.0489    8.9254 C   0  0  0  0  0  0  0  0  0  0  0  0
   -1.4306    1.9152    8.2254 C   0  0  0  0  0  0  0  0  0  0  0  0
   -1.2032    2.0789    6.6590 C   0  0  2  0  0  0  0  0  0  0  0  0
   -2.4392    2.8568    6.1212 C   0  0  0  0  0  0  0  0  0  0  0  0
    0.2616    2.6109    6.2418 C   0  0  2  0  0  0  0  0  0  0  0  0
    0.2383    4.0250    6.0552 O   0  0  0  0  0  0  0  0  0  0  0  0
    1.0723    2.3671    7.4876 C   0  0  0  0  0  0  0  0  0  0  0  0
    4.9063   -7.3146    5.6718 H   0  0  0  0  0  0  0  0  0  0  0  0
    4.9306   -7.4088    7.4341 H   0  0  0  0  0  0  0  0  0  0  0  0
    6.3428   -6.7917    6.5535 H   0  0  0  0  0  0  0  0  0  0  0  0
    4.8427   -5.2998    8.6814 H   0  0  0  0  0  0  0  0  0  0  0  0
    6.2006   -4.6696    7.7707 H   0  0  0  0  0  0  0  0  0  0  0  0
    4.8199   -2.8210    8.5909 H   0  0  0  0  0  0  0  0  0  0  0  0
    0.2984   -3.1781    7.7354 H   0  0  0  0  0  0  0  0  0  0  0  0
    1.3344   -5.3020    7.5384 H   0  0  0  0  0  0  0  0  0  0  0  0
    1.7516   -5.0719    5.8417 H   0  0  0  0  0  0  0  0  0  0  0  0
    0.0645   -5.2539    6.3266 H   0  0  0  0  0  0  0  0  0  0  0  0
   -0.3297   -4.3166    4.2793 H   0  0  0  0  0  0  0  0  0  0  0  0
    1.2326   -3.5165    4.3190 H   0  0  0  0  0  0  0  0  0  0  0  0
   -0.1923   -2.6805    3.5820 H   0  0  0  0  0  0  0  0  0  0  0  0
   -1.9091   -3.5413    6.1031 H   0  0  0  0  0  0  0  0  0  0  0  0
   -1.8492   -1.9834    5.1484 H   0  0  0  0  0  0  0  0  0  0  0  0
   -1.5815   -2.0084    6.8895 H   0  0  0  0  0  0  0  0  0  0  0  0
    1.4333   -1.7334    8.9918 H   0  0  0  0  0  0  0  0  0  0  0  0
    3.0801   -1.5139    8.8838 H   0  0  0  0  0  0  0  0  0  0  0  0
    2.4752    0.5634    9.0648 H   0  0  0  0  0  0  0  0  0  0  0  0
    3.4105    2.7911    3.8533 H   0  0  0  0  0  0  0  0  0  0  0  0
    4.5530    2.2944    5.1007 H   0  0  0  0  0  0  0  0  0  0  0  0
    3.2072    3.3196    5.5200 H   0  0  0  0  0  0  0  0  0  0  0  0
    2.5958    0.2205    3.3531 H   0  0  0  0  0  0  0  0  0  0  0  0
    4.7684    1.1296    3.2947 H   0  0  0  0  0  0  0  0  0  0  0  0
    5.3355   -0.1531    4.3461 H   0  0  0  0  0  0  0  0  0  0  0  0
    3.9789   -0.2796    1.5684 H   0  0  0  0  0  0  0  0  0  0  0  0
    5.6941   -0.5834    1.8580 H   0  0  0  0  0  0  0  0  0  0  0  0
    5.2837   -3.8303    3.6490 H   0  0  0  0  0  0  0  0  0  0  0  0
    5.8179   -2.2145    4.0408 H   0  0  0  0  0  0  0  0  0  0  0  0
    6.3779   -2.9918    2.5415 H   0  0  0  0  0  0  0  0  0  0  0  0
    2.3117   -1.9132    2.5796 H   0  0  0  0  0  0  0  0  0  0  0  0
    2.2451   -4.3254    1.3308 H   0  0  0  0  0  0  0  0  0  0  0  0
    6.5186   -5.4308    2.2710 H   0  0  0  0  0  0  0  0  0  0  0  0
    6.8783   -5.7964    0.5684 H   0  0  0  0  0  0  0  0  0  0  0  0
    5.9316   -6.9455    1.5481 H   0  0  0  0  0  0  0  0  0  0  0  0
    3.3050   -5.3388   -0.5835 H   0  0  0  0  0  0  0  0  0  0  0  0
    4.0348   -6.8748   -0.1274 H   0  0  0  0  0  0  0  0  0  0  0  0
    4.9395   -5.7480   -1.1666 H   0  0  0  0  0  0  0  0  0  0  0  0
    2.4321   -1.8583    0.4288 H   0  0  0  0  0  0  0  0  0  0  0  0
    3.0079   -3.0636   -0.7138 H   0  0  0  0  0  0  0  0  0  0  0  0
    3.9795   -1.6247   -0.3899 H   0  0  0  0  0  0  0  0  0  0  0  0
    1.8246   -1.4500    4.6955 H   0  0  0  0  0  0  0  0  0  0  0  0
    3.1371   -3.3508    5.4834 H   0  0  0  0  0  0  0  0  0  0  0  0
    5.2809   -3.2325    5.7887 H   0  0  0  0  0  0  0  0  0  0  0  0
    5.0835   -0.8911    7.3213 H   0  0  0  0  0  0  0  0  0  0  0  0
    1.2896    2.7210    4.3683 H   0  0  0  0  0  0  0  0  0  0  0  0
   -0.1735    2.8025    2.4728 H   0  0  0  0  0  0  0  0  0  0  0  0
   -0.9869    3.3239    3.9035 H   0  0  0  0  0  0  0  0  0  0  0  0
   -1.7560    2.1332    2.8544 H   0  0  0  0  0  0  0  0  0  0  0  0
    0.9469    0.6885    2.1791 H   0  0  0  0  0  0  0  0  0  0  0  0
   -0.6824    0.1024    2.3348 H   0  0  0  0  0  0  0  0  0  0  0  0
    0.5542   -0.6505    3.2984 H   0  0  0  0  0  0  0  0  0  0  0  0
   -2.0968    0.1694    6.4652 H   0  0  0  0  0  0  0  0  0  0  0  0
   -0.2487   -0.9069    7.4056 H   0  0  0  0  0  0  0  0  0  0  0  0
    0.7419   -0.3148    6.0797 H   0  0  0  0  0  0  0  0  0  0  0  0
   -0.7097    0.0908    9.2616 H   0  0  0  0  0  0  0  0  0  0  0  0
    0.0682    1.5333    9.8202 H   0  0  0  0  0  0  0  0  0  0  0  0
   -2.3988    1.4639    8.4327 H   0  0  0  0  0  0  0  0  0  0  0  0
   -1.4624    2.8949    8.7018 H   0  0  0  0  0  0  0  0  0  0  0  0
   -2.3422    3.9343    6.2815 H   0  0  0  0  0  0  0  0  0  0  0  0
   -3.3525    2.5557    6.6410 H   0  0  0  0  0  0  0  0  0  0  0  0
   -2.6553    2.6845    5.0696 H   0  0  0  0  0  0  0  0  0  0  0  0
    1.1193    4.2977    5.8843 H   0  0  0  0  0  0  0  0  0  0  0  0
    0.7767    3.0531    8.2938 H   0  0  0  0  0  0  0  0  0  0  0  0
    2.0847    2.7358    7.3401 H   0  0  0  0  0  0  0  0  0  0  0  0
    0.4158   -1.7417    5.5844 H   0  0  0  0  0  0  0  0  0  0  0  0
  1  2  1  0
  1 52  1  0
  1 53  1  0
  1 54  1  0
  2  3  1  0
  3  4  1  0
  3 55  1  0
  3 56  1  0
  4 35  1  0
  4  5  1  0
  4 57  1  1
  6  5  1  1
  6 34  1  0
  6  7  1  0
  6 12  1  0
  7  8  1  0
  7  9  1  0
  7 58  1  1
  8 59  1  0
  8 60  1  0
  8 61  1  0
  9 10  1  0
  9 11  1  0
  9117  1  0
 10 62  1  0
 10 63  1  0
 10 64  1  0
 11 65  1  0
 11 66  1  0
 11 67  1  0
 12 13  1  0
 12 68  1  0
 12 69  1  0
 13 44  1  0
 13 14  1  0
 13 70  1  1
 14 15  2  0
 14 16  1  6
 16 17  1  6
 16 18  1  0
 16 37  1  0
 17 71  1  0
 17 72  1  0
 17 73  1  0
 18 33  1  0
 18 19  1  0
 18 74  1  6
 19 20  1  0
 19 75  1  0
 19 76  1  0
 20 21  1  0
 20 77  1  0
 20 78  1  0
 21 31  1  0
 21 22  1  1
 21 23  1  0
 22 79  1  0
 22 80  1  0
 22 81  1  0
 23 24  1  0
 23 33  1  0
 23 82  1  6
 24 25  1  0
 25 31  1  0
 25 26  1  0
 25 83  1  6
 26 27  1  0
 27 28  1  0
 27 29  1  0
 27 30  1  0
 28 84  1  0
 28 85  1  0
 28 86  1  0
 29 87  1  0
 29 88  1  0
 29 89  1  0
 30 31  1  0
 31 32  1  6
 32 90  1  0
 32 91  1  0
 32 92  1  0
 33 34  1  0
 33 93  1  1
 34 35  1  0
 34 94  1  6
 35 36  1  0
 35 95  1  6
 36 96  1  0
 37 49  1  0
 37 38  1  0
 37 97  1  6
 38 39  1  0
 38 40  1  0
 38 41  1  0
 39 98  1  0
 39 99  1  0
 39100  1  0
 40101  1  0
 40102  1  0
 40103  1  0
 41 42  1  0
 42 47  1  0
 42 43  1  0
 42104  1  1
 44 43  1  6
 43105  1  0
 43106  1  0
 44 51  1  0
 44 45  1  0
 45 46  1  0
 45107  1  0
 45108  1  0
 46 47  1  0
 46109  1  0
 46110  1  0
 47 48  1  6
 47 49  1  0
 48111  1  0
 48112  1  0
 48113  1  0
 49 50  1  6
 49 51  1  0
 50114  1  0
 51115  1  0
 51116  1  0
M  CHG  1   9   1
M  END
>  <i_m_ct_stereo_status>  (221) 
1

>  <s_m_source_file>  (221) 
/var/tmp/pbs.5075288.sched01/tmpo2oug7hv/195455be7ie.sdf

>  <i_m_source_file_index>  (221) 
46

>  <i_lp_mmshare_version>  (221) 
48012

>  <i_f3d_flags>  (221) 
0

>  <s_epik_input>  (221) 
W0NIM11DMShbQ0gzXSlPW0NAQEhdKFtDSDJdMilbQ0BAXShbQ0gzXSkoW0NIMl1bQ0gyXTMpW0NAQF0oW09IXSkoW0NIMl00KVtDQEhdMVtDQF0oW1MrXTVbTy1dKShbQ0gzXSlbQ0BIXShbQ0BASF02W0NASF0oW0NAQF03KFtDSDJdW0NAQEhdNVtDQEBdMjM0KVtDQEhdKFtDSDNdKU4oW0NIM10pW0NIM10pW0NAQEhdKFtPSF0pW0NAQEhdKE83KVtDSDJdT1tDSDNdKVtDSDJdW0NIMl1bQ0BAXTgoW0NIM10pW0NASF02T1tDQEhdOVtDQF04KFtDSDNdKU9DKE85KShbQ0gzXSlbQ0gzXQ==

>  <s_epik_cmdline>  (221) 
J2VwaWtfcHl0aG9uJywgJy1waHQnLCAnMi4wJywgJy1waCcsICc3LjAnLCAnLXRuJywgJzgnLCAnLW1hJywgJzIwMCcsICctaW1hZScsICc8aW5maWxlLm1hZT4nLCAnLW9tYWUnLCAnPG91dGZpbGUubWFlPic=

>  <r_epik_Ionization_Penalty>  (221) 
0.00630477

>  <r_epik_Ionization_Penalty_Charging>  (221) 
0.00630362

>  <r_epik_Ionization_Penalty_Neutral>  (221) 
1.14827e-06

>  <r_epik_State_Penalty>  (221) 
0.0046558

>  <r_epik_Charging_Adjusted_Penalty>  (221) 
0.0109594

>  <i_epik_Tot_Q>  (221) 
1

>  <i_epik_Tot_abs_Q>  (221) 
3

>  <s_epik_Chemistry_Notes>  (221) 
This compound contains an acetal/aminal-like group ( X-CH(R)-Y where X, Y are N, S, or O) that may be acid/base labile, releasing an aldehyde.

>  <s_lp_Force_Field>  (221) 
OPLS3e

>  <r_lp_Energy>  (221) 
266.412

>  <b_lp_Chiralities_Consistent>  (221) 
1

>  <s_lp_Variant>  (221) 
95:0-1

>  <s_i_glide_gridfile>  (221) 
pfpi4k_grid

>  <i_i_glide_lignum>  (221) 
46

>  <i_i_glide_rotatable_bonds>  (221) 
6

>  <r_i_docking_score>  (221) 
-1.32754

>  <r_i_glide_ligand_efficiency>  (221) 
-0.0260302

>  <r_i_glide_ligand_efficiency_sa>  (221) 
-0.0965313

>  <r_i_glide_ligand_efficiency_ln>  (221) 
-0.269179

>  <r_i_glide_gscore>  (221) 
-1.32754

>  <r_i_glide_lipo>  (221) 
-0.402255

>  <r_i_glide_hbond>  (221) 
0

>  <r_i_glide_metal>  (221) 
-0

>  <r_i_glide_rewards>  (221) 
-0.078431

>  <r_i_glide_evdw>  (221) 
-19.91

>  <r_i_glide_ecoul>  (221) 
-2.3408

>  <r_i_glide_erotb>  (221) 
0.0794295

>  <r_i_glide_esite>  (221) 
-0.0130443

>  <r_i_glide_emodel>  (221) 
-12.8745

>  <r_i_glide_energy>  (221) 
-22.2508

>  <r_i_glide_einternal>  (221) 
10.6579

>  <r_i_glide_intrahb_reward>  (221) 
-0

>  <i_i_glide_confnum>  (221) 
1

>  <i_i_glide_posenum>  (221) 
6

>  <r_i_glide_eff_state_penalty>  (221) 
0

>  <ligand_id>  (221) 
95

>  <original_smiles>  (221) 
COCC1OC2(C(C)N(C)C)CC3[S+]([O-])C(C)(C4CCC5(C)C(OC6OC(C)(C)OC65C)C4C2C1O)C1C(C)(C)OC2CC34CCC2(C)C1(O)C4

>  <smiles>  (221) 
[H]OC1([H])C([H])(C([H])([H])OC([H])([H])[H])OC2(C([H])(C([H])([H])[H])[N+]([H])(C([H])([H])[H])C([H])([H])[H])C([H])([H])C3([H])S(=O)C(C([H])([H])[H])(C4([H])C([H])([H])C([H])([H])C5(C([H])([H])[H])C([H])(OC6([H])OC(C([H])([H])[H])(C([H])([H])[H])OC65C([H])([H])[H])C4([H])C12[H])C1([H])C(C([H])([H])[H])(C([H])([H])[H])OC2([H])C([H])([H])C34C([H])([H])C([H])([H])C2(C([H])([H])[H])C1(O[H])C4([H])[H]

$$$$
102:0:0
     RDKit          3D

 91 99  0  0  1  0  0  0  0  0999 V2000
   -2.4849    3.5688    5.1040 C   0  0  0  0  0  0  0  0  0  0  0  0
   -2.1179    3.3157    3.6342 C   0  0  0  0  0  0  0  0  0  0  0  0
   -3.3743    3.4403    2.7569 C   0  0  0  0  0  0  0  0  0  0  0  0
   -1.3259    4.4133    3.2268 O   0  0  0  0  0  0  0  0  0  0  0  0
   -1.3880    1.9378    3.4435 C   0  0  0  0  0  0  0  0  0  0  0  0
   -0.1718    1.6151    4.3595 C   0  0  1  0  0  0  0  0  0  0  0  0
    0.7009    0.7286    3.5946 O   0  0  0  0  0  0  0  0  0  0  0  0
    0.7183   -0.7003    3.6329 C   0  0  1  0  0  0  0  0  0  0  0  0
    1.0287   -1.3191    2.2877 C   0  0  0  0  0  0  0  0  0  0  0  0
    2.4362   -1.6729    2.0019 C   0  0  0  0  0  0  0  0  0  0  0  0
    3.0011   -2.7726    2.9172 C   0  0  2  0  0  0  0  0  0  0  0  0
    3.5918   -3.6038    1.9033 O   0  0  0  0  0  0  0  0  0  0  0  0
    2.8434   -4.7445    1.6617 C   0  0  0  0  0  0  0  0  0  0  0  0
    2.4440   -4.7360    0.1815 C   0  0  0  0  0  0  0  0  0  0  0  0
    3.6552   -5.9957    2.0297 C   0  0  0  0  0  0  0  0  0  0  0  0
    1.7113   -4.7260    2.4464 O   0  0  0  0  0  0  0  0  0  0  0  0
    1.9831   -3.9450    3.5460 C   0  0  2  0  0  0  0  0  0  0  0  0
    0.7163   -3.6055    4.1531 O   0  0  0  0  0  0  0  0  0  0  0  0
    0.5611   -3.7172    5.6087 C   0  0  1  0  0  0  0  0  0  0  0  0
    1.7690   -3.6526    6.1655 O   0  0  0  0  0  0  0  0  0  0  0  0
    2.3342   -2.4005    5.8613 C   0  0  2  0  0  0  0  0  0  0  0  0
    1.3457   -1.2472    5.0182 C   0  0  2  0  0  0  0  0  0  0  0  0
   -0.0029   -1.6601    5.2135 O   0  0  0  0  0  0  0  0  0  0  0  0
   -0.2437   -2.4736    6.2168 C   0  0  2  0  0  0  0  0  0  0  0  0
    0.2117   -1.8301    7.4638 O   0  0  0  0  0  0  0  0  0  0  0  0
    0.2891   -0.3519    7.5394 C   0  0  1  0  0  0  0  0  0  0  0  0
   -0.3333    0.0468    8.7385 O   0  0  0  0  0  0  0  0  0  0  0  0
    1.8449    0.1856    7.6994 C   0  0  0  0  0  0  0  0  0  0  0  0
    2.9326    0.8507    6.6387 C   0  0  0  0  0  0  0  0  0  0  0  0
    3.4756    0.6176    5.0762 C   0  0  2  0  0  0  0  0  0  0  0  0
    3.1057    1.7200    4.0041 C   0  0  0  0  0  0  0  0  0  0  0  0
    2.2307    2.9449    4.3913 C   0  0  1  0  0  0  0  0  0  0  0  0
    2.2058    3.8446    3.2955 O   0  0  0  0  0  0  0  0  0  0  0  0
    0.7800    2.7420    4.8467 C   0  0  2  0  0  0  0  0  0  0  0  0
    0.6895    2.3188    6.2358 O   0  0  0  0  0  0  0  0  0  0  0  0
   -0.4133    1.4735    5.9184 C   0  0  2  0  0  0  0  0  0  0  0  0
   -0.4647    0.1944    6.4940 O   0  0  0  0  0  0  0  0  0  0  0  0
    4.4539   -0.5990    4.4951 C   0  0  1  0  0  0  0  0  0  0  0  0
    5.2860    0.1514    3.6157 O   0  0  0  0  0  0  0  0  0  0  0  0
    5.3397   -0.7994    5.7179 C   0  0  0  0  0  0  0  0  0  0  0  0
    4.4687   -1.3752    6.6557 O   0  0  0  0  0  0  0  0  0  0  0  0
    3.8626   -2.5544    6.2727 C   0  0  1  0  0  0  0  0  0  0  0  0
    3.9483   -3.3529    7.4341 O   0  0  0  0  0  0  0  0  0  0  0  0
    4.6398   -3.5141    4.9333 S   0  0  0  0  0  0  0  0  0  0  0  0
    6.1125   -3.6573    5.2887 O   0  0  0  0  0  0  0  0  0  0  0  0
    4.2675   -2.1400    3.7397 C   0  0  1  0  0  0  0  0  0  0  0  0
    5.4877   -2.2907    2.7571 C   0  0  0  0  0  0  0  0  0  0  0  0
   -3.2111    2.8468    5.4991 H   0  0  0  0  0  0  0  0  0  0  0  0
   -2.9198    4.5044    5.1893 H   0  0  0  0  0  0  0  0  0  0  0  0
   -1.6515    3.7364    5.7735 H   0  0  0  0  0  0  0  0  0  0  0  0
   -4.1186    2.6736    2.9591 H   0  0  0  0  0  0  0  0  0  0  0  0
   -3.0932    3.3375    1.7115 H   0  0  0  0  0  0  0  0  0  0  0  0
   -3.8369    4.4176    2.8874 H   0  0  0  0  0  0  0  0  0  0  0  0
   -0.9005    4.2313    2.3897 H   0  0  0  0  0  0  0  0  0  0  0  0
   -2.1427    1.1717    3.6244 H   0  0  0  0  0  0  0  0  0  0  0  0
   -1.1340    1.8391    2.3895 H   0  0  0  0  0  0  0  0  0  0  0  0
   -0.3782   -0.7569    3.5107 H   0  0  0  0  0  0  0  0  0  0  0  0
    0.4990   -2.2558    2.2230 H   0  0  0  0  0  0  0  0  0  0  0  0
    0.6459   -0.6737    1.4953 H   0  0  0  0  0  0  0  0  0  0  0  0
    2.4898   -1.9605    0.9493 H   0  0  0  0  0  0  0  0  0  0  0  0
    3.0415   -0.7707    2.0604 H   0  0  0  0  0  0  0  0  0  0  0  0
    1.8182   -3.8745   -0.0558 H   0  0  0  0  0  0  0  0  0  0  0  0
    1.9105   -5.6501   -0.0741 H   0  0  0  0  0  0  0  0  0  0  0  0
    3.3428   -4.6731   -0.4330 H   0  0  0  0  0  0  0  0  0  0  0  0
    3.9638   -5.9774    3.0769 H   0  0  0  0  0  0  0  0  0  0  0  0
    4.5388   -6.0766    1.3976 H   0  0  0  0  0  0  0  0  0  0  0  0
    3.0300   -6.8772    1.8784 H   0  0  0  0  0  0  0  0  0  0  0  0
    2.4644   -4.6771    4.1902 H   0  0  0  0  0  0  0  0  0  0  0  0
    0.1304   -4.6706    5.9005 H   0  0  0  0  0  0  0  0  0  0  0  0
    2.2195   -1.9743    6.8196 H   0  0  0  0  0  0  0  0  0  0  0  0
    1.4287   -0.3145    5.4419 H   0  0  0  0  0  0  0  0  0  0  0  0
   -1.3113   -2.6722    6.2611 H   0  0  0  0  0  0  0  0  0  0  0  0
    0.0483    0.8648    9.0128 H   0  0  0  0  0  0  0  0  0  0  0  0
    1.7296    1.0305    8.3793 H   0  0  0  0  0  0  0  0  0  0  0  0
    2.3456   -0.5406    8.3375 H   0  0  0  0  0  0  0  0  0  0  0  0
    2.8378    1.9249    6.7506 H   0  0  0  0  0  0  0  0  0  0  0  0
    3.8238    0.7495    7.2546 H   0  0  0  0  0  0  0  0  0  0  0  0
    4.2981    1.2679    5.3696 H   0  0  0  0  0  0  0  0  0  0  0  0
    4.0291    2.2103    3.6876 H   0  0  0  0  0  0  0  0  0  0  0  0
    2.8051    1.2785    3.0588 H   0  0  0  0  0  0  0  0  0  0  0  0
    2.7601    3.5094    5.1618 H   0  0  0  0  0  0  0  0  0  0  0  0
    1.6425    3.5125    2.6078 H   0  0  0  0  0  0  0  0  0  0  0  0
    0.3154    3.7211    4.8252 H   0  0  0  0  0  0  0  0  0  0  0  0
   -1.3261    1.8669    6.2853 H   0  0  0  0  0  0  0  0  0  0  0  0
    6.0704   -0.3551    3.4410 H   0  0  0  0  0  0  0  0  0  0  0  0
    6.1980   -1.4267    5.5253 H   0  0  0  0  0  0  0  0  0  0  0  0
    5.7881    0.1104    6.1309 H   0  0  0  0  0  0  0  0  0  0  0  0
    3.2241   -3.1260    7.9881 H   0  0  0  0  0  0  0  0  0  0  0  0
    5.3825   -1.7431    1.8157 H   0  0  0  0  0  0  0  0  0  0  0  0
    5.7714   -3.3247    2.5377 H   0  0  0  0  0  0  0  0  0  0  0  0
    6.3647   -1.8958    3.2065 H   0  0  0  0  0  0  0  0  0  0  0  0
  1  2  1  0
  1 48  1  0
  1 49  1  0
  1 50  1  0
  2  3  1  0
  2  4  1  0
  2  5  1  0
  3 51  1  0
  3 52  1  0
  3 53  1  0
  4 54  1  0
  6  5  1  6
  5 55  1  0
  5 56  1  0
  6 34  1  0
  6 36  1  0
  6  7  1  0
  7  8  1  0
  8 22  1  0
  8  9  1  0
  8 57  1  1
  9 10  1  0
  9 58  1  0
  9 59  1  0
 10 11  1  0
 10 60  1  0
 10 61  1  0
 11 17  1  0
 11 46  1  0
 11 12  1  6
 12 13  1  0
 13 14  1  0
 13 15  1  0
 13 16  1  0
 14 62  1  0
 14 63  1  0
 14 64  1  0
 15 65  1  0
 15 66  1  0
 15 67  1  0
 16 17  1  0
 17 18  1  0
 17 68  1  1
 18 19  1  0
 19 24  1  0
 19 20  1  0
 19 69  1  6
 20 21  1  0
 21 42  1  0
 21 22  1  0
 21 70  1  1
 22 23  1  0
 22 71  1  1
 23 24  1  0
 24 25  1  0
 24 72  1  1
 25 26  1  0
 26 37  1  0
 26 27  1  1
 26 28  1  0
 27 73  1  0
 28 29  1  0
 28 74  1  0
 28 75  1  0
 29 30  1  0
 29 76  1  0
 29 77  1  0
 30 31  1  0
 30 38  1  0
 30 78  1  6
 31 32  1  0
 31 79  1  0
 31 80  1  0
 32 33  1  0
 32 34  1  0
 32 81  1  1
 33 82  1  0
 34 35  1  0
 34 83  1  1
 35 36  1  0
 36 37  1  0
 36 84  1  6
 38 46  1  0
 38 39  1  6
 38 40  1  0
 39 85  1  0
 40 41  1  0
 40 86  1  0
 40 87  1  0
 41 42  1  0
 42 43  1  1
 44 42  1  1
 43 88  1  0
 44 45  2  0
 44 46  1  0
 46 47  1  6
 47 89  1  0
 47 90  1  0
 47 91  1  0
M  END
>  <i_m_ct_stereo_status>  (222) 
1

>  <s_m_source_file>  (222) 
/var/tmp/pbs.5075288.sched01/tmpo2oug7hv/195455be7ie.sdf

>  <i_m_source_file_index>  (222) 
61

>  <i_lp_mmshare_version>  (222) 
48012

>  <i_f3d_flags>  (222) 
0

>  <s_epik_input>  (222) 
TzFbQ0BIXTJbQ0BdKFtPSF0pKE9bQ0gyXTMpW1MrXShbTy1dKVtDQF00KFtDSDNdKVtDQEBdMyhbT0hdKVtDQEhdKFtDSDJdW0NIMl1bQ0BAXShPNSkoW09IXSlPW0NASF02TzcpW0NIMl1bQ0BASF0oW09IXSlbQ0BIXTdbQ0BAXTYoW0NIMl1DKFtDSDNdKShbQ0gzXSlbT0hdKU9bQ0BASF0oW0NIMl1bQ0gyXTgpW0NASF0yT1tDQEhdNVtDQEhdMU9bQ0BIXShbQ0BdNDg5KU9DKE85KShbQ0gzXSlbQ0gzXQ==

>  <s_epik_cmdline>  (222) 
J2VwaWtfcHl0aG9uJywgJy1waHQnLCAnMi4wJywgJy1waCcsICc3LjAnLCAnLXRuJywgJzgnLCAnLW1hJywgJzIwMCcsICctaW1hZScsICc8aW5maWxlLm1hZT4nLCAnLW9tYWUnLCAnPG91dGZpbGUubWFlPic=

>  <r_lp_tautomer_probability>  (222) 
1

>  <r_epik_Ionization_Penalty>  (222) 
4.44624e-05

>  <r_epik_Ionization_Penalty_Charging>  (222) 
0

>  <r_epik_Ionization_Penalty_Neutral>  (222) 
4.44624e-05

>  <r_epik_State_Penalty>  (222) 
-0

>  <r_epik_Charging_Adjusted_Penalty>  (222) 
0

>  <i_epik_Tot_Q>  (222) 
0

>  <i_epik_Tot_abs_Q>  (222) 
2

>  <s_epik_Chemistry_Notes>  (222) 
This compound contains an acetal/aminal-like group ( X-CH(R)-Y where X, Y are N, S, or O) that may be acid/base labile, releasing an aldehyde.

>  <s_lp_Force_Field>  (222) 
OPLS3e

>  <r_lp_Energy>  (222) 
439.148

>  <b_lp_Chiralities_Consistent>  (222) 
1

>  <s_lp_Variant>  (222) 
102:0-1

>  <s_i_glide_gridfile>  (222) 
pfpi4k_grid

>  <i_i_glide_lignum>  (222) 
61

>  <i_i_glide_rotatable_bonds>  (222) 
7

>  <r_i_docking_score>  (222) 
-2.28108

>  <r_i_glide_ligand_efficiency>  (222) 
-0.0485337

>  <r_i_glide_ligand_efficiency_sa>  (222) 
-0.17515

>  <r_i_glide_ligand_efficiency_ln>  (222) 
-0.470312

>  <r_i_glide_gscore>  (222) 
-2.28108

>  <r_i_glide_lipo>  (222) 
-0.11946

>  <r_i_glide_hbond>  (222) 
-0.207016

>  <r_i_glide_metal>  (222) 
-0

>  <r_i_glide_rewards>  (222) 
-0.016895

>  <r_i_glide_evdw>  (222) 
-16.6768

>  <r_i_glide_ecoul>  (222) 
-7.37101

>  <r_i_glide_erotb>  (222) 
0.0892299

>  <r_i_glide_esite>  (222) 
-0.0874535

>  <r_i_glide_emodel>  (222) 
-20.5434

>  <r_i_glide_energy>  (222) 
-24.0478

>  <r_i_glide_einternal>  (222) 
8.74487

>  <r_i_glide_intrahb_reward>  (222) 
-0

>  <i_i_glide_confnum>  (222) 
1

>  <i_i_glide_posenum>  (222) 
19

>  <r_i_glide_eff_state_penalty>  (222) 
0

>  <ligand_id>  (222) 
102

>  <original_smiles>  (222) 
CC(C)(O)CC12OC3CCC45OC(C)(C)OC4OC4OC6C3OC4OC3(O)CCC(CC(O)C1OC2O3)C1(O)COC6(O)[S+]([O-])C15C

>  <smiles>  (222) 
[H]OC12OC3([H])OC4([H])C5([H])OC3([H])OC3([H])OC(C([H])([H])[H])(C([H])([H])[H])OC36C([H])([H])C([H])([H])C4([H])OC3(C([H])([H])C(O[H])(C([H])([H])[H])C([H])([H])[H])C([H])(O1)OC3([H])C([H])(O[H])C([H])([H])C([H])(C([H])([H])C2([H])[H])C1(O[H])C([H])([H])OC5(O[H])S(=O)C61C([H])([H])[H]

$$$$
102:0:1
     RDKit          3D

 91 99  0  0  1  0  0  0  0  0999 V2000
   -1.0546    3.8256    3.4561 C   0  0  0  0  0  0  0  0  0  0  0  0
   -1.9668    2.8661    4.2531 C   0  0  0  0  0  0  0  0  0  0  0  0
   -2.3492    3.4226    5.6365 C   0  0  0  0  0  0  0  0  0  0  0  0
   -3.1899    2.9276    3.5340 O   0  0  0  0  0  0  0  0  0  0  0  0
   -1.4952    1.3791    4.2530 C   0  0  0  0  0  0  0  0  0  0  0  0
   -0.2031    1.0170    5.0514 C   0  0  1  0  0  0  0  0  0  0  0  0
    0.6323    0.1872    4.1862 O   0  0  0  0  0  0  0  0  0  0  0  0
    0.6353   -1.2548    4.1042 C   0  0  1  0  0  0  0  0  0  0  0  0
    0.8638   -1.7458    2.6921 C   0  0  0  0  0  0  0  0  0  0  0  0
    2.2531   -2.0814    2.2892 C   0  0  0  0  0  0  0  0  0  0  0  0
    2.8693   -3.2466    3.0722 C   0  0  2  0  0  0  0  0  0  0  0  0
    3.4029   -3.9809    1.9664 O   0  0  0  0  0  0  0  0  0  0  0  0
    2.6558   -5.1101    1.6752 C   0  0  0  0  0  0  0  0  0  0  0  0
    2.2144   -5.0155    0.2103 C   0  0  0  0  0  0  0  0  0  0  0  0
    3.4988   -6.3792    1.9139 C   0  0  0  0  0  0  0  0  0  0  0  0
    1.5496   -5.1493    2.5024 O   0  0  0  0  0  0  0  0  0  0  0  0
    1.8873   -4.4681    3.6574 C   0  0  2  0  0  0  0  0  0  0  0  0
    0.6704   -4.1734    4.3701 O   0  0  0  0  0  0  0  0  0  0  0  0
    0.6130   -4.4049    5.8182 C   0  0  1  0  0  0  0  0  0  0  0  0
    1.8428   -4.3825    6.3086 O   0  0  0  0  0  0  0  0  0  0  0  0
    2.3852   -3.1110    6.0794 C   0  0  2  0  0  0  0  0  0  0  0  0
    1.3506   -1.8869    5.3997 C   0  0  2  0  0  0  0  0  0  0  0  0
    0.0169   -2.3096    5.6392 O   0  0  0  0  0  0  0  0  0  0  0  0
   -0.1593   -3.2090    6.5814 C   0  0  2  0  0  0  0  0  0  0  0  0
    0.3524   -2.6627    7.8254 O   0  0  0  0  0  0  0  0  0  0  0  0
    0.4087   -1.1988    8.0195 C   0  0  1  0  0  0  0  0  0  0  0  0
   -0.1534   -0.9469    9.2741 O   0  0  0  0  0  0  0  0  0  0  0  0
    1.9923   -0.6649    8.1238 C   0  0  0  0  0  0  0  0  0  0  0  0
    3.0294    0.0799    7.0770 C   0  0  0  0  0  0  0  0  0  0  0  0
    3.4869   -0.0310    5.4661 C   0  0  2  0  0  0  0  0  0  0  0  0
    3.0720    1.1354    4.4969 C   0  0  0  0  0  0  0  0  0  0  0  0
    2.2449    2.3152    5.0473 C   0  0  1  0  0  0  0  0  0  0  0  0
    2.2370    3.2689    4.0105 O   0  0  0  0  0  0  0  0  0  0  0  0
    0.7997    2.1010    5.5675 C   0  0  2  0  0  0  0  0  0  0  0  0
    0.7871    1.5589    6.8994 O   0  0  0  0  0  0  0  0  0  0  0  0
   -0.3754    0.7958    6.5960 C   0  0  2  0  0  0  0  0  0  0  0  0
   -0.4369   -0.5312    7.0785 O   0  0  0  0  0  0  0  0  0  0  0  0
    4.4221   -1.1905    4.7271 C   0  0  1  0  0  0  0  0  0  0  0  0
    5.2056   -0.3521    3.8828 O   0  0  0  0  0  0  0  0  0  0  0  0
    5.3750   -1.4921    5.8855 C   0  0  0  0  0  0  0  0  0  0  0  0
    4.5426   -2.1134    6.8173 O   0  0  0  0  0  0  0  0  0  0  0  0
    3.9444   -3.2710    6.3803 C   0  0  1  0  0  0  0  0  0  0  0  0
    4.0854   -4.1467    7.4931 O   0  0  0  0  0  0  0  0  0  0  0  0
    4.6370   -4.1173    4.9178 S   0  0  0  0  0  0  0  0  0  0  0  0
    6.1286   -4.2697    5.0747 O   0  0  0  0  0  0  0  0  0  0  0  0
    4.1676   -2.6599    3.8658 C   0  0  1  0  0  0  0  0  0  0  0  0
    5.3173   -2.7126    2.8023 C   0  0  0  0  0  0  0  0  0  0  0  0
   -0.0989    4.0231    3.8955 H   0  0  0  0  0  0  0  0  0  0  0  0
   -1.5203    4.8129    3.2871 H   0  0  0  0  0  0  0  0  0  0  0  0
   -0.8878    3.3761    2.4829 H   0  0  0  0  0  0  0  0  0  0  0  0
   -1.5674    3.4652    6.3881 H   0  0  0  0  0  0  0  0  0  0  0  0
   -3.2013    2.8836    6.0590 H   0  0  0  0  0  0  0  0  0  0  0  0
   -2.6450    4.4437    5.4468 H   0  0  0  0  0  0  0  0  0  0  0  0
   -3.1400    2.3485    2.7844 H   0  0  0  0  0  0  0  0  0  0  0  0
   -2.3094    0.7593    4.6210 H   0  0  0  0  0  0  0  0  0  0  0  0
   -1.3976    1.0468    3.2190 H   0  0  0  0  0  0  0  0  0  0  0  0
   -0.4640   -1.3020    4.0356 H   0  0  0  0  0  0  0  0  0  0  0  0
    0.2774   -2.6383    2.5841 H   0  0  0  0  0  0  0  0  0  0  0  0
    0.4841   -1.0118    1.9772 H   0  0  0  0  0  0  0  0  0  0  0  0
    2.2360   -2.2797    1.2176 H   0  0  0  0  0  0  0  0  0  0  0  0
    2.8795   -1.1880    2.3732 H   0  0  0  0  0  0  0  0  0  0  0  0
    1.6402   -4.1160    0.0260 H   0  0  0  0  0  0  0  0  0  0  0  0
    1.6395   -5.9024   -0.0671 H   0  0  0  0  0  0  0  0  0  0  0  0
    3.0969   -4.9320   -0.4259 H   0  0  0  0  0  0  0  0  0  0  0  0
    3.8687   -6.4372    2.9375 H   0  0  0  0  0  0  0  0  0  0  0  0
    4.3457   -6.4028    1.2215 H   0  0  0  0  0  0  0  0  0  0  0  0
    2.8686   -7.2492    1.7249 H   0  0  0  0  0  0  0  0  0  0  0  0
    2.4183   -5.2423    4.2192 H   0  0  0  0  0  0  0  0  0  0  0  0
    0.1759   -5.3761    6.0516 H   0  0  0  0  0  0  0  0  0  0  0  0
    2.3275   -2.7620    7.0731 H   0  0  0  0  0  0  0  0  0  0  0  0
    1.4562   -0.9895    5.8900 H   0  0  0  0  0  0  0  0  0  0  0  0
   -1.2226   -3.4328    6.6604 H   0  0  0  0  0  0  0  0  0  0  0  0
    0.5603   -0.9685    9.9075 H   0  0  0  0  0  0  0  0  0  0  0  0
    1.9138    0.1258    8.8758 H   0  0  0  0  0  0  0  0  0  0  0  0
    2.5405   -1.4326    8.6785 H   0  0  0  0  0  0  0  0  0  0  0  0
    2.9496    1.1457    7.2731 H   0  0  0  0  0  0  0  0  0  0  0  0
    3.9582   -0.0484    7.6280 H   0  0  0  0  0  0  0  0  0  0  0  0
    4.3208    0.6033    5.7652 H   0  0  0  0  0  0  0  0  0  0  0  0
    3.9837    1.6455    4.1724 H   0  0  0  0  0  0  0  0  0  0  0  0
    2.6852    0.7628    3.5531 H   0  0  0  0  0  0  0  0  0  0  0  0
    2.8213    2.8076    5.8310 H   0  0  0  0  0  0  0  0  0  0  0  0
    1.6845    2.9639    3.3057 H   0  0  0  0  0  0  0  0  0  0  0  0
    0.3651    3.0833    5.6735 H   0  0  0  0  0  0  0  0  0  0  0  0
   -1.2665    1.3143    6.9583 H   0  0  0  0  0  0  0  0  0  0  0  0
    4.6451   -0.0404    3.1920 H   0  0  0  0  0  0  0  0  0  0  0  0
    6.2074   -2.1117    5.6312 H   0  0  0  0  0  0  0  0  0  0  0  0
    5.8454   -0.6141    6.3284 H   0  0  0  0  0  0  0  0  0  0  0  0
    3.3287   -4.0487    8.0266 H   0  0  0  0  0  0  0  0  0  0  0  0
    5.1407   -2.1110    1.8974 H   0  0  0  0  0  0  0  0  0  0  0  0
    5.6146   -3.7206    2.4983 H   0  0  0  0  0  0  0  0  0  0  0  0
    6.2136   -2.3228    3.2853 H   0  0  0  0  0  0  0  0  0  0  0  0
  1  2  1  0
  1 48  1  0
  1 49  1  0
  1 50  1  0
  2  3  1  0
  2  4  1  0
  2  5  1  0
  3 51  1  0
  3 52  1  0
  3 53  1  0
  4 54  1  0
  6  5  1  6
  5 55  1  0
  5 56  1  0
  6 34  1  0
  6 36  1  0
  6  7  1  0
  7  8  1  0
  8 22  1  0
  8  9  1  0
  8 57  1  1
  9 10  1  0
  9 58  1  0
  9 59  1  0
 10 11  1  0
 10 60  1  0
 10 61  1  0
 11 17  1  0
 11 46  1  0
 11 12  1  6
 12 13  1  0
 13 14  1  0
 13 15  1  0
 13 16  1  0
 14 62  1  0
 14 63  1  0
 14 64  1  0
 15 65  1  0
 15 66  1  0
 15 67  1  0
 16 17  1  0
 17 18  1  0
 17 68  1  1
 18 19  1  0
 19 24  1  0
 19 20  1  0
 19 69  1  6
 20 21  1  0
 21 42  1  0
 21 22  1  0
 21 70  1  1
 22 23  1  0
 22 71  1  1
 23 24  1  0
 24 25  1  0
 24 72  1  1
 25 26  1  0
 26 37  1  0
 26 27  1  1
 26 28  1  0
 27 73  1  0
 28 29  1  0
 28 74  1  0
 28 75  1  0
 29 30  1  0
 29 76  1  0
 29 77  1  0
 30 31  1  0
 30 38  1  0
 30 78  1  6
 31 32  1  0
 31 79  1  0
 31 80  1  0
 32 33  1  0
 32 34  1  0
 32 81  1  1
 33 82  1  0
 34 35  1  0
 34 83  1  1
 35 36  1  0
 36 37  1  0
 36 84  1  1
 38 46  1  0
 38 39  1  6
 38 40  1  0
 39 85  1  0
 40 41  1  0
 40 86  1  0
 40 87  1  0
 41 42  1  0
 42 43  1  1
 44 42  1  1
 43 88  1  0
 44 45  2  0
 44 46  1  0
 46 47  1  6
 47 89  1  0
 47 90  1  0
 47 91  1  0
M  END
>  <i_m_ct_stereo_status>  (223) 
1

>  <s_m_source_file>  (223) 
/var/tmp/pbs.5075288.sched01/tmpo2oug7hv/195455be7ie.sdf

>  <i_m_source_file_index>  (223) 
61

>  <i_lp_mmshare_version>  (223) 
48012

>  <i_f3d_flags>  (223) 
0

>  <s_epik_input>  (223) 
TzFbQ0BIXTJbQ0BdKFtPSF0pKE9bQ0gyXTMpW1MrXShbTy1dKVtDQF00KFtDSDNdKVtDQEBdMyhbT0hdKVtDQEhdKFtDSDJdW0NIMl1bQ0BAXShPNSkoW09IXSlPW0NASF02TzcpW0NIMl1bQ0BASF0oW09IXSlbQ0BIXTdbQ0BAXTYoW0NIMl1DKFtDSDNdKShbQ0gzXSlbT0hdKU9bQ0BASF0oW0NIMl1bQ0gyXTgpW0NASF0yT1tDQEhdNVtDQEhdMU9bQ0BIXShbQ0BdNDg5KU9DKE85KShbQ0gzXSlbQ0gzXQ==

>  <s_epik_cmdline>  (223) 
J2VwaWtfcHl0aG9uJywgJy1waHQnLCAnMi4wJywgJy1waCcsICc3LjAnLCAnLXRuJywgJzgnLCAnLW1hJywgJzIwMCcsICctaW1hZScsICc8aW5maWxlLm1hZT4nLCAnLW9tYWUnLCAnPG91dGZpbGUubWFlPic=

>  <r_lp_tautomer_probability>  (223) 
1

>  <r_epik_Ionization_Penalty>  (223) 
4.44624e-05

>  <r_epik_Ionization_Penalty_Charging>  (223) 
0

>  <r_epik_Ionization_Penalty_Neutral>  (223) 
4.44624e-05

>  <r_epik_State_Penalty>  (223) 
-0

>  <r_epik_Charging_Adjusted_Penalty>  (223) 
0

>  <i_epik_Tot_Q>  (223) 
0

>  <i_epik_Tot_abs_Q>  (223) 
2

>  <s_epik_Chemistry_Notes>  (223) 
This compound contains an acetal/aminal-like group ( X-CH(R)-Y where X, Y are N, S, or O) that may be acid/base labile, releasing an aldehyde.

>  <s_lp_Force_Field>  (223) 
OPLS3e

>  <r_lp_Energy>  (223) 
439.148

>  <b_lp_Chiralities_Consistent>  (223) 
1

>  <s_lp_Variant>  (223) 
102:0-1

>  <s_i_glide_gridfile>  (223) 
pfpi4k_grid

>  <i_i_glide_lignum>  (223) 
61

>  <i_i_glide_rotatable_bonds>  (223) 
7

>  <r_i_docking_score>  (223) 
-1.9729

>  <r_i_glide_ligand_efficiency>  (223) 
-0.0419766

>  <r_i_glide_ligand_efficiency_sa>  (223) 
-0.151486

>  <r_i_glide_ligand_efficiency_ln>  (223) 
-0.406771

>  <r_i_glide_gscore>  (223) 
-1.9729

>  <r_i_glide_lipo>  (223) 
-0.109617

>  <r_i_glide_hbond>  (223) 
-0.0918532

>  <r_i_glide_metal>  (223) 
-0

>  <r_i_glide_rewards>  (223) 
-0.0046406

>  <r_i_glide_evdw>  (223) 
-18.8685

>  <r_i_glide_ecoul>  (223) 
-5.28078

>  <r_i_glide_erotb>  (223) 
0.0892299

>  <r_i_glide_esite>  (223) 
-0.12048

>  <r_i_glide_emodel>  (223) 
-21.8614

>  <r_i_glide_energy>  (223) 
-24.1492

>  <r_i_glide_einternal>  (223) 
5.25283

>  <r_i_glide_intrahb_reward>  (223) 
-0

>  <i_i_glide_confnum>  (223) 
6

>  <i_i_glide_posenum>  (223) 
9

>  <r_i_glide_eff_state_penalty>  (223) 
0

>  <ligand_id>  (223) 
102

>  <original_smiles>  (223) 
CC(C)(O)CC12OC3CCC45OC(C)(C)OC4OC4OC6C3OC4OC3(O)CCC(CC(O)C1OC2O3)C1(O)COC6(O)[S+]([O-])C15C

>  <smiles>  (223) 
[H]OC12OC3([H])OC4([H])C5([H])OC3([H])OC3([H])OC(C([H])([H])[H])(C([H])([H])[H])OC36C([H])([H])C([H])([H])C4([H])OC3(C([H])([H])C(O[H])(C([H])([H])[H])C([H])([H])[H])C([H])(O1)OC3([H])C([H])(O[H])C([H])([H])C([H])(C([H])([H])C2([H])[H])C1(O[H])C([H])([H])OC5(O[H])S(=O)C61C([H])([H])[H]

$$$$
102:0:2
     RDKit          3D

 91 99  0  0  1  0  0  0  0  0999 V2000
    6.2508   -2.5984   -0.0504 C   0  0  0  0  0  0  0  0  0  0  0  0
    4.8483   -2.1358   -0.5324 C   0  0  0  0  0  0  0  0  0  0  0  0
    4.9571   -1.7017   -2.0068 C   0  0  0  0  0  0  0  0  0  0  0  0
    3.9679   -3.2438   -0.5608 O   0  0  0  0  0  0  0  0  0  0  0  0
    4.2001   -1.0040    0.3382 C   0  0  0  0  0  0  0  0  0  0  0  0
    3.9535   -1.2752    1.8555 C   0  0  1  0  0  0  0  0  0  0  0  0
    2.5709   -0.8757    2.1732 O   0  0  0  0  0  0  0  0  0  0  0  0
    2.1174    0.4072    2.6269 C   0  0  1  0  0  0  0  0  0  0  0  0
    0.7675    0.8210    2.0477 C   0  0  0  0  0  0  0  0  0  0  0  0
   -0.4169    0.4421    2.8706 C   0  0  0  0  0  0  0  0  0  0  0  0
   -0.4908    1.1384    4.2329 C   0  0  2  0  0  0  0  0  0  0  0  0
   -1.8542    1.5588    4.1775 O   0  0  0  0  0  0  0  0  0  0  0  0
   -1.9562    2.9088    3.8784 C   0  0  0  0  0  0  0  0  0  0  0  0
   -2.7862    3.0694    2.6054 C   0  0  0  0  0  0  0  0  0  0  0  0
   -2.5737    3.6509    5.0520 C   0  0  0  0  0  0  0  0  0  0  0  0
   -0.7051    3.4375    3.6712 O   0  0  0  0  0  0  0  0  0  0  0  0
    0.1716    2.6631    4.3908 C   0  0  2  0  0  0  0  0  0  0  0  0
    1.4962    2.9544    3.9242 O   0  0  0  0  0  0  0  0  0  0  0  0
    2.5600    3.1436    4.9058 C   0  0  1  0  0  0  0  0  0  0  0  0
    2.2050    2.5430    6.0287 O   0  0  0  0  0  0  0  0  0  0  0  0
    2.1094    1.1664    5.7836 C   0  0  2  0  0  0  0  0  0  0  0  0
    2.5176    0.5861    4.1865 C   0  0  2  0  0  0  0  0  0  0  0  0
    3.3726    1.5678    3.6136 O   0  0  0  0  0  0  0  0  0  0  0  0
    3.9020    2.4264    4.4428 C   0  0  2  0  0  0  0  0  0  0  0  0
    4.7408    1.6736    5.3788 O   0  0  0  0  0  0  0  0  0  0  0  0
    5.2632    0.3432    4.9700 C   0  0  1  0  0  0  0  0  0  0  0  0
    6.6414    0.3710    5.3149 O   0  0  0  0  0  0  0  0  0  0  0  0
    4.6186   -0.8484    5.9267 C   0  0  0  0  0  0  0  0  0  0  0  0
    3.4025   -1.9582    5.6803 C   0  0  0  0  0  0  0  0  0  0  0  0
    1.8743   -2.0459    5.0003 C   0  0  2  0  0  0  0  0  0  0  0  0
    1.6945   -2.8771    3.6699 C   0  0  0  0  0  0  0  0  0  0  0  0
    2.9207   -3.5672    3.0190 C   0  0  1  0  0  0  0  0  0  0  0  0
    2.4316   -4.3889    1.9829 O   0  0  0  0  0  0  0  0  0  0  0  0
    4.0751   -2.7204    2.4271 C   0  0  2  0  0  0  0  0  0  0  0  0
    4.9950   -2.2980    3.4729 O   0  0  0  0  0  0  0  0  0  0  0  0
    5.1881   -1.0552    2.7995 C   0  0  2  0  0  0  0  0  0  0  0  0
    5.2240    0.1404    3.5751 O   0  0  0  0  0  0  0  0  0  0  0  0
    0.4388   -1.4332    5.6000 C   0  0  1  0  0  0  0  0  0  0  0  0
   -0.4501   -2.4998    5.2768 O   0  0  0  0  0  0  0  0  0  0  0  0
    0.6467   -1.6389    7.0988 C   0  0  0  0  0  0  0  0  0  0  0  0
    1.6642   -0.7102    7.3965 O   0  0  0  0  0  0  0  0  0  0  0  0
    1.4010    0.6063    7.0890 C   0  0  1  0  0  0  0  0  0  0  0  0
    1.9311    1.3151    8.2069 O   0  0  0  0  0  0  0  0  0  0  0  0
   -0.3274    1.0960    6.8930 S   0  0  0  0  0  0  0  0  0  0  0  0
   -1.0999    0.5412    8.1061 O   0  0  0  0  0  0  0  0  0  0  0  0
   -0.4892    0.0017    5.4261 C   0  0  1  0  0  0  0  0  0  0  0  0
   -1.9843   -0.4693    5.6189 C   0  0  0  0  0  0  0  0  0  0  0  0
    6.9670   -1.7728   -0.1493 H   0  0  0  0  0  0  0  0  0  0  0  0
    6.6243   -3.4059   -0.6937 H   0  0  0  0  0  0  0  0  0  0  0  0
    6.3174   -2.9574    0.9499 H   0  0  0  0  0  0  0  0  0  0  0  0
    5.5945   -0.8256   -2.1172 H   0  0  0  0  0  0  0  0  0  0  0  0
    3.9873   -1.4542   -2.4434 H   0  0  0  0  0  0  0  0  0  0  0  0
    5.3926   -2.4971   -2.6181 H   0  0  0  0  0  0  0  0  0  0  0  0
    4.2522   -3.8781   -1.1973 H   0  0  0  0  0  0  0  0  0  0  0  0
    4.8472   -0.1326    0.2493 H   0  0  0  0  0  0  0  0  0  0  0  0
    3.2774   -0.6830   -0.1343 H   0  0  0  0  0  0  0  0  0  0  0  0
    2.7085    0.9506    1.8655 H   0  0  0  0  0  0  0  0  0  0  0  0
    0.7419    1.8938    1.8537 H   0  0  0  0  0  0  0  0  0  0  0  0
    0.6535    0.3755    1.0633 H   0  0  0  0  0  0  0  0  0  0  0  0
   -1.3083    0.6213    2.2657 H   0  0  0  0  0  0  0  0  0  0  0  0
   -0.4079   -0.6333    3.0286 H   0  0  0  0  0  0  0  0  0  0  0  0
   -2.2848    2.5409    1.8069 H   0  0  0  0  0  0  0  0  0  0  0  0
   -2.9060    4.1231    2.3410 H   0  0  0  0  0  0  0  0  0  0  0  0
   -3.7637    2.6059    2.7209 H   0  0  0  0  0  0  0  0  0  0  0  0
   -2.0331    3.4930    5.9847 H   0  0  0  0  0  0  0  0  0  0  0  0
   -3.6206    3.3489    5.1729 H   0  0  0  0  0  0  0  0  0  0  0  0
   -2.4796    4.6972    4.7819 H   0  0  0  0  0  0  0  0  0  0  0  0
    0.0780    3.1143    5.3752 H   0  0  0  0  0  0  0  0  0  0  0  0
    2.7304    4.1962    5.1151 H   0  0  0  0  0  0  0  0  0  0  0  0
    3.0050    0.8636    6.2549 H   0  0  0  0  0  0  0  0  0  0  0  0
    3.0957   -0.2636    4.2410 H   0  0  0  0  0  0  0  0  0  0  0  0
    4.4736    3.1933    3.9725 H   0  0  0  0  0  0  0  0  0  0  0  0
    7.0644    0.9712    4.7334 H   0  0  0  0  0  0  0  0  0  0  0  0
    5.4651   -1.5132    6.0764 H   0  0  0  0  0  0  0  0  0  0  0  0
    4.5083   -0.4139    6.9146 H   0  0  0  0  0  0  0  0  0  0  0  0
    3.9092   -2.8616    5.3649 H   0  0  0  0  0  0  0  0  0  0  0  0
    3.2551   -2.2562    6.7174 H   0  0  0  0  0  0  0  0  0  0  0  0
    1.8084   -2.9908    5.5328 H   0  0  0  0  0  0  0  0  0  0  0  0
    1.0584   -3.7400    3.8849 H   0  0  0  0  0  0  0  0  0  0  0  0
    1.0831   -2.3521    2.9433 H   0  0  0  0  0  0  0  0  0  0  0  0
    3.3433   -4.2680    3.7314 H   0  0  0  0  0  0  0  0  0  0  0  0
    3.1727   -4.7778    1.5461 H   0  0  0  0  0  0  0  0  0  0  0  0
    4.6261   -3.3652    1.7889 H   0  0  0  0  0  0  0  0  0  0  0  0
    6.1306   -1.0771    2.2389 H   0  0  0  0  0  0  0  0  0  0  0  0
    0.0074   -3.3099    5.4010 H   0  0  0  0  0  0  0  0  0  0  0  0
   -0.2483   -1.5374    7.6969 H   0  0  0  0  0  0  0  0  0  0  0  0
    1.0094   -2.6272    7.3780 H   0  0  0  0  0  0  0  0  0  0  0  0
    1.6153    0.8771    8.9723 H   0  0  0  0  0  0  0  0  0  0  0  0
   -2.4158   -0.9130    4.7165 H   0  0  0  0  0  0  0  0  0  0  0  0
   -2.6358    0.3377    5.9446 H   0  0  0  0  0  0  0  0  0  0  0  0
   -2.0904   -1.2032    6.4137 H   0  0  0  0  0  0  0  0  0  0  0  0
  1  2  1  0
  1 48  1  0
  1 49  1  0
  1 50  1  0
  2  3  1  0
  2  4  1  0
  2  5  1  0
  3 51  1  0
  3 52  1  0
  3 53  1  0
  4 54  1  0
  6  5  1  6
  5 55  1  0
  5 56  1  0
  6 34  1  0
  6 36  1  0
  6  7  1  0
  7  8  1  0
  8 22  1  0
  8  9  1  0
  8 57  1  6
  9 10  1  0
  9 58  1  0
  9 59  1  0
 10 11  1  0
 10 60  1  0
 10 61  1  0
 11 17  1  0
 11 46  1  0
 11 12  1  6
 12 13  1  0
 13 14  1  0
 13 15  1  0
 13 16  1  0
 14 62  1  0
 14 63  1  0
 14 64  1  0
 15 65  1  0
 15 66  1  0
 15 67  1  0
 16 17  1  0
 17 18  1  0
 17 68  1  1
 18 19  1  0
 19 24  1  0
 19 20  1  0
 19 69  1  1
 20 21  1  0
 21 42  1  0
 21 22  1  0
 21 70  1  1
 22 23  1  0
 22 71  1  1
 23 24  1  0
 24 25  1  0
 24 72  1  6
 25 26  1  0
 26 37  1  0
 26 27  1  1
 26 28  1  0
 27 73  1  0
 28 29  1  0
 28 74  1  0
 28 75  1  0
 29 30  1  0
 29 76  1  0
 29 77  1  0
 30 31  1  0
 30 38  1  0
 30 78  1  6
 31 32  1  0
 31 79  1  0
 31 80  1  0
 32 33  1  0
 32 34  1  0
 32 81  1  1
 33 82  1  0
 34 35  1  0
 34 83  1  6
 35 36  1  0
 36 37  1  0
 36 84  1  6
 38 46  1  0
 38 39  1  6
 38 40  1  0
 39 85  1  0
 40 41  1  0
 40 86  1  0
 40 87  1  0
 41 42  1  0
 42 43  1  1
 44 42  1  1
 43 88  1  0
 44 45  2  0
 44 46  1  0
 46 47  1  1
 47 89  1  0
 47 90  1  0
 47 91  1  0
M  END
>  <i_m_ct_stereo_status>  (224) 
1

>  <s_m_source_file>  (224) 
/var/tmp/pbs.5075288.sched01/tmpo2oug7hv/195455be7ie.sdf

>  <i_m_source_file_index>  (224) 
61

>  <i_lp_mmshare_version>  (224) 
48012

>  <i_f3d_flags>  (224) 
0

>  <s_epik_input>  (224) 
TzFbQ0BIXTJbQ0BdKFtPSF0pKE9bQ0gyXTMpW1MrXShbTy1dKVtDQF00KFtDSDNdKVtDQEBdMyhbT0hdKVtDQEhdKFtDSDJdW0NIMl1bQ0BAXShPNSkoW09IXSlPW0NASF02TzcpW0NIMl1bQ0BASF0oW09IXSlbQ0BIXTdbQ0BAXTYoW0NIMl1DKFtDSDNdKShbQ0gzXSlbT0hdKU9bQ0BASF0oW0NIMl1bQ0gyXTgpW0NASF0yT1tDQEhdNVtDQEhdMU9bQ0BIXShbQ0BdNDg5KU9DKE85KShbQ0gzXSlbQ0gzXQ==

>  <s_epik_cmdline>  (224) 
J2VwaWtfcHl0aG9uJywgJy1waHQnLCAnMi4wJywgJy1waCcsICc3LjAnLCAnLXRuJywgJzgnLCAnLW1hJywgJzIwMCcsICctaW1hZScsICc8aW5maWxlLm1hZT4nLCAnLW9tYWUnLCAnPG91dGZpbGUubWFlPic=

>  <r_lp_tautomer_probability>  (224) 
1

>  <r_epik_Ionization_Penalty>  (224) 
4.44624e-05

>  <r_epik_Ionization_Penalty_Charging>  (224) 
0

>  <r_epik_Ionization_Penalty_Neutral>  (224) 
4.44624e-05

>  <r_epik_State_Penalty>  (224) 
-0

>  <r_epik_Charging_Adjusted_Penalty>  (224) 
0

>  <i_epik_Tot_Q>  (224) 
0

>  <i_epik_Tot_abs_Q>  (224) 
2

>  <s_epik_Chemistry_Notes>  (224) 
This compound contains an acetal/aminal-like group ( X-CH(R)-Y where X, Y are N, S, or O) that may be acid/base labile, releasing an aldehyde.

>  <s_lp_Force_Field>  (224) 
OPLS3e

>  <r_lp_Energy>  (224) 
439.148

>  <b_lp_Chiralities_Consistent>  (224) 
1

>  <s_lp_Variant>  (224) 
102:0-1

>  <s_i_glide_gridfile>  (224) 
pfpi4k_grid

>  <i_i_glide_lignum>  (224) 
61

>  <i_i_glide_rotatable_bonds>  (224) 
7

>  <r_i_docking_score>  (224) 
-1.69867

>  <r_i_glide_ligand_efficiency>  (224) 
-0.0361418

>  <r_i_glide_ligand_efficiency_sa>  (224) 
-0.13043

>  <r_i_glide_ligand_efficiency_ln>  (224) 
-0.35023

>  <r_i_glide_gscore>  (224) 
-1.69867

>  <r_i_glide_lipo>  (224) 
-0.0518271

>  <r_i_glide_hbond>  (224) 
-0.0687008

>  <r_i_glide_metal>  (224) 
-0

>  <r_i_glide_rewards>  (224) 
-0.256146

>  <r_i_glide_evdw>  (224) 
-23.9791

>  <r_i_glide_ecoul>  (224) 
-0.698116

>  <r_i_glide_erotb>  (224) 
0.0892299

>  <r_i_glide_esite>  (224) 
-0.107548

>  <r_i_glide_emodel>  (224) 
-22.6356

>  <r_i_glide_energy>  (224) 
-24.6773

>  <r_i_glide_einternal>  (224) 
5.19735

>  <r_i_glide_intrahb_reward>  (224) 
-0

>  <i_i_glide_confnum>  (224) 
1

>  <i_i_glide_posenum>  (224) 
6

>  <r_i_glide_eff_state_penalty>  (224) 
0

>  <ligand_id>  (224) 
102

>  <original_smiles>  (224) 
CC(C)(O)CC12OC3CCC45OC(C)(C)OC4OC4OC6C3OC4OC3(O)CCC(CC(O)C1OC2O3)C1(O)COC6(O)[S+]([O-])C15C

>  <smiles>  (224) 
[H]OC12OC3([H])OC4([H])C5([H])OC3([H])OC3([H])OC(C([H])([H])[H])(C([H])([H])[H])OC36C([H])([H])C([H])([H])C4([H])OC3(C([H])([H])C(O[H])(C([H])([H])[H])C([H])([H])[H])C([H])(O1)OC3([H])C([H])(O[H])C([H])([H])C([H])(C([H])([H])C2([H])[H])C1(O[H])C([H])([H])OC5(O[H])S(=O)C61C([H])([H])[H]

$$$$
