3:0:0
     RDKit          3D

 20 20  0  0  1  0  0  0  0  0999 V2000
    3.3036   -3.0327    1.1575 C   0  0  0  0  0  0  0  0  0  0  0  0
    3.5019   -3.9106   -0.0984 C   0  0  1  0  0  0  0  0  0  0  0  0
    2.8926   -5.3283    0.1514 C   0  0  0  0  0  0  0  0  0  0  0  0
    1.5565   -5.4565   -0.3212 O   0  0  0  0  0  0  0  0  0  0  0  0
    2.8963   -3.2027   -1.3325 C   0  0  0  0  0  0  0  0  0  0  0  0
    3.8601   -2.1564   -1.9029 C   0  0  0  0  0  0  0  0  0  0  0  0
    5.5095   -2.9896   -1.8921 S   0  0  0  0  0  0  0  0  0  0  0  0
    6.5178   -1.9474   -1.3529 O   0  0  0  0  0  0  0  0  0  0  0  0
    4.9914   -3.9708   -0.4555 C   0  0  0  0  0  0  0  0  0  0  0  0
    5.7921   -4.6340    0.2068 O   0  0  0  0  0  0  0  0  0  0  0  0
    2.2415   -2.8606    1.3492 H   0  0  0  0  0  0  0  0  0  0  0  0
    3.7789   -2.0567    1.0512 H   0  0  0  0  0  0  0  0  0  0  0  0
    3.7273   -3.5029    2.0470 H   0  0  0  0  0  0  0  0  0  0  0  0
    3.4843   -6.1091   -0.3197 H   0  0  0  0  0  0  0  0  0  0  0  0
    2.8987   -5.5683    1.2171 H   0  0  0  0  0  0  0  0  0  0  0  0
    1.5999   -5.3745   -1.2630 H   0  0  0  0  0  0  0  0  0  0  0  0
    2.6985   -3.9087   -2.1328 H   0  0  0  0  0  0  0  0  0  0  0  0
    1.9370   -2.7545   -1.0900 H   0  0  0  0  0  0  0  0  0  0  0  0
    3.5824   -1.8574   -2.9132 H   0  0  0  0  0  0  0  0  0  0  0  0
    3.8823   -1.2655   -1.2746 H   0  0  0  0  0  0  0  0  0  0  0  0
  2  1  1  1
  1 11  1  0
  1 12  1  0
  1 13  1  0
  2  9  1  0
  2  3  1  0
  2  5  1  0
  3  4  1  0
  3 14  1  0
  3 15  1  0
  4 16  1  0
  5  6  1  0
  5 17  1  0
  5 18  1  0
  7  6  1  1
  6 19  1  0
  6 20  1  0
  7  8  2  0
  7  9  1  0
  9 10  2  0
M  END
>  <i_m_ct_stereo_status>  (1) 
1

>  <s_m_source_file>  (1) 
/var/tmp/pbs.5075288.sched01/tmpye5xf5zc/0p3ozm_yu.sdf

>  <i_m_source_file_index>  (1) 
4

>  <i_lp_mmshare_version>  (1) 
48012

>  <i_f3d_flags>  (1) 
0

>  <s_epik_input>  (1) 
W09IXVtDSDJdW0NAXTEoW0NIM10pW0NIMl1bQ0gyXVtTK10oW08tXSlDMT1P

>  <s_epik_cmdline>  (1) 
J2VwaWtfcHl0aG9uJywgJy1waHQnLCAnMi4wJywgJy1waCcsICc3LjAnLCAnLXRuJywgJzgnLCAnLW1hJywgJzIwMCcsICctaW1hZScsICc8aW5maWxlLm1hZT4nLCAnLW9tYWUnLCAnPG91dGZpbGUubWFlPic=

>  <r_lp_tautomer_probability>  (1) 
1

>  <r_epik_Ionization_Penalty>  (1) 
2.13653e-07

>  <r_epik_Ionization_Penalty_Charging>  (1) 
0

>  <r_epik_Ionization_Penalty_Neutral>  (1) 
2.13653e-07

>  <r_epik_State_Penalty>  (1) 
-0

>  <r_epik_Charging_Adjusted_Penalty>  (1) 
0

>  <i_epik_Tot_Q>  (1) 
0

>  <i_epik_Tot_abs_Q>  (1) 
2

>  <s_lp_Force_Field>  (1) 
OPLS3e

>  <r_lp_Energy>  (1) 
2.12268

>  <b_lp_Chiralities_Consistent>  (1) 
1

>  <s_lp_Variant>  (1) 
3:0-1

>  <s_i_glide_gridfile>  (1) 
pfpi4k_grid

>  <i_i_glide_lignum>  (1) 
4

>  <i_i_glide_rotatable_bonds>  (1) 
2

>  <r_i_docking_score>  (1) 
-5.00125

>  <r_i_glide_ligand_efficiency>  (1) 
-0.500125

>  <r_i_glide_ligand_efficiency_sa>  (1) 
-1.07749

>  <r_i_glide_ligand_efficiency_ln>  (1) 
-1.51435

>  <r_i_glide_gscore>  (1) 
-5.00125

>  <r_i_glide_lipo>  (1) 
-0.0481246

>  <r_i_glide_hbond>  (1) 
-0.548209

>  <r_i_glide_metal>  (1) 
-0

>  <r_i_glide_rewards>  (1) 
-2.43389

>  <r_i_glide_evdw>  (1) 
-11.8264

>  <r_i_glide_ecoul>  (1) 
-9.19809

>  <r_i_glide_erotb>  (1) 
0

>  <r_i_glide_esite>  (1) 
0

>  <r_i_glide_emodel>  (1) 
-25.9251

>  <r_i_glide_energy>  (1) 
-21.0245

>  <r_i_glide_einternal>  (1) 
4.60672

>  <r_i_glide_intrahb_reward>  (1) 
-0

>  <i_i_glide_confnum>  (1) 
1

>  <i_i_glide_posenum>  (1) 
38

>  <r_i_glide_eff_state_penalty>  (1) 
0

>  <ligand_id>  (1) 
3

>  <original_smiles>  (1) 
CC1(CO)CC[S+]([O-])C1=O

>  <smiles>  (1) 
[H]OC([H])([H])C1(C([H])([H])[H])C(=O)S(=O)C([H])([H])C1([H])[H]

$$$$
3:0:1
     RDKit          3D

 20 20  0  0  1  0  0  0  0  0999 V2000
    5.1720   -3.4313   -2.5800 C   0  0  0  0  0  0  0  0  0  0  0  0
    3.9116   -2.6847   -2.0853 C   0  0  1  0  0  0  0  0  0  0  0  0
    2.8397   -2.6051   -3.2067 C   0  0  0  0  0  0  0  0  0  0  0  0
    2.7165   -3.8193   -3.8980 O   0  0  0  0  0  0  0  0  0  0  0  0
    3.3614   -3.3363   -0.8000 C   0  0  0  0  0  0  0  0  0  0  0  0
    4.1522   -2.8535    0.4260 C   0  0  0  0  0  0  0  0  0  0  0  0
    4.3549   -1.0356    0.1703 S   0  0  0  0  0  0  0  0  0  0  0  0
    5.8258   -0.6938    0.4791 O   0  0  0  0  0  0  0  0  0  0  0  0
    4.3049   -1.2797   -1.6227 C   0  0  0  0  0  0  0  0  0  0  0  0
    4.6051   -0.3960   -2.4222 O   0  0  0  0  0  0  0  0  0  0  0  0
    4.9494   -4.4817   -2.7866 H   0  0  0  0  0  0  0  0  0  0  0  0
    5.9748   -3.4254   -1.8440 H   0  0  0  0  0  0  0  0  0  0  0  0
    5.5614   -2.9997   -3.5044 H   0  0  0  0  0  0  0  0  0  0  0  0
    1.8601   -2.3315   -2.8030 H   0  0  0  0  0  0  0  0  0  0  0  0
    3.0806   -1.8419   -3.9500 H   0  0  0  0  0  0  0  0  0  0  0  0
    2.6155   -4.5402   -3.2854 H   0  0  0  0  0  0  0  0  0  0  0  0
    2.3194   -3.0416   -0.6609 H   0  0  0  0  0  0  0  0  0  0  0  0
    3.3881   -4.4228   -0.8614 H   0  0  0  0  0  0  0  0  0  0  0  0
    3.6369   -3.0515    1.3655 H   0  0  0  0  0  0  0  0  0  0  0  0
    5.1398   -3.3118    0.4698 H   0  0  0  0  0  0  0  0  0  0  0  0
  2  1  1  6
  1 11  1  0
  1 12  1  0
  1 13  1  0
  2  9  1  0
  2  3  1  0
  2  5  1  0
  3  4  1  0
  3 14  1  0
  3 15  1  0
  4 16  1  0
  5  6  1  0
  5 17  1  0
  5 18  1  0
  7  6  1  1
  6 19  1  0
  6 20  1  0
  7  8  2  0
  7  9  1  0
  9 10  2  0
M  END
>  <i_m_ct_stereo_status>  (2) 
1

>  <s_m_source_file>  (2) 
/var/tmp/pbs.5075288.sched01/tmpye5xf5zc/0p3ozm_yu.sdf

>  <i_m_source_file_index>  (2) 
4

>  <i_lp_mmshare_version>  (2) 
48012

>  <i_f3d_flags>  (2) 
0

>  <s_epik_input>  (2) 
W09IXVtDSDJdW0NAXTEoW0NIM10pW0NIMl1bQ0gyXVtTK10oW08tXSlDMT1P

>  <s_epik_cmdline>  (2) 
J2VwaWtfcHl0aG9uJywgJy1waHQnLCAnMi4wJywgJy1waCcsICc3LjAnLCAnLXRuJywgJzgnLCAnLW1hJywgJzIwMCcsICctaW1hZScsICc8aW5maWxlLm1hZT4nLCAnLW9tYWUnLCAnPG91dGZpbGUubWFlPic=

>  <r_lp_tautomer_probability>  (2) 
1

>  <r_epik_Ionization_Penalty>  (2) 
2.13653e-07

>  <r_epik_Ionization_Penalty_Charging>  (2) 
0

>  <r_epik_Ionization_Penalty_Neutral>  (2) 
2.13653e-07

>  <r_epik_State_Penalty>  (2) 
-0

>  <r_epik_Charging_Adjusted_Penalty>  (2) 
0

>  <i_epik_Tot_Q>  (2) 
0

>  <i_epik_Tot_abs_Q>  (2) 
2

>  <s_lp_Force_Field>  (2) 
OPLS3e

>  <r_lp_Energy>  (2) 
2.12268

>  <b_lp_Chiralities_Consistent>  (2) 
1

>  <s_lp_Variant>  (2) 
3:0-1

>  <s_i_glide_gridfile>  (2) 
pfpi4k_grid

>  <i_i_glide_lignum>  (2) 
4

>  <i_i_glide_rotatable_bonds>  (2) 
2

>  <r_i_docking_score>  (2) 
-4.69446

>  <r_i_glide_ligand_efficiency>  (2) 
-0.469446

>  <r_i_glide_ligand_efficiency_sa>  (2) 
-1.01139

>  <r_i_glide_ligand_efficiency_ln>  (2) 
-1.42145

>  <r_i_glide_gscore>  (2) 
-4.69446

>  <r_i_glide_lipo>  (2) 
-0.356751

>  <r_i_glide_hbond>  (2) 
-0.32

>  <r_i_glide_metal>  (2) 
-0

>  <r_i_glide_rewards>  (2) 
-2.25

>  <r_i_glide_evdw>  (2) 
-15.9494

>  <r_i_glide_ecoul>  (2) 
-6.12421

>  <r_i_glide_erotb>  (2) 
0

>  <r_i_glide_esite>  (2) 
-0.0516026

>  <r_i_glide_emodel>  (2) 
-26.9896

>  <r_i_glide_energy>  (2) 
-22.0737

>  <r_i_glide_einternal>  (2) 
3.74464

>  <r_i_glide_intrahb_reward>  (2) 
-0

>  <i_i_glide_confnum>  (2) 
2

>  <i_i_glide_posenum>  (2) 
2

>  <r_i_glide_eff_state_penalty>  (2) 
0

>  <ligand_id>  (2) 
3

>  <original_smiles>  (2) 
CC1(CO)CC[S+]([O-])C1=O

>  <smiles>  (2) 
[H]OC([H])([H])C1(C([H])([H])[H])C(=O)S(=O)C([H])([H])C1([H])[H]

$$$$
3:0:2
     RDKit          3D

 20 20  0  0  1  0  0  0  0  0999 V2000
    4.0102   -1.4525   -1.8425 C   0  0  0  0  0  0  0  0  0  0  0  0
    4.3586   -2.8534   -1.2863 C   0  0  1  0  0  0  0  0  0  0  0  0
    3.0589   -3.6545   -1.0186 C   0  0  0  0  0  0  0  0  0  0  0  0
    2.2111   -3.0554   -0.0561 O   0  0  0  0  0  0  0  0  0  0  0  0
    5.2576   -3.6072   -2.2909 C   0  0  0  0  0  0  0  0  0  0  0  0
    6.7222   -3.2035   -2.1117 C   0  0  0  0  0  0  0  0  0  0  0  0
    7.0079   -3.1424   -0.2940 S   0  0  0  0  0  0  0  0  0  0  0  0
    7.7439   -1.8196   -0.0211 O   0  0  0  0  0  0  0  0  0  0  0  0
    5.2562   -2.7338   -0.0358 C   0  0  0  0  0  0  0  0  0  0  0  0
    4.8490   -2.3284    1.0551 O   0  0  0  0  0  0  0  0  0  0  0  0
    3.4928   -1.5350   -2.7990 H   0  0  0  0  0  0  0  0  0  0  0  0
    4.9023   -0.8420   -1.9984 H   0  0  0  0  0  0  0  0  0  0  0  0
    3.3543   -0.9031   -1.1645 H   0  0  0  0  0  0  0  0  0  0  0  0
    2.4861   -3.7588   -1.9359 H   0  0  0  0  0  0  0  0  0  0  0  0
    3.2866   -4.6654   -0.6855 H   0  0  0  0  0  0  0  0  0  0  0  0
    1.9037   -2.2048   -0.3766 H   0  0  0  0  0  0  0  0  0  0  0  0
    5.1802   -4.6754   -2.1037 H   0  0  0  0  0  0  0  0  0  0  0  0
    4.9370   -3.4440   -3.3151 H   0  0  0  0  0  0  0  0  0  0  0  0
    7.4230   -3.8575   -2.5968 H   0  0  0  0  0  0  0  0  0  0  0  0
    6.8974   -2.2274   -2.5170 H   0  0  0  0  0  0  0  0  0  0  0  0
  2  1  1  6
  1 11  1  0
  1 12  1  0
  1 13  1  0
  2  9  1  0
  2  3  1  0
  2  5  1  0
  3  4  1  0
  3 14  1  0
  3 15  1  0
  4 16  1  0
  5  6  1  0
  5 17  1  0
  5 18  1  0
  7  6  1  6
  6 19  1  0
  6 20  1  0
  7  8  2  0
  7  9  1  0
  9 10  2  0
M  END
>  <i_m_ct_stereo_status>  (3) 
1

>  <s_m_source_file>  (3) 
/var/tmp/pbs.5075288.sched01/tmpye5xf5zc/0p3ozm_yu.sdf

>  <i_m_source_file_index>  (3) 
4

>  <i_lp_mmshare_version>  (3) 
48012

>  <i_f3d_flags>  (3) 
0

>  <s_epik_input>  (3) 
W09IXVtDSDJdW0NAXTEoW0NIM10pW0NIMl1bQ0gyXVtTK10oW08tXSlDMT1P

>  <s_epik_cmdline>  (3) 
J2VwaWtfcHl0aG9uJywgJy1waHQnLCAnMi4wJywgJy1waCcsICc3LjAnLCAnLXRuJywgJzgnLCAnLW1hJywgJzIwMCcsICctaW1hZScsICc8aW5maWxlLm1hZT4nLCAnLW9tYWUnLCAnPG91dGZpbGUubWFlPic=

>  <r_lp_tautomer_probability>  (3) 
1

>  <r_epik_Ionization_Penalty>  (3) 
2.13653e-07

>  <r_epik_Ionization_Penalty_Charging>  (3) 
0

>  <r_epik_Ionization_Penalty_Neutral>  (3) 
2.13653e-07

>  <r_epik_State_Penalty>  (3) 
-0

>  <r_epik_Charging_Adjusted_Penalty>  (3) 
0

>  <i_epik_Tot_Q>  (3) 
0

>  <i_epik_Tot_abs_Q>  (3) 
2

>  <s_lp_Force_Field>  (3) 
OPLS3e

>  <r_lp_Energy>  (3) 
2.12268

>  <b_lp_Chiralities_Consistent>  (3) 
1

>  <s_lp_Variant>  (3) 
3:0-1

>  <s_i_glide_gridfile>  (3) 
pfpi4k_grid

>  <i_i_glide_lignum>  (3) 
4

>  <i_i_glide_rotatable_bonds>  (3) 
2

>  <r_i_docking_score>  (3) 
-4.09902

>  <r_i_glide_ligand_efficiency>  (3) 
-0.409902

>  <r_i_glide_ligand_efficiency_sa>  (3) 
-0.883108

>  <r_i_glide_ligand_efficiency_ln>  (3) 
-1.24116

>  <r_i_glide_gscore>  (3) 
-4.09902

>  <r_i_glide_lipo>  (3) 
-0.165744

>  <r_i_glide_hbond>  (3) 
-0.118395

>  <r_i_glide_metal>  (3) 
-0

>  <r_i_glide_rewards>  (3) 
-2.41768

>  <r_i_glide_evdw>  (3) 
-11.7694

>  <r_i_glide_ecoul>  (3) 
-5.39158

>  <r_i_glide_erotb>  (3) 
0

>  <r_i_glide_esite>  (3) 
0

>  <r_i_glide_emodel>  (3) 
-22.9702

>  <r_i_glide_energy>  (3) 
-17.161

>  <r_i_glide_einternal>  (3) 
0.675238

>  <r_i_glide_intrahb_reward>  (3) 
-0

>  <i_i_glide_confnum>  (3) 
1

>  <i_i_glide_posenum>  (3) 
11

>  <r_i_glide_eff_state_penalty>  (3) 
0

>  <ligand_id>  (3) 
3

>  <original_smiles>  (3) 
CC1(CO)CC[S+]([O-])C1=O

>  <smiles>  (3) 
[H]OC([H])([H])C1(C([H])([H])[H])C(=O)S(=O)C([H])([H])C1([H])[H]

$$$$
6:0:0
     RDKit          3D

 83 91  0  0  1  0  0  0  0  0999 V2000
   -0.6254   -7.6774    1.8447 C   0  0  0  0  0  0  0  0  0  0  0  0
   -0.1241   -8.5516    2.9635 C   0  0  0  0  0  0  0  0  0  0  0  0
   -0.8167   -9.8925    2.8886 C   0  0  0  0  0  0  0  0  0  0  0  0
    1.3108   -8.4413    3.4438 C   0  0  2  0  0  0  0  0  0  0  0  0
    2.1555   -9.5868    3.9488 C   0  0  0  0  0  0  0  0  0  0  0  0
    2.6900   -9.4431    5.3845 C   0  0  1  0  0  0  0  0  0  0  0  0
    4.1813   -9.1855    5.6213 C   0  0  1  0  0  0  0  0  0  0  0  0
    5.1170  -10.3898    5.5418 C   0  0  0  0  0  0  0  0  0  0  0  0
    4.7607   -8.2448    4.7363 O   0  0  0  0  0  0  0  0  0  0  0  0
    3.7650   -8.6356    7.0138 C   0  0  1  0  0  0  0  0  0  0  0  0
    3.8934   -9.6027    8.1972 C   0  0  0  0  0  0  0  0  0  0  0  0
    4.4859   -7.4998    7.4416 O   0  0  0  0  0  0  0  0  0  0  0  0
    2.3345   -8.3637    6.4483 C   0  0  2  0  0  0  0  0  0  0  0  0
    1.2765   -8.7128    7.3389 O   0  0  0  0  0  0  0  0  0  0  0  0
    2.3525   -6.9984    5.9565 O   0  0  0  0  0  0  0  0  0  0  0  0
    1.2012   -6.1716    5.9288 C   0  0  1  0  0  0  0  0  0  0  0  0
    0.5140   -6.0694    7.1625 O   0  0  0  0  0  0  0  0  0  0  0  0
    1.5848   -4.7742    5.4621 C   0  0  1  0  0  0  0  0  0  0  0  0
    2.8232   -4.1833    5.7822 O   0  0  0  0  0  0  0  0  0  0  0  0
    3.0165   -3.3603    4.6365 C   0  0  2  0  0  0  0  0  0  0  0  0
    2.1366   -3.7795    3.6037 O   0  0  0  0  0  0  0  0  0  0  0  0
    1.7448   -5.0290    4.0198 C   0  0  2  0  0  0  0  0  0  0  0  0
    0.5144   -5.5594    3.6794 O   0  0  0  0  0  0  0  0  0  0  0  0
    0.2156   -6.4996    4.7458 C   0  0  1  0  0  0  0  0  0  0  0  0
    0.1876   -7.9622    4.3276 C   0  0  1  0  0  0  0  0  0  0  0  0
    4.4896   -3.3993    4.1472 C   0  0  1  0  0  0  0  0  0  0  0  0
    5.1077   -4.8166    4.1475 C   0  0  0  0  0  0  0  0  0  0  0  0
    4.6709   -2.6515    2.7943 C   0  0  0  0  0  0  0  0  0  0  0  0
    3.7869   -1.4001    2.5751 C   0  0  2  0  0  0  0  0  0  0  0  0
    3.3702   -1.3183    1.1018 C   0  0  0  0  0  0  0  0  0  0  0  0
    4.5312   -0.1760    2.8243 O   0  0  0  0  0  0  0  0  0  0  0  0
    3.4459    0.3436    3.6326 C   0  0  1  0  0  0  0  0  0  0  0  0
    2.5020    1.1441    2.9524 O   0  0  0  0  0  0  0  0  0  0  0  0
    1.2800    0.5351    3.1899 C   0  0  1  0  0  0  0  0  0  0  0  0
    0.2756    0.9661    2.1005 C   0  0  0  0  0  0  0  0  0  0  0  0
   -0.4256    2.1391    2.4729 O   0  0  0  0  0  0  0  0  0  0  0  0
    1.4758   -0.8345    3.1557 O   0  0  0  0  0  0  0  0  0  0  0  0
    2.7860   -1.0320    3.6838 C   0  0  1  0  0  0  0  0  0  0  0  0
    2.8103   -1.8591    4.9815 C   0  0  1  0  0  0  0  0  0  0  0  0
    1.6537   -1.5412    5.9315 C   0  0  0  0  0  0  0  0  0  0  0  0
    3.9458   -1.4404    5.7238 O   0  0  0  0  0  0  0  0  0  0  0  0
    5.3440   -2.3831    5.4405 S   0  0  0  0  0  0  0  0  0  0  0  0
    5.5861   -3.2870    6.6444 O   0  0  0  0  0  0  0  0  0  0  0  0
   -0.5934   -8.2202    0.9033 H   0  0  0  0  0  0  0  0  0  0  0  0
   -0.0117   -6.7872    1.7254 H   0  0  0  0  0  0  0  0  0  0  0  0
   -1.6584   -7.4050    2.0619 H   0  0  0  0  0  0  0  0  0  0  0  0
   -0.5616  -10.4906    3.7581 H   0  0  0  0  0  0  0  0  0  0  0  0
   -0.5000  -10.4470    2.0062 H   0  0  0  0  0  0  0  0  0  0  0  0
   -1.9008   -9.7769    2.8741 H   0  0  0  0  0  0  0  0  0  0  0  0
    1.9022   -7.6831    2.9360 H   0  0  0  0  0  0  0  0  0  0  0  0
    1.6141  -10.5269    3.8553 H   0  0  0  0  0  0  0  0  0  0  0  0
    2.9821   -9.6903    3.2471 H   0  0  0  0  0  0  0  0  0  0  0  0
    2.4693  -10.3905    5.8791 H   0  0  0  0  0  0  0  0  0  0  0  0
    4.7556  -11.2227    6.1444 H   0  0  0  0  0  0  0  0  0  0  0  0
    6.1123  -10.1387    5.9012 H   0  0  0  0  0  0  0  0  0  0  0  0
    5.2178  -10.7694    4.5247 H   0  0  0  0  0  0  0  0  0  0  0  0
    4.7147   -8.6366    3.8796 H   0  0  0  0  0  0  0  0  0  0  0  0
    3.3576  -10.5372    8.0182 H   0  0  0  0  0  0  0  0  0  0  0  0
    3.4919   -9.1715    9.1147 H   0  0  0  0  0  0  0  0  0  0  0  0
    4.9336   -9.8700    8.3877 H   0  0  0  0  0  0  0  0  0  0  0  0
    5.3811   -7.7841    7.5123 H   0  0  0  0  0  0  0  0  0  0  0  0
    1.3792   -9.6414    7.5259 H   0  0  0  0  0  0  0  0  0  0  0  0
    0.3061   -6.9587    7.4197 H   0  0  0  0  0  0  0  0  0  0  0  0
    0.7477   -4.0804    5.6086 H   0  0  0  0  0  0  0  0  0  0  0  0
    2.5294   -5.7579    3.8026 H   0  0  0  0  0  0  0  0  0  0  0  0
   -0.7951   -6.2565    5.0746 H   0  0  0  0  0  0  0  0  0  0  0  0
   -0.1127   -8.6146    5.1462 H   0  0  0  0  0  0  0  0  0  0  0  0
    4.7043   -5.4517    3.3572 H   0  0  0  0  0  0  0  0  0  0  0  0
    4.9670   -5.3418    5.0957 H   0  0  0  0  0  0  0  0  0  0  0  0
    6.1839   -4.7649    3.9776 H   0  0  0  0  0  0  0  0  0  0  0  0
    5.7213   -2.4183    2.6323 H   0  0  0  0  0  0  0  0  0  0  0  0
    4.4225   -3.3705    2.0180 H   0  0  0  0  0  0  0  0  0  0  0  0
    2.6807   -2.1227    0.8573 H   0  0  0  0  0  0  0  0  0  0  0  0
    4.2364   -1.4053    0.4462 H   0  0  0  0  0  0  0  0  0  0  0  0
    2.8758   -0.3785    0.8532 H   0  0  0  0  0  0  0  0  0  0  0  0
    3.7580    0.7267    4.6001 H   0  0  0  0  0  0  0  0  0  0  0  0
    0.9116    0.7729    4.1892 H   0  0  0  0  0  0  0  0  0  0  0  0
    0.7849    1.0796    1.1412 H   0  0  0  0  0  0  0  0  0  0  0  0
   -0.4667    0.1732    1.9811 H   0  0  0  0  0  0  0  0  0  0  0  0
   -0.1809    2.8448    1.8693 H   0  0  0  0  0  0  0  0  0  0  0  0
    0.6880   -1.7805    5.4977 H   0  0  0  0  0  0  0  0  0  0  0  0
    1.6684   -0.4766    6.1644 H   0  0  0  0  0  0  0  0  0  0  0  0
    1.7777   -2.0682    6.8746 H   0  0  0  0  0  0  0  0  0  0  0  0
  1  2  1  0
  1 44  1  0
  1 45  1  0
  1 46  1  0
  2 25  1  0
  2  3  1  0
  2  4  1  0
  3 47  1  0
  3 48  1  0
  3 49  1  0
  4 25  1  0
  4  5  1  0
  4 50  1  6
  5  6  1  0
  5 51  1  0
  5 52  1  0
  6 13  1  0
  6  7  1  0
  6 53  1  1
  7  8  1  0
  7  9  1  6
  7 10  1  0
  8 54  1  0
  8 55  1  0
  8 56  1  0
  9 57  1  0
 10 11  1  0
 10 12  1  1
 10 13  1  0
 11 58  1  0
 11 59  1  0
 11 60  1  0
 12 61  1  0
 13 14  1  1
 13 15  1  0
 14 62  1  0
 15 16  1  0
 16 24  1  0
 16 17  1  1
 16 18  1  0
 17 63  1  0
 18 22  1  0
 18 19  1  0
 18 64  1  6
 20 19  1  1
 20 39  1  0
 20 21  1  0
 20 26  1  0
 21 22  1  0
 22 23  1  0
 22 65  1  1
 23 24  1  0
 24 25  1  0
 24 66  1  1
 25 67  1  1
 26 42  1  0
 26 27  1  6
 26 28  1  0
 27 68  1  0
 27 69  1  0
 27 70  1  0
 28 29  1  0
 28 71  1  0
 28 72  1  0
 29 38  1  0
 29 30  1  6
 29 31  1  0
 30 73  1  0
 30 74  1  0
 30 75  1  0
 31 32  1  0
 32 38  1  0
 32 33  1  0
 32 76  1  1
 33 34  1  0
 34 35  1  0
 34 37  1  0
 34 77  1  1
 35 36  1  0
 35 78  1  0
 35 79  1  0
 36 80  1  0
 38 37  1  6
 38 39  1  0
 39 40  1  1
 39 41  1  0
 40 81  1  0
 40 82  1  0
 40 83  1  0
 42 41  1  1
 42 43  2  0
M  END
>  <i_m_ct_stereo_status>  (4) 
1

>  <s_m_source_file>  (4) 
/var/tmp/pbs.5075288.sched01/tmpye5xf5zc/0p3ozm_yu.sdf

>  <i_m_source_file_index>  (4) 
7

>  <i_lp_mmshare_version>  (4) 
48012

>  <i_f3d_flags>  (4) 
0

>  <s_epik_input>  (4) 
W0NIM11bQ0BdMShbT0hdKVtDQEBdKFtDSDNdKShbT0hdKVtDQF0oTzIpKFtPSF0pW0NASF0xW0NIMl1bQ0BASF0oQzMoW0NIM10pW0NIM10pW0NASF0zW0NASF0oT1tDQEhdNE81KVtDQF0yKFtPSF0pW0NASF00T1tDQEBdNTZbQ0BAXTcoW0NIM10pW0NIMl1bQ0BAXTgoW0NIM10pW0NAQF05KFtDQF02KFtDSDNdKU9bUytdN1tPLV0pW0NAQEhdKE84KU9bQ0BIXShPOSlbQ0gyXVtPSF0=

>  <s_epik_cmdline>  (4) 
J2VwaWtfcHl0aG9uJywgJy1waHQnLCAnMi4wJywgJy1waCcsICc3LjAnLCAnLXRuJywgJzgnLCAnLW1hJywgJzIwMCcsICctaW1hZScsICc8aW5maWxlLm1hZT4nLCAnLW9tYWUnLCAnPG91dGZpbGUubWFlPic=

>  <r_lp_tautomer_probability>  (4) 
1

>  <r_epik_Ionization_Penalty>  (4) 
0.000160909

>  <r_epik_Ionization_Penalty_Charging>  (4) 
0

>  <r_epik_Ionization_Penalty_Neutral>  (4) 
0.000160909

>  <r_epik_State_Penalty>  (4) 
-0

>  <r_epik_Charging_Adjusted_Penalty>  (4) 
0

>  <i_epik_Tot_Q>  (4) 
0

>  <i_epik_Tot_abs_Q>  (4) 
2

>  <s_epik_Chemistry_Notes>  (4) 
This compound contains an acetal/aminal-like group ( X-CH(R)-Y where X, Y are N, S, or O) that may be acid/base labile, releasing an aldehyde.

>  <s_lp_Force_Field>  (4) 
OPLS3e

>  <r_lp_Energy>  (4) 
92.3175

>  <b_lp_Chiralities_Consistent>  (4) 
1

>  <s_lp_Variant>  (4) 
6:0-1

>  <s_i_glide_gridfile>  (4) 
pfpi4k_grid

>  <i_i_glide_lignum>  (4) 
7

>  <i_i_glide_rotatable_bonds>  (4) 
6

>  <r_i_docking_score>  (4) 
-2.38887

>  <r_i_glide_ligand_efficiency>  (4) 
-0.0555552

>  <r_i_glide_ligand_efficiency_sa>  (4) 
-0.194632

>  <r_i_glide_ligand_efficiency_ln>  (4) 
-0.501737

>  <r_i_glide_gscore>  (4) 
-2.38887

>  <r_i_glide_lipo>  (4) 
-0.0502802

>  <r_i_glide_hbond>  (4) 
-0.00866062

>  <r_i_glide_metal>  (4) 
-0

>  <r_i_glide_rewards>  (4) 
-0.531495

>  <r_i_glide_evdw>  (4) 
-23.2031

>  <r_i_glide_ecoul>  (4) 
-4.37754

>  <r_i_glide_erotb>  (4) 
0.0528536

>  <r_i_glide_esite>  (4) 
-0.0345053

>  <r_i_glide_emodel>  (4) 
-35.0604

>  <r_i_glide_energy>  (4) 
-27.5806

>  <r_i_glide_einternal>  (4) 
3.97452

>  <r_i_glide_intrahb_reward>  (4) 
-0.5

>  <i_i_glide_confnum>  (4) 
5

>  <i_i_glide_posenum>  (4) 
36

>  <r_i_glide_eff_state_penalty>  (4) 
0

>  <ligand_id>  (4) 
6

>  <original_smiles>  (4) 
CC1(C)C2CC3C(C)(O)C(C)(O)C3(O)OC3(O)C4OC5(OC4OC3C21)C1(C)CC2(C)OC3OC(CO)OC32C5(C)O[S+]1[O-]

>  <smiles>  (4) 
[H]OC([H])([H])C1([H])OC2([H])OC3(C([H])([H])[H])C([H])([H])C4(C([H])([H])[H])S(=O)OC(C([H])([H])[H])(C45OC4([H])OC6([H])C(O[H])(OC7(O[H])C([H])(C([H])([H])C8([H])C6([H])C8(C([H])([H])[H])C([H])([H])[H])C(O[H])(C([H])([H])[H])C7(O[H])C([H])([H])[H])C4([H])O5)C23O1

$$$$
6:0:1
     RDKit          3D

 83 91  0  0  1  0  0  0  0  0999 V2000
   -0.8178   -7.4312    2.0091 C   0  0  0  0  0  0  0  0  0  0  0  0
   -0.2920   -8.5052    2.9311 C   0  0  0  0  0  0  0  0  0  0  0  0
   -1.0201   -9.8085    2.6654 C   0  0  0  0  0  0  0  0  0  0  0  0
    1.1711   -8.5112    3.3326 C   0  0  2  0  0  0  0  0  0  0  0  0
    2.0158   -9.7438    3.5561 C   0  0  0  0  0  0  0  0  0  0  0  0
    2.6294   -9.8915    4.9608 C   0  0  1  0  0  0  0  0  0  0  0  0
    4.1400   -9.7088    5.1498 C   0  0  1  0  0  0  0  0  0  0  0  0
    5.0389  -10.8885    4.7805 C   0  0  0  0  0  0  0  0  0  0  0  0
    4.6971   -8.6247    4.4296 O   0  0  0  0  0  0  0  0  0  0  0  0
    3.8199   -9.4342    6.6447 C   0  0  1  0  0  0  0  0  0  0  0  0
    3.9895  -10.6151    7.6064 C   0  0  0  0  0  0  0  0  0  0  0  0
    4.5964   -8.4148    7.2402 O   0  0  0  0  0  0  0  0  0  0  0  0
    2.3665   -9.0324    6.2342 C   0  0  2  0  0  0  0  0  0  0  0  0
    1.3469   -9.5103    7.1159 O   0  0  0  0  0  0  0  0  0  0  0  0
    2.3957   -7.5998    6.0063 O   0  0  0  0  0  0  0  0  0  0  0  0
    1.2663   -6.7661    6.2135 C   0  0  1  0  0  0  0  0  0  0  0  0
    0.6528   -6.8996    7.4841 O   0  0  0  0  0  0  0  0  0  0  0  0
    1.6605   -5.3117    6.0086 C   0  0  1  0  0  0  0  0  0  0  0  0
    2.9328   -4.8149    6.3615 O   0  0  0  0  0  0  0  0  0  0  0  0
    3.0851   -3.7867    5.3895 C   0  0  2  0  0  0  0  0  0  0  0  0
    2.1355   -3.9794    4.3494 O   0  0  0  0  0  0  0  0  0  0  0  0
    1.7280   -5.2795    4.5357 C   0  0  2  0  0  0  0  0  0  0  0  0
    0.4634   -5.7113    4.1738 O   0  0  0  0  0  0  0  0  0  0  0  0
    0.2061   -6.8408    5.0511 C   0  0  1  0  0  0  0  0  0  0  0  0
    0.1144   -8.1921    4.3589 C   0  0  1  0  0  0  0  0  0  0  0  0
    4.5254   -3.7498    4.8097 C   0  0  1  0  0  0  0  0  0  0  0  0
    5.1045   -5.1492    4.4997 C   0  0  0  0  0  0  0  0  0  0  0  0
    4.6505   -2.7553    3.6212 C   0  0  0  0  0  0  0  0  0  0  0  0
    3.7913   -1.4702    3.7061 C   0  0  2  0  0  0  0  0  0  0  0  0
    3.2927   -1.0979    2.3046 C   0  0  0  0  0  0  0  0  0  0  0  0
    4.5692   -0.3173    4.1412 O   0  0  0  0  0  0  0  0  0  0  0  0
    3.5477    0.0387    5.1039 C   0  0  1  0  0  0  0  0  0  0  0  0
    2.5754    0.9598    4.6555 O   0  0  0  0  0  0  0  0  0  0  0  0
    1.3610    0.3185    4.8390 C   0  0  1  0  0  0  0  0  0  0  0  0
    0.3121    0.9430    3.9056 C   0  0  0  0  0  0  0  0  0  0  0  0
   -0.9995    0.6579    4.3377 O   0  0  0  0  0  0  0  0  0  0  0  0
    1.5344   -1.0168    4.5244 O   0  0  0  0  0  0  0  0  0  0  0  0
    2.8683   -1.3168    4.9256 C   0  0  1  0  0  0  0  0  0  0  0  0
    2.9429   -2.3804    6.0336 C   0  0  1  0  0  0  0  0  0  0  0  0
    1.8472   -2.2353    7.0940 C   0  0  0  0  0  0  0  0  0  0  0  0
    4.1322   -2.1275    6.7640 O   0  0  0  0  0  0  0  0  0  0  0  0
    5.4872   -3.0143    6.2138 S   0  0  0  0  0  0  0  0  0  0  0  0
    5.7703   -4.1366    7.1999 O   0  0  0  0  0  0  0  0  0  0  0  0
   -0.8217   -7.7919    0.9786 H   0  0  0  0  0  0  0  0  0  0  0  0
   -0.1866   -6.5482    2.0430 H   0  0  0  0  0  0  0  0  0  0  0  0
   -1.8337   -7.1667    2.3032 H   0  0  0  0  0  0  0  0  0  0  0  0
   -0.7028  -10.5582    3.3909 H   0  0  0  0  0  0  0  0  0  0  0  0
   -0.7829  -10.1987    1.6864 H   0  0  0  0  0  0  0  0  0  0  0  0
   -2.1036   -9.6785    2.7448 H   0  0  0  0  0  0  0  0  0  0  0  0
    1.7506   -7.6773    2.9505 H   0  0  0  0  0  0  0  0  0  0  0  0
    1.4503  -10.6407    3.3096 H   0  0  0  0  0  0  0  0  0  0  0  0
    2.7999   -9.7192    2.7992 H   0  0  0  0  0  0  0  0  0  0  0  0
    2.4131  -10.9108    5.2736 H   0  0  0  0  0  0  0  0  0  0  0  0
    4.6900  -11.8173    5.2306 H   0  0  0  0  0  0  0  0  0  0  0  0
    6.0602  -10.7284    5.1214 H   0  0  0  0  0  0  0  0  0  0  0  0
    5.0720  -11.0646    3.7040 H   0  0  0  0  0  0  0  0  0  0  0  0
    4.6380   -8.8615    3.5188 H   0  0  0  0  0  0  0  0  0  0  0  0
    3.4183  -11.4848    7.2793 H   0  0  0  0  0  0  0  0  0  0  0  0
    3.6482  -10.3706    8.6132 H   0  0  0  0  0  0  0  0  0  0  0  0
    5.0308  -10.9334    7.6796 H   0  0  0  0  0  0  0  0  0  0  0  0
    5.4781   -8.7431    7.2485 H   0  0  0  0  0  0  0  0  0  0  0  0
    1.4817  -10.4510    7.2415 H   0  0  0  0  0  0  0  0  0  0  0  0
    0.4493   -7.8221    7.5792 H   0  0  0  0  0  0  0  0  0  0  0  0
    0.8525   -4.6490    6.3398 H   0  0  0  0  0  0  0  0  0  0  0  0
    2.4774   -5.9646    4.1346 H   0  0  0  0  0  0  0  0  0  0  0  0
   -0.7757   -6.6524    5.4822 H   0  0  0  0  0  0  0  0  0  0  0  0
   -0.1539   -8.9879    5.0532 H   0  0  0  0  0  0  0  0  0  0  0  0
    4.6393   -5.6125    3.6269 H   0  0  0  0  0  0  0  0  0  0  0  0
    5.0026   -5.8480    5.3354 H   0  0  0  0  0  0  0  0  0  0  0  0
    6.1712   -5.0812    4.2793 H   0  0  0  0  0  0  0  0  0  0  0  0
    5.6958   -2.5120    3.4420 H   0  0  0  0  0  0  0  0  0  0  0  0
    4.3370   -3.3037    2.7388 H   0  0  0  0  0  0  0  0  0  0  0  0
    2.5709   -1.8290    1.9519 H   0  0  0  0  0  0  0  0  0  0  0  0
    4.1168   -1.0698    1.5924 H   0  0  0  0  0  0  0  0  0  0  0  0
    2.8145   -0.1187    2.2722 H   0  0  0  0  0  0  0  0  0  0  0  0
    3.9259    0.2161    6.1055 H   0  0  0  0  0  0  0  0  0  0  0  0
    1.0773    0.4076    5.8902 H   0  0  0  0  0  0  0  0  0  0  0  0
    0.4232    2.0239    3.9522 H   0  0  0  0  0  0  0  0  0  0  0  0
    0.4799    0.6354    2.8727 H   0  0  0  0  0  0  0  0  0  0  0  0
   -1.1746   -0.2482    4.1444 H   0  0  0  0  0  0  0  0  0  0  0  0
    0.8523   -2.3708    6.6805 H   0  0  0  0  0  0  0  0  0  0  0  0
    1.9028   -1.2374    7.5279 H   0  0  0  0  0  0  0  0  0  0  0  0
    2.0089   -2.9383    7.9069 H   0  0  0  0  0  0  0  0  0  0  0  0
  1  2  1  0
  1 44  1  0
  1 45  1  0
  1 46  1  0
  2 25  1  0
  2  3  1  0
  2  4  1  0
  3 47  1  0
  3 48  1  0
  3 49  1  0
  4 25  1  0
  4  5  1  0
  4 50  1  6
  5  6  1  0
  5 51  1  0
  5 52  1  0
  6 13  1  0
  6  7  1  0
  6 53  1  1
  7  8  1  0
  7  9  1  6
  7 10  1  0
  8 54  1  0
  8 55  1  0
  8 56  1  0
  9 57  1  0
 10 11  1  0
 10 12  1  1
 10 13  1  0
 11 58  1  0
 11 59  1  0
 11 60  1  0
 12 61  1  0
 13 14  1  1
 13 15  1  0
 14 62  1  0
 15 16  1  0
 16 24  1  0
 16 17  1  1
 16 18  1  0
 17 63  1  0
 18 22  1  0
 18 19  1  0
 18 64  1  1
 20 19  1  1
 20 39  1  0
 20 21  1  0
 20 26  1  0
 21 22  1  0
 22 23  1  0
 22 65  1  6
 23 24  1  0
 24 25  1  0
 24 66  1  1
 25 67  1  1
 26 42  1  0
 26 27  1  6
 26 28  1  0
 27 68  1  0
 27 69  1  0
 27 70  1  0
 28 29  1  0
 28 71  1  0
 28 72  1  0
 29 38  1  0
 29 30  1  6
 29 31  1  0
 30 73  1  0
 30 74  1  0
 30 75  1  0
 31 32  1  0
 32 38  1  0
 32 33  1  0
 32 76  1  1
 33 34  1  0
 34 35  1  0
 34 37  1  0
 34 77  1  1
 35 36  1  0
 35 78  1  0
 35 79  1  0
 36 80  1  0
 38 37  1  6
 38 39  1  0
 39 40  1  1
 39 41  1  0
 40 81  1  0
 40 82  1  0
 40 83  1  0
 42 41  1  1
 42 43  2  0
M  END
>  <i_m_ct_stereo_status>  (5) 
1

>  <s_m_source_file>  (5) 
/var/tmp/pbs.5075288.sched01/tmpye5xf5zc/0p3ozm_yu.sdf

>  <i_m_source_file_index>  (5) 
7

>  <i_lp_mmshare_version>  (5) 
48012

>  <i_f3d_flags>  (5) 
0

>  <s_epik_input>  (5) 
W0NIM11bQ0BdMShbT0hdKVtDQEBdKFtDSDNdKShbT0hdKVtDQF0oTzIpKFtPSF0pW0NASF0xW0NIMl1bQ0BASF0oQzMoW0NIM10pW0NIM10pW0NASF0zW0NASF0oT1tDQEhdNE81KVtDQF0yKFtPSF0pW0NASF00T1tDQEBdNTZbQ0BAXTcoW0NIM10pW0NIMl1bQ0BAXTgoW0NIM10pW0NAQF05KFtDQF02KFtDSDNdKU9bUytdN1tPLV0pW0NAQEhdKE84KU9bQ0BIXShPOSlbQ0gyXVtPSF0=

>  <s_epik_cmdline>  (5) 
J2VwaWtfcHl0aG9uJywgJy1waHQnLCAnMi4wJywgJy1waCcsICc3LjAnLCAnLXRuJywgJzgnLCAnLW1hJywgJzIwMCcsICctaW1hZScsICc8aW5maWxlLm1hZT4nLCAnLW9tYWUnLCAnPG91dGZpbGUubWFlPic=

>  <r_lp_tautomer_probability>  (5) 
1

>  <r_epik_Ionization_Penalty>  (5) 
0.000160909

>  <r_epik_Ionization_Penalty_Charging>  (5) 
0

>  <r_epik_Ionization_Penalty_Neutral>  (5) 
0.000160909

>  <r_epik_State_Penalty>  (5) 
-0

>  <r_epik_Charging_Adjusted_Penalty>  (5) 
0

>  <i_epik_Tot_Q>  (5) 
0

>  <i_epik_Tot_abs_Q>  (5) 
2

>  <s_epik_Chemistry_Notes>  (5) 
This compound contains an acetal/aminal-like group ( X-CH(R)-Y where X, Y are N, S, or O) that may be acid/base labile, releasing an aldehyde.

>  <s_lp_Force_Field>  (5) 
OPLS3e

>  <r_lp_Energy>  (5) 
92.3175

>  <b_lp_Chiralities_Consistent>  (5) 
1

>  <s_lp_Variant>  (5) 
6:0-1

>  <s_i_glide_gridfile>  (5) 
pfpi4k_grid

>  <i_i_glide_lignum>  (5) 
7

>  <i_i_glide_rotatable_bonds>  (5) 
6

>  <r_i_docking_score>  (5) 
-2.34304

>  <r_i_glide_ligand_efficiency>  (5) 
-0.0544894

>  <r_i_glide_ligand_efficiency_sa>  (5) 
-0.190898

>  <r_i_glide_ligand_efficiency_ln>  (5) 
-0.492112

>  <r_i_glide_gscore>  (5) 
-2.34304

>  <r_i_glide_lipo>  (5) 
-0.0605735

>  <r_i_glide_hbond>  (5) 
0

>  <r_i_glide_metal>  (5) 
-0

>  <r_i_glide_rewards>  (5) 
-0.519676

>  <r_i_glide_evdw>  (5) 
-21.6691

>  <r_i_glide_ecoul>  (5) 
-4.63389

>  <r_i_glide_erotb>  (5) 
0.0528536

>  <r_i_glide_esite>  (5) 
-0.0371118

>  <r_i_glide_emodel>  (5) 
-34.3392

>  <r_i_glide_energy>  (5) 
-26.303

>  <r_i_glide_einternal>  (5) 
2.96025

>  <r_i_glide_intrahb_reward>  (5) 
-0.5

>  <i_i_glide_confnum>  (5) 
6

>  <i_i_glide_posenum>  (5) 
16

>  <r_i_glide_eff_state_penalty>  (5) 
0

>  <ligand_id>  (5) 
6

>  <original_smiles>  (5) 
CC1(C)C2CC3C(C)(O)C(C)(O)C3(O)OC3(O)C4OC5(OC4OC3C21)C1(C)CC2(C)OC3OC(CO)OC32C5(C)O[S+]1[O-]

>  <smiles>  (5) 
[H]OC([H])([H])C1([H])OC2([H])OC3(C([H])([H])[H])C([H])([H])C4(C([H])([H])[H])S(=O)OC(C([H])([H])[H])(C45OC4([H])OC6([H])C(O[H])(OC7(O[H])C([H])(C([H])([H])C8([H])C6([H])C8(C([H])([H])[H])C([H])([H])[H])C(O[H])(C([H])([H])[H])C7(O[H])C([H])([H])[H])C4([H])O5)C23O1

$$$$
6:0:2
     RDKit          3D

 83 91  0  0  1  0  0  0  0  0999 V2000
   -0.7961   -7.5188    1.9064 C   0  0  0  0  0  0  0  0  0  0  0  0
   -0.2284   -8.5351    2.8708 C   0  0  0  0  0  0  0  0  0  0  0  0
   -0.9008   -9.8736    2.6524 C   0  0  0  0  0  0  0  0  0  0  0  0
    1.2301   -8.4553    3.2880 C   0  0  2  0  0  0  0  0  0  0  0  0
    2.1269   -9.6366    3.5651 C   0  0  0  0  0  0  0  0  0  0  0  0
    2.7356   -9.6985    4.9793 C   0  0  1  0  0  0  0  0  0  0  0  0
    4.2312   -9.4425    5.1650 C   0  0  1  0  0  0  0  0  0  0  0  0
    5.1929  -10.5852    4.8590 C   0  0  0  0  0  0  0  0  0  0  0  0
    4.7279   -8.3561    4.4053 O   0  0  0  0  0  0  0  0  0  0  0  0
    3.9013   -9.1216    6.6446 C   0  0  1  0  0  0  0  0  0  0  0  0
    4.1061  -10.2495    7.6643 C   0  0  0  0  0  0  0  0  0  0  0  0
    4.6534   -8.0530    7.1721 O   0  0  0  0  0  0  0  0  0  0  0  0
    2.4285   -8.8047    6.2174 C   0  0  2  0  0  0  0  0  0  0  0  0
    1.4330   -9.3070    7.1105 O   0  0  0  0  0  0  0  0  0  0  0  0
    2.3923   -7.3788    5.9399 O   0  0  0  0  0  0  0  0  0  0  0  0
    1.2225   -6.5898    6.1001 C   0  0  1  0  0  0  0  0  0  0  0  0
    0.6058   -6.6974    7.3672 O   0  0  0  0  0  0  0  0  0  0  0  0
    1.5530   -5.1285    5.8297 C   0  0  1  0  0  0  0  0  0  0  0  0
    2.7969   -4.5611    6.1720 O   0  0  0  0  0  0  0  0  0  0  0  0
    2.9068   -3.5679    5.1565 C   0  0  2  0  0  0  0  0  0  0  0  0
    1.9767   -3.8477    4.1190 O   0  0  0  0  0  0  0  0  0  0  0  0
    1.6278   -5.1570    4.3579 C   0  0  2  0  0  0  0  0  0  0  0  0
    0.3892   -5.6637    4.0072 O   0  0  0  0  0  0  0  0  0  0  0  0
    0.1778   -6.7643    4.9316 C   0  0  1  0  0  0  0  0  0  0  0  0
    0.1523   -8.1443    4.2923 C   0  0  1  0  0  0  0  0  0  0  0  0
    4.3490   -3.4851    4.5835 C   0  0  1  0  0  0  0  0  0  0  0  0
    4.9959   -4.8684    4.3346 C   0  0  0  0  0  0  0  0  0  0  0  0
    4.4350   -2.5349    3.3532 C   0  0  0  0  0  0  0  0  0  0  0  0
    3.5189   -1.2875    3.3798 C   0  0  2  0  0  0  0  0  0  0  0  0
    3.0145   -0.9967    1.9617 C   0  0  0  0  0  0  0  0  0  0  0  0
    4.2417   -0.0872    3.7698 O   0  0  0  0  0  0  0  0  0  0  0  0
    3.1934    0.2629    4.7100 C   0  0  1  0  0  0  0  0  0  0  0  0
    2.1829    1.1210    4.2174 O   0  0  0  0  0  0  0  0  0  0  0  0
    0.9979    0.4286    4.4169 C   0  0  1  0  0  0  0  0  0  0  0  0
   -0.0752    0.9591    3.4566 C   0  0  0  0  0  0  0  0  0  0  0  0
   -1.3769    0.6690    3.9181 O   0  0  0  0  0  0  0  0  0  0  0  0
    1.2403   -0.9090    4.1635 O   0  0  0  0  0  0  0  0  0  0  0  0
    2.5807   -1.1283    4.5883 C   0  0  1  0  0  0  0  0  0  0  0  0
    2.6946   -2.1411    5.7391 C   0  0  1  0  0  0  0  0  0  0  0  0
    1.5842   -2.0031    6.7844 C   0  0  0  0  0  0  0  0  0  0  0  0
    3.8653   -1.8043    6.4673 O   0  0  0  0  0  0  0  0  0  0  0  0
    5.2643   -2.6482    5.9608 S   0  0  0  0  0  0  0  0  0  0  0  0
    5.5891   -3.7144    6.9949 O   0  0  0  0  0  0  0  0  0  0  0  0
   -0.7741   -7.9013    0.8865 H   0  0  0  0  0  0  0  0  0  0  0  0
   -0.2106   -6.6045    1.9142 H   0  0  0  0  0  0  0  0  0  0  0  0
   -1.8268   -7.2982    2.1827 H   0  0  0  0  0  0  0  0  0  0  0  0
   -0.5901  -10.5823    3.4205 H   0  0  0  0  0  0  0  0  0  0  0  0
   -0.6315  -10.2930    1.6838 H   0  0  0  0  0  0  0  0  0  0  0  0
   -1.9842   -9.7834    2.7139 H   0  0  0  0  0  0  0  0  0  0  0  0
    1.7747   -7.6111    2.8744 H   0  0  0  0  0  0  0  0  0  0  0  0
    1.6033  -10.5667    3.3519 H   0  0  0  0  0  0  0  0  0  0  0  0
    2.9190   -9.6059    2.8162 H   0  0  0  0  0  0  0  0  0  0  0  0
    2.5673  -10.7166    5.3309 H   0  0  0  0  0  0  0  0  0  0  0  0
    4.8861  -11.5092    5.3489 H   0  0  0  0  0  0  0  0  0  0  0  0
    6.2005  -10.3583    5.2046 H   0  0  0  0  0  0  0  0  0  0  0  0
    5.2452  -10.8043    3.7926 H   0  0  0  0  0  0  0  0  0  0  0  0
    4.7075   -8.6400    3.5051 H   0  0  0  0  0  0  0  0  0  0  0  0
    3.5818  -11.1584    7.3735 H   0  0  0  0  0  0  0  0  0  0  0  0
    3.7479   -9.9771    8.6575 H   0  0  0  0  0  0  0  0  0  0  0  0
    5.1609  -10.5065    7.7538 H   0  0  0  0  0  0  0  0  0  0  0  0
    4.2561   -7.8257    7.9976 H   0  0  0  0  0  0  0  0  0  0  0  0
    1.5806  -10.2459    7.2092 H   0  0  0  0  0  0  0  0  0  0  0  0
    0.4273   -7.6253    7.4927 H   0  0  0  0  0  0  0  0  0  0  0  0
    0.7100   -4.4922    6.1266 H   0  0  0  0  0  0  0  0  0  0  0  0
    2.4134   -5.8217    3.9915 H   0  0  0  0  0  0  0  0  0  0  0  0
   -0.8190   -6.6026    5.3448 H   0  0  0  0  0  0  0  0  0  0  0  0
   -0.0862   -8.9230    5.0161 H   0  0  0  0  0  0  0  0  0  0  0  0
    4.5578   -5.3877    3.4799 H   0  0  0  0  0  0  0  0  0  0  0  0
    4.9206   -5.5347    5.1976 H   0  0  0  0  0  0  0  0  0  0  0  0
    6.0589   -4.7587    4.1187 H   0  0  0  0  0  0  0  0  0  0  0  0
    5.4711   -2.2522    3.1700 H   0  0  0  0  0  0  0  0  0  0  0  0
    4.1545   -3.1371    2.4924 H   0  0  0  0  0  0  0  0  0  0  0  0
    2.3287   -1.7755    1.6318 H   0  0  0  0  0  0  0  0  0  0  0  0
    3.8405   -0.9595    1.2510 H   0  0  0  0  0  0  0  0  0  0  0  0
    2.4902   -0.0451    1.8851 H   0  0  0  0  0  0  0  0  0  0  0  0
    3.5540    0.4988    5.7082 H   0  0  0  0  0  0  0  0  0  0  0  0
    0.7006    0.5471    5.4618 H   0  0  0  0  0  0  0  0  0  0  0  0
    0.0054    2.0419    3.4354 H   0  0  0  0  0  0  0  0  0  0  0  0
    0.1051    0.6009    2.4448 H   0  0  0  0  0  0  0  0  0  0  0  0
   -2.0091    0.9441    3.2677 H   0  0  0  0  0  0  0  0  0  0  0  0
    0.5999   -2.2003    6.3711 H   0  0  0  0  0  0  0  0  0  0  0  0
    1.5913   -0.9867    7.1764 H   0  0  0  0  0  0  0  0  0  0  0  0
    1.7695   -2.6650    7.6275 H   0  0  0  0  0  0  0  0  0  0  0  0
  1  2  1  0
  1 44  1  0
  1 45  1  0
  1 46  1  0
  2 25  1  0
  2  3  1  0
  2  4  1  0
  3 47  1  0
  3 48  1  0
  3 49  1  0
  4 25  1  0
  4  5  1  0
  4 50  1  6
  5  6  1  0
  5 51  1  0
  5 52  1  0
  6 13  1  0
  6  7  1  0
  6 53  1  1
  7  8  1  0
  7  9  1  6
  7 10  1  0
  8 54  1  0
  8 55  1  0
  8 56  1  0
  9 57  1  0
 10 11  1  0
 10 12  1  1
 10 13  1  0
 11 58  1  0
 11 59  1  0
 11 60  1  0
 12 61  1  0
 13 14  1  1
 13 15  1  0
 14 62  1  0
 15 16  1  0
 16 24  1  0
 16 17  1  1
 16 18  1  0
 17 63  1  0
 18 22  1  0
 18 19  1  0
 18 64  1  6
 20 19  1  1
 20 39  1  0
 20 21  1  0
 20 26  1  0
 21 22  1  0
 22 23  1  0
 22 65  1  1
 23 24  1  0
 24 25  1  0
 24 66  1  1
 25 67  1  1
 26 42  1  0
 26 27  1  6
 26 28  1  0
 27 68  1  0
 27 69  1  0
 27 70  1  0
 28 29  1  0
 28 71  1  0
 28 72  1  0
 29 38  1  0
 29 30  1  6
 29 31  1  0
 30 73  1  0
 30 74  1  0
 30 75  1  0
 31 32  1  0
 32 38  1  0
 32 33  1  0
 32 76  1  1
 33 34  1  0
 34 35  1  0
 34 37  1  0
 34 77  1  1
 35 36  1  0
 35 78  1  0
 35 79  1  0
 36 80  1  0
 38 37  1  6
 38 39  1  0
 39 40  1  1
 39 41  1  0
 40 81  1  0
 40 82  1  0
 40 83  1  0
 42 41  1  1
 42 43  2  0
M  END
>  <i_m_ct_stereo_status>  (6) 
1

>  <s_m_source_file>  (6) 
/var/tmp/pbs.5075288.sched01/tmpye5xf5zc/0p3ozm_yu.sdf

>  <i_m_source_file_index>  (6) 
7

>  <i_lp_mmshare_version>  (6) 
48012

>  <i_f3d_flags>  (6) 
0

>  <s_epik_input>  (6) 
W0NIM11bQ0BdMShbT0hdKVtDQEBdKFtDSDNdKShbT0hdKVtDQF0oTzIpKFtPSF0pW0NASF0xW0NIMl1bQ0BASF0oQzMoW0NIM10pW0NIM10pW0NASF0zW0NASF0oT1tDQEhdNE81KVtDQF0yKFtPSF0pW0NASF00T1tDQEBdNTZbQ0BAXTcoW0NIM10pW0NIMl1bQ0BAXTgoW0NIM10pW0NAQF05KFtDQF02KFtDSDNdKU9bUytdN1tPLV0pW0NAQEhdKE84KU9bQ0BIXShPOSlbQ0gyXVtPSF0=

>  <s_epik_cmdline>  (6) 
J2VwaWtfcHl0aG9uJywgJy1waHQnLCAnMi4wJywgJy1waCcsICc3LjAnLCAnLXRuJywgJzgnLCAnLW1hJywgJzIwMCcsICctaW1hZScsICc8aW5maWxlLm1hZT4nLCAnLW9tYWUnLCAnPG91dGZpbGUubWFlPic=

>  <r_lp_tautomer_probability>  (6) 
1

>  <r_epik_Ionization_Penalty>  (6) 
0.000160909

>  <r_epik_Ionization_Penalty_Charging>  (6) 
0

>  <r_epik_Ionization_Penalty_Neutral>  (6) 
0.000160909

>  <r_epik_State_Penalty>  (6) 
-0

>  <r_epik_Charging_Adjusted_Penalty>  (6) 
0

>  <i_epik_Tot_Q>  (6) 
0

>  <i_epik_Tot_abs_Q>  (6) 
2

>  <s_epik_Chemistry_Notes>  (6) 
This compound contains an acetal/aminal-like group ( X-CH(R)-Y where X, Y are N, S, or O) that may be acid/base labile, releasing an aldehyde.

>  <s_lp_Force_Field>  (6) 
OPLS3e

>  <r_lp_Energy>  (6) 
92.3175

>  <b_lp_Chiralities_Consistent>  (6) 
1

>  <s_lp_Variant>  (6) 
6:0-1

>  <s_i_glide_gridfile>  (6) 
pfpi4k_grid

>  <i_i_glide_lignum>  (6) 
7

>  <i_i_glide_rotatable_bonds>  (6) 
6

>  <r_i_docking_score>  (6) 
-2.33751

>  <r_i_glide_ligand_efficiency>  (6) 
-0.0543607

>  <r_i_glide_ligand_efficiency_sa>  (6) 
-0.190447

>  <r_i_glide_ligand_efficiency_ln>  (6) 
-0.49095

>  <r_i_glide_gscore>  (6) 
-2.33751

>  <r_i_glide_lipo>  (6) 
-0.0372786

>  <r_i_glide_hbond>  (6) 
0

>  <r_i_glide_metal>  (6) 
-0

>  <r_i_glide_rewards>  (6) 
-0.518097

>  <r_i_glide_evdw>  (6) 
-22.5961

>  <r_i_glide_ecoul>  (6) 
-4.4935

>  <r_i_glide_erotb>  (6) 
0.0528536

>  <r_i_glide_esite>  (6) 
-0.0311567

>  <r_i_glide_emodel>  (6) 
-35.0636

>  <r_i_glide_energy>  (6) 
-27.0896

>  <r_i_glide_einternal>  (6) 
3.16124

>  <r_i_glide_intrahb_reward>  (6) 
-0.5

>  <i_i_glide_confnum>  (6) 
1

>  <i_i_glide_posenum>  (6) 
38

>  <r_i_glide_eff_state_penalty>  (6) 
0

>  <ligand_id>  (6) 
6

>  <original_smiles>  (6) 
CC1(C)C2CC3C(C)(O)C(C)(O)C3(O)OC3(O)C4OC5(OC4OC3C21)C1(C)CC2(C)OC3OC(CO)OC32C5(C)O[S+]1[O-]

>  <smiles>  (6) 
[H]OC([H])([H])C1([H])OC2([H])OC3(C([H])([H])[H])C([H])([H])C4(C([H])([H])[H])S(=O)OC(C([H])([H])[H])(C45OC4([H])OC6([H])C(O[H])(OC7(O[H])C([H])(C([H])([H])C8([H])C6([H])C8(C([H])([H])[H])C([H])([H])[H])C(O[H])(C([H])([H])[H])C7(O[H])C([H])([H])[H])C4([H])O5)C23O1

$$$$
7:0:0
     RDKit          3D

 89 96  0  0  1  0  0  0  0  0999 V2000
   -1.6604    4.4149    3.1736 C   0  0  0  0  0  0  0  0  0  0  0  0
   -0.7925    3.4019    3.0448 C   0  0  0  0  0  0  0  0  0  0  0  0
    0.0020    2.8552    4.0425 O   0  0  0  0  0  0  0  0  0  0  0  0
   -0.1127    3.1546    5.3952 C   0  0  1  0  0  0  0  0  0  0  0  0
    0.5600    4.3517    5.7117 O   0  0  0  0  0  0  0  0  0  0  0  0
   -1.5468    3.3062    5.8874 C   0  0  1  0  0  0  0  0  0  0  0  0
   -2.4808    2.5205    5.1958 O   0  0  0  0  0  0  0  0  0  0  0  0
   -1.3706    3.0109    7.3627 C   0  0  1  0  0  0  0  0  0  0  0  0
   -2.5869    2.5536    7.8491 O   0  0  0  0  0  0  0  0  0  0  0  0
   -2.7142    2.5762    9.2528 C   0  0  0  0  0  0  0  0  0  0  0  0
   -0.2829    2.1233    7.5119 O   0  0  0  0  0  0  0  0  0  0  0  0
    0.4206    1.9294    6.2593 C   0  0  1  0  0  0  0  0  0  0  0  0
   -0.0400    0.5340    5.7029 C   0  0  0  0  0  0  0  0  0  0  0  0
   -1.3536    0.1600    6.0932 C   0  0  0  0  0  0  0  0  0  0  0  0
   -1.8289   -1.1101    5.7782 C   0  0  0  0  0  0  0  0  0  0  0  0
   -0.9813   -2.0605    5.2490 C   0  0  0  0  0  0  0  0  0  0  0  0
    0.3272   -1.7446    4.8776 C   0  0  0  0  0  0  0  0  0  0  0  0
    0.8289   -0.4211    5.0222 C   0  0  0  0  0  0  0  0  0  0  0  0
    2.3102   -0.1284    4.4366 C   0  0  1  0  0  0  0  0  0  0  0  0
    2.5736    1.4105    4.2000 C   0  0  0  0  0  0  0  0  0  0  0  0
    2.7216    2.4278    5.3402 C   0  0  0  0  0  0  0  0  0  0  0  0
    1.9325    2.0412    6.6002 C   0  0  2  0  0  0  0  0  0  0  0  0
    2.5370    0.8403    7.4402 C   0  0  2  0  0  0  0  0  0  0  0  0
    1.5585   -0.1081    7.8550 O   0  0  0  0  0  0  0  0  0  0  0  0
    3.2639    1.2370    8.7463 C   0  0  1  0  0  0  0  0  0  0  0  0
    2.4040    1.6166    9.8084 O   0  0  0  0  0  0  0  0  0  0  0  0
    4.0812   -0.0313    9.0384 C   0  0  0  0  0  0  0  0  0  0  0  0
    4.1038   -0.7525    7.8033 O   0  0  0  0  0  0  0  0  0  0  0  0
    3.7089    0.0829    6.7483 C   0  0  2  0  0  0  0  0  0  0  0  0
    4.7935    0.9638    6.4909 O   0  0  0  0  0  0  0  0  0  0  0  0
    3.4049   -0.7887    5.4240 C   0  0  2  0  0  0  0  0  0  0  0  0
    4.7844   -1.3007    4.7702 C   0  0  2  0  0  0  0  0  0  0  0  0
    5.8475   -1.2774    5.7264 O   0  0  0  0  0  0  0  0  0  0  0  0
    6.0037   -2.3492    6.6508 C   0  0  0  0  0  0  0  0  0  0  0  0
    5.2992   -0.3731    3.6414 C   0  0  0  0  0  0  0  0  0  0  0  0
    4.8126   -0.7148    2.3630 O   0  0  0  0  0  0  0  0  0  0  0  0
    3.5370   -0.3451    1.9158 C   0  0  1  0  0  0  0  0  0  0  0  0
    3.4484    0.9669    1.4408 O   0  0  0  0  0  0  0  0  0  0  0  0
    3.3519   -1.2657    0.6799 C   0  0  0  0  0  0  0  0  0  0  0  0
    2.6401   -2.4569    1.1306 N   0  0  1  0  0  0  0  0  0  0  0  0
    3.2058   -3.7312    0.6250 C   0  0  0  0  0  0  0  0  0  0  0  0
    2.3050   -2.3070    2.5825 C   0  0  1  0  0  0  0  0  0  0  0  0
    2.9738   -3.3393    3.5540 C   0  0  0  0  0  0  0  0  0  0  0  0
    4.7241   -3.0121    4.0087 S   0  0  0  0  0  0  0  0  0  0  0  0
    5.6132   -3.1310    2.7695 O   0  0  0  0  0  0  0  0  0  0  0  0
    2.3554   -0.7795    2.9078 C   0  0  1  0  0  0  0  0  0  0  0  0
    1.1597   -0.2770    2.2881 O   0  0  0  0  0  0  0  0  0  0  0  0
   -1.7057    4.9557    4.0941 H   0  0  0  0  0  0  0  0  0  0  0  0
   -2.2892    4.7134    2.3800 H   0  0  0  0  0  0  0  0  0  0  0  0
   -0.6165    2.8599    2.1016 H   0  0  0  0  0  0  0  0  0  0  0  0
    0.4688    4.9568    5.0072 H   0  0  0  0  0  0  0  0  0  0  0  0
   -1.8940    4.3332    5.8927 H   0  0  0  0  0  0  0  0  0  0  0  0
   -2.1933    2.4589    4.3036 H   0  0  0  0  0  0  0  0  0  0  0  0
   -1.1139    3.9568    7.8754 H   0  0  0  0  0  0  0  0  0  0  0  0
   -3.6799    2.1533    9.5206 H   0  0  0  0  0  0  0  0  0  0  0  0
   -2.6735    3.6023    9.6153 H   0  0  0  0  0  0  0  0  0  0  0  0
   -1.9255    1.9828    9.7058 H   0  0  0  0  0  0  0  0  0  0  0  0
   -2.0311    0.7504    6.6762 H   0  0  0  0  0  0  0  0  0  0  0  0
   -2.8394   -1.3786    6.0547 H   0  0  0  0  0  0  0  0  0  0  0  0
   -1.3503   -3.0608    5.1430 H   0  0  0  0  0  0  0  0  0  0  0  0
    0.8365   -2.5691    4.4861 H   0  0  0  0  0  0  0  0  0  0  0  0
    3.5021    1.6051    3.6903 H   0  0  0  0  0  0  0  0  0  0  0  0
    1.8526    1.7848    3.4883 H   0  0  0  0  0  0  0  0  0  0  0  0
    3.7476    2.7157    5.5642 H   0  0  0  0  0  0  0  0  0  0  0  0
    2.4452    3.3713    4.9255 H   0  0  0  0  0  0  0  0  0  0  0  0
    2.0272    2.8980    7.2567 H   0  0  0  0  0  0  0  0  0  0  0  0
    1.2167   -0.5159    7.0715 H   0  0  0  0  0  0  0  0  0  0  0  0
    3.9407    2.0748    8.5665 H   0  0  0  0  0  0  0  0  0  0  0  0
    1.8222    0.8933    9.9788 H   0  0  0  0  0  0  0  0  0  0  0  0
    5.0862    0.2078    9.3835 H   0  0  0  0  0  0  0  0  0  0  0  0
    3.6005   -0.6467    9.7962 H   0  0  0  0  0  0  0  0  0  0  0  0
    4.4871    1.6083    5.8718 H   0  0  0  0  0  0  0  0  0  0  0  0
    2.9327   -1.6767    5.8222 H   0  0  0  0  0  0  0  0  0  0  0  0
    6.5342   -1.9631    7.5249 H   0  0  0  0  0  0  0  0  0  0  0  0
    6.5844   -3.1781    6.2593 H   0  0  0  0  0  0  0  0  0  0  0  0
    5.0488   -2.7447    6.9984 H   0  0  0  0  0  0  0  0  0  0  0  0
    5.2570    0.6781    3.8829 H   0  0  0  0  0  0  0  0  0  0  0  0
    6.3720   -0.5469    3.5317 H   0  0  0  0  0  0  0  0  0  0  0  0
    3.7864    1.5135    2.1650 H   0  0  0  0  0  0  0  0  0  0  0  0
    2.7143   -0.7433   -0.0474 H   0  0  0  0  0  0  0  0  0  0  0  0
    4.2962   -1.4704    0.1798 H   0  0  0  0  0  0  0  0  0  0  0  0
    4.2194   -3.8968    0.9936 H   0  0  0  0  0  0  0  0  0  0  0  0
    3.2551   -3.7147   -0.4714 H   0  0  0  0  0  0  0  0  0  0  0  0
    2.5781   -4.5883    0.9009 H   0  0  0  0  0  0  0  0  0  0  0  0
    1.2589   -2.6081    2.5433 H   0  0  0  0  0  0  0  0  0  0  0  0
    2.5113   -3.4321    4.5122 H   0  0  0  0  0  0  0  0  0  0  0  0
    2.9179   -4.3424    3.1361 H   0  0  0  0  0  0  0  0  0  0  0  0
    1.2081   -0.3530    1.3429 H   0  0  0  0  0  0  0  0  0  0  0  0
    1.7364   -2.3790    0.6486 H   0  0  0  0  0  0  0  0  0  0  0  0
  1  2  2  0
  1 48  1  0
  1 49  1  0
  2  3  1  0
  2 50  1  0
  4  3  1  6
  4 12  1  0
  4  5  1  0
  4  6  1  0
  5 51  1  0
  6  7  1  0
  6  8  1  0
  6 52  1  1
  7 53  1  0
  8  9  1  0
  8 11  1  0
  8 54  1  1
  9 10  1  0
 10 55  1  0
 10 56  1  0
 10 57  1  0
 12 11  1  1
 12 22  1  0
 12 13  1  0
 13 18  2  0
 13 14  1  0
 14 15  2  0
 14 58  1  0
 15 16  1  0
 15 59  1  0
 16 17  2  0
 16 60  1  0
 17 18  1  0
 17 61  1  0
 19 18  1  1
 19 31  1  0
 19 46  1  0
 19 20  1  0
 20 21  1  0
 20 62  1  0
 20 63  1  0
 21 22  1  0
 21 64  1  0
 21 65  1  0
 22 23  1  0
 22 66  1  1
 23 29  1  0
 23 24  1  1
 23 25  1  0
 24 67  1  0
 25 26  1  0
 25 27  1  0
 25 68  1  6
 26 69  1  0
 27 28  1  0
 27 70  1  0
 27 71  1  0
 28 29  1  0
 29 30  1  6
 29 31  1  0
 30 72  1  0
 31 32  1  0
 31 73  1  1
 32 44  1  0
 32 33  1  1
 32 35  1  0
 33 34  1  0
 34 74  1  0
 34 75  1  0
 34 76  1  0
 35 36  1  0
 35 77  1  0
 35 78  1  0
 36 37  1  0
 37 46  1  0
 37 38  1  6
 37 39  1  0
 38 79  1  0
 39 40  1  0
 39 80  1  0
 39 81  1  0
 40 41  1  0
 40 42  1  0
 40 89  1  6
 41 82  1  0
 41 83  1  0
 41 84  1  0
 42 43  1  0
 42 46  1  0
 42 85  1  6
 44 43  1  6
 43 86  1  0
 43 87  1  0
 44 45  2  0
 46 47  1  6
 47 88  1  0
M  CHG  1  40   1
M  END
>  <i_m_ct_stereo_status>  (7) 
1

>  <s_m_source_file>  (7) 
/var/tmp/pbs.5075288.sched01/tmpye5xf5zc/0p3ozm_yu.sdf

>  <i_m_source_file_index>  (7) 
8

>  <i_lp_mmshare_version>  (7) 
48012

>  <i_f3d_flags>  (7) 
0

>  <s_epik_input>  (7) 
W0NIM11PW0NAQEhdKE8xKVtDQEhdKFtPSF0pW0NAXShbT0hdKShPW0NIXT1bQ0gyXSlbQ0BdMTJjM2MoW2NIXVtjSF1bY0hdW2NIXTMpW0NAXTQ1W0NASF0oW0NAQF02KFtPSF0pW0NAQF0oW09IXSkoW0NAQEhdKFtPSF0pW0NIMl1PNilbQ0BIXTJbQ0gyXVtDSDJdNClbQ0BdNyhPW0NIM10pW0NIMl1PW0NAXTgoW09IXSlbQ0BAXTUoW09IXSlbQ0BASF0oTihbQ0gyXTgpW0NIM10pW0NIMl1bUytdN1tPLV0=

>  <s_epik_cmdline>  (7) 
J2VwaWtfcHl0aG9uJywgJy1waHQnLCAnMi4wJywgJy1waCcsICc3LjAnLCAnLXRuJywgJzgnLCAnLW1hJywgJzIwMCcsICctaW1hZScsICc8aW5maWxlLm1hZT4nLCAnLW9tYWUnLCAnPG91dGZpbGUubWFlPic=

>  <r_epik_Ionization_Penalty>  (7) 
0.0393096

>  <r_epik_Ionization_Penalty_Charging>  (7) 
0.0391527

>  <r_epik_Ionization_Penalty_Neutral>  (7) 
0.000156863

>  <r_epik_State_Penalty>  (7) 
0.0328779

>  <r_epik_Charging_Adjusted_Penalty>  (7) 
0.0720306

>  <i_epik_Tot_Q>  (7) 
1

>  <i_epik_Tot_abs_Q>  (7) 
3

>  <s_epik_Chemistry_Notes>  (7) 
This compound contains an acetal/aminal-like group ( X-CH(R)-Y where X, Y are N, S, or O) that may be acid/base labile, releasing an aldehyde.

>  <s_lp_Force_Field>  (7) 
OPLS3e

>  <r_lp_Energy>  (7) 
172.922

>  <b_lp_Chiralities_Consistent>  (7) 
1

>  <s_lp_Variant>  (7) 
7:0-1

>  <s_i_glide_gridfile>  (7) 
pfpi4k_grid

>  <i_i_glide_lignum>  (7) 
8

>  <i_i_glide_rotatable_bonds>  (7) 
11

>  <r_i_docking_score>  (7) 
-2.41485

>  <r_i_glide_ligand_efficiency>  (7) 
-0.0513799

>  <r_i_glide_ligand_efficiency_sa>  (7) 
-0.185421

>  <r_i_glide_ligand_efficiency_ln>  (7) 
-0.497893

>  <r_i_glide_gscore>  (7) 
-2.41485

>  <r_i_glide_lipo>  (7) 
-0.198788

>  <r_i_glide_hbond>  (7) 
-0.0789057

>  <r_i_glide_metal>  (7) 
-0

>  <r_i_glide_rewards>  (7) 
-0.0665635

>  <r_i_glide_evdw>  (7) 
-19.1129

>  <r_i_glide_ecoul>  (7) 
-7.72299

>  <r_i_glide_erotb>  (7) 
0.0911921

>  <r_i_glide_esite>  (7) 
-0.0476952

>  <r_i_glide_emodel>  (7) 
-27.6672

>  <r_i_glide_energy>  (7) 
-26.8359

>  <r_i_glide_einternal>  (7) 
4.6559

>  <r_i_glide_intrahb_reward>  (7) 
-0

>  <i_i_glide_confnum>  (7) 
5

>  <i_i_glide_posenum>  (7) 
11

>  <r_i_glide_eff_state_penalty>  (7) 
0

>  <ligand_id>  (7) 
7

>  <original_smiles>  (7) 
C=COC1(O)C(O)C(OC)OC12c1ccccc1C13CCC2C2(O)C(O)COC2(O)C1C1(OC)COC2(O)CN(C)C(C[S+]1[O-])C23O

>  <smiles>  (7) 
[H]OC1([H])C([H])(OC([H])([H])[H])OC2(c3c([H])c([H])c([H])c([H])c3C34C([H])([H])C([H])([H])C2([H])C2(O[H])C([H])(O[H])C([H])([H])OC2(O[H])C3([H])C2(OC([H])([H])[H])S(=O)C([H])([H])C3([H])C4(O[H])C(O[H])(OC2([H])[H])C([H])([H])[N+]3([H])C([H])([H])[H])C1(O[H])OC([H])=C([H])[H]

$$$$
7:0:1
     RDKit          3D

 89 96  0  0  1  0  0  0  0  0999 V2000
    0.9601   -5.8780    5.4869 C   0  0  0  0  0  0  0  0  0  0  0  0
    0.7934   -4.5911    5.1514 C   0  0  0  0  0  0  0  0  0  0  0  0
    1.7517   -3.6122    5.0910 O   0  0  0  0  0  0  0  0  0  0  0  0
    3.1076   -3.8359    5.3416 C   0  0  1  0  0  0  0  0  0  0  0  0
    3.3189   -4.3298    6.6543 O   0  0  0  0  0  0  0  0  0  0  0  0
    3.7202   -4.8546    4.3743 C   0  0  1  0  0  0  0  0  0  0  0  0
    3.1940   -4.7450    3.0603 O   0  0  0  0  0  0  0  0  0  0  0  0
    5.1889   -4.4243    4.4815 C   0  0  1  0  0  0  0  0  0  0  0  0
    5.8753   -4.7343    3.3135 O   0  0  0  0  0  0  0  0  0  0  0  0
    6.1031   -6.1169    3.0954 C   0  0  0  0  0  0  0  0  0  0  0  0
    5.2249   -3.0496    4.8164 O   0  0  0  0  0  0  0  0  0  0  0  0
    3.9203   -2.4954    5.0846 C   0  0  1  0  0  0  0  0  0  0  0  0
    3.5054   -1.6790    3.7999 C   0  0  0  0  0  0  0  0  0  0  0  0
    4.1247   -2.1448    2.5995 C   0  0  0  0  0  0  0  0  0  0  0  0
    3.9070   -1.4512    1.4122 C   0  0  0  0  0  0  0  0  0  0  0  0
    3.2438   -0.2480    1.4096 C   0  0  0  0  0  0  0  0  0  0  0  0
    2.7081    0.2948    2.5866 C   0  0  0  0  0  0  0  0  0  0  0  0
    2.7642   -0.4345    3.8145 C   0  0  0  0  0  0  0  0  0  0  0  0
    1.9853    0.2024    5.0971 C   0  0  1  0  0  0  0  0  0  0  0  0
    1.6589   -0.8436    6.2261 C   0  0  0  0  0  0  0  0  0  0  0  0
    2.7314   -1.4903    7.0886 C   0  0  0  0  0  0  0  0  0  0  0  0
    4.0840   -1.6178    6.3741 C   0  0  2  0  0  0  0  0  0  0  0  0
    4.8800   -0.2475    6.2178 C   0  0  2  0  0  0  0  0  0  0  0  0
    5.4551   -0.0827    4.9250 O   0  0  0  0  0  0  0  0  0  0  0  0
    6.0835   -0.0715    7.1653 C   0  0  1  0  0  0  0  0  0  0  0  0
    7.2288   -0.8556    6.8757 O   0  0  0  0  0  0  0  0  0  0  0  0
    6.3184    1.4487    7.0666 C   0  0  0  0  0  0  0  0  0  0  0  0
    5.1034    2.0038    6.5222 O   0  0  0  0  0  0  0  0  0  0  0  0
    4.0828    1.0479    6.6030 C   0  0  2  0  0  0  0  0  0  0  0  0
    3.6708    1.0180    7.9586 O   0  0  0  0  0  0  0  0  0  0  0  0
    2.8290    1.4670    5.6826 C   0  0  2  0  0  0  0  0  0  0  0  0
    2.0100    2.6807    6.3832 C   0  0  2  0  0  0  0  0  0  0  0  0
    2.8733    3.4334    7.2589 O   0  0  0  0  0  0  0  0  0  0  0  0
    2.3440    4.5401    8.0125 C   0  0  0  0  0  0  0  0  0  0  0  0
    0.7982    2.1668    7.2062 C   0  0  0  0  0  0  0  0  0  0  0  0
   -0.3767    2.0749    6.4417 O   0  0  0  0  0  0  0  0  0  0  0  0
   -0.6656    1.0072    5.6244 C   0  0  1  0  0  0  0  0  0  0  0  0
   -1.1544   -0.0800    6.3786 O   0  0  0  0  0  0  0  0  0  0  0  0
   -1.8371    1.5419    4.7788 C   0  0  0  0  0  0  0  0  0  0  0  0
   -1.2583    2.0876    3.5368 N   0  0  1  0  0  0  0  0  0  0  0  0
   -1.7796    3.4235    3.1404 C   0  0  0  0  0  0  0  0  0  0  0  0
    0.2182    1.8267    3.5313 C   0  0  1  0  0  0  0  0  0  0  0  0
    1.1381    3.0974    3.5329 C   0  0  0  0  0  0  0  0  0  0  0  0
    1.3596    3.9369    5.1488 S   0  0  0  0  0  0  0  0  0  0  0  0
    0.0212    4.5340    5.5898 O   0  0  0  0  0  0  0  0  0  0  0  0
    0.4756    0.6576    4.5684 C   0  0  1  0  0  0  0  0  0  0  0  0
   -0.0209   -0.4810    3.8638 O   0  0  0  0  0  0  0  0  0  0  0  0
    1.9179   -6.2793    5.7725 H   0  0  0  0  0  0  0  0  0  0  0  0
    0.1344   -6.5709    5.4828 H   0  0  0  0  0  0  0  0  0  0  0  0
   -0.1514   -4.1556    4.8801 H   0  0  0  0  0  0  0  0  0  0  0  0
    2.8156   -5.1206    6.7540 H   0  0  0  0  0  0  0  0  0  0  0  0
    3.6328   -5.9002    4.6961 H   0  0  0  0  0  0  0  0  0  0  0  0
    3.2937   -3.8498    2.7574 H   0  0  0  0  0  0  0  0  0  0  0  0
    5.6559   -4.9400    5.3187 H   0  0  0  0  0  0  0  0  0  0  0  0
    6.5816   -6.2464    2.1269 H   0  0  0  0  0  0  0  0  0  0  0  0
    5.1868   -6.7078    3.0771 H   0  0  0  0  0  0  0  0  0  0  0  0
    6.7624   -6.5293    3.8569 H   0  0  0  0  0  0  0  0  0  0  0  0
    4.7898   -2.9693    2.4997 H   0  0  0  0  0  0  0  0  0  0  0  0
    4.3202   -1.8459    0.4965 H   0  0  0  0  0  0  0  0  0  0  0  0
    3.1676    0.3015    0.4786 H   0  0  0  0  0  0  0  0  0  0  0  0
    2.2913    1.2391    2.4066 H   0  0  0  0  0  0  0  0  0  0  0  0
    1.0532   -0.4323    7.0100 H   0  0  0  0  0  0  0  0  0  0  0  0
    1.0183   -1.6145    5.8130 H   0  0  0  0  0  0  0  0  0  0  0  0
    2.8198   -1.0591    8.0836 H   0  0  0  0  0  0  0  0  0  0  0  0
    2.3075   -2.4360    7.3964 H   0  0  0  0  0  0  0  0  0  0  0  0
    4.7036   -2.2063    7.0499 H   0  0  0  0  0  0  0  0  0  0  0  0
    4.7628   -0.0837    4.2814 H   0  0  0  0  0  0  0  0  0  0  0  0
    5.7994   -0.3406    8.1792 H   0  0  0  0  0  0  0  0  0  0  0  0
    7.8899   -0.6970    7.5345 H   0  0  0  0  0  0  0  0  0  0  0  0
    6.5437    1.8724    8.0460 H   0  0  0  0  0  0  0  0  0  0  0  0
    7.1471    1.6795    6.3935 H   0  0  0  0  0  0  0  0  0  0  0  0
    4.3833    0.6895    8.4836 H   0  0  0  0  0  0  0  0  0  0  0  0
    3.3117    1.9102    4.8134 H   0  0  0  0  0  0  0  0  0  0  0  0
    3.1422    5.2374    8.2684 H   0  0  0  0  0  0  0  0  0  0  0  0
    1.8880    4.2057    8.9456 H   0  0  0  0  0  0  0  0  0  0  0  0
    1.5958    5.1184    7.4753 H   0  0  0  0  0  0  0  0  0  0  0  0
    1.0096    1.3216    7.8435 H   0  0  0  0  0  0  0  0  0  0  0  0
    0.4646    2.9105    7.9204 H   0  0  0  0  0  0  0  0  0  0  0  0
   -0.4080   -0.5006    6.7803 H   0  0  0  0  0  0  0  0  0  0  0  0
   -2.4918    0.7133    4.4887 H   0  0  0  0  0  0  0  0  0  0  0  0
   -2.4288    2.2736    5.3334 H   0  0  0  0  0  0  0  0  0  0  0  0
   -1.5242    4.1902    3.8681 H   0  0  0  0  0  0  0  0  0  0  0  0
   -2.8671    3.3714    3.0659 H   0  0  0  0  0  0  0  0  0  0  0  0
   -1.3968    3.7047    2.1606 H   0  0  0  0  0  0  0  0  0  0  0  0
    0.2967    1.4273    2.5164 H   0  0  0  0  0  0  0  0  0  0  0  0
    2.1574    2.9659    3.2090 H   0  0  0  0  0  0  0  0  0  0  0  0
    0.7561    3.8550    2.8579 H   0  0  0  0  0  0  0  0  0  0  0  0
    0.5769   -0.6862    3.1603 H   0  0  0  0  0  0  0  0  0  0  0  0
   -1.6066    1.4495    2.8274 H   0  0  0  0  0  0  0  0  0  0  0  0
  1  2  2  0
  1 48  1  0
  1 49  1  0
  2  3  1  0
  2 50  1  0
  4  3  1  6
  4 12  1  0
  4  5  1  0
  4  6  1  0
  5 51  1  0
  6  7  1  0
  6  8  1  0
  6 52  1  1
  7 53  1  0
  8  9  1  0
  8 11  1  0
  8 54  1  1
  9 10  1  0
 10 55  1  0
 10 56  1  0
 10 57  1  0
 12 11  1  6
 12 22  1  0
 12 13  1  0
 13 18  2  0
 13 14  1  0
 14 15  2  0
 14 58  1  0
 15 16  1  0
 15 59  1  0
 16 17  2  0
 16 60  1  0
 17 18  1  0
 17 61  1  0
 19 18  1  6
 19 31  1  0
 19 46  1  0
 19 20  1  0
 20 21  1  0
 20 62  1  0
 20 63  1  0
 21 22  1  0
 21 64  1  0
 21 65  1  0
 22 23  1  0
 22 66  1  1
 23 29  1  0
 23 24  1  6
 23 25  1  0
 24 67  1  0
 25 26  1  0
 25 27  1  0
 25 68  1  1
 26 69  1  0
 27 28  1  0
 27 70  1  0
 27 71  1  0
 28 29  1  0
 29 30  1  1
 29 31  1  0
 30 72  1  0
 31 32  1  0
 31 73  1  6
 32 44  1  0
 32 33  1  1
 32 35  1  0
 33 34  1  0
 34 74  1  0
 34 75  1  0
 34 76  1  0
 35 36  1  0
 35 77  1  0
 35 78  1  0
 36 37  1  0
 37 46  1  0
 37 38  1  1
 37 39  1  0
 38 79  1  0
 39 40  1  0
 39 80  1  0
 39 81  1  0
 40 41  1  0
 40 42  1  0
 40 89  1  6
 41 82  1  0
 41 83  1  0
 41 84  1  0
 42 43  1  0
 42 46  1  0
 42 85  1  6
 44 43  1  6
 43 86  1  0
 43 87  1  0
 44 45  2  0
 46 47  1  6
 47 88  1  0
M  CHG  1  40   1
M  END
>  <i_m_ct_stereo_status>  (8) 
1

>  <s_m_source_file>  (8) 
/var/tmp/pbs.5075288.sched01/tmpye5xf5zc/0p3ozm_yu.sdf

>  <i_m_source_file_index>  (8) 
8

>  <i_lp_mmshare_version>  (8) 
48012

>  <i_f3d_flags>  (8) 
0

>  <s_epik_input>  (8) 
W0NIM11PW0NAQEhdKE8xKVtDQEhdKFtPSF0pW0NAXShbT0hdKShPW0NIXT1bQ0gyXSlbQ0BdMTJjM2MoW2NIXVtjSF1bY0hdW2NIXTMpW0NAXTQ1W0NASF0oW0NAQF02KFtPSF0pW0NAQF0oW09IXSkoW0NAQEhdKFtPSF0pW0NIMl1PNilbQ0BIXTJbQ0gyXVtDSDJdNClbQ0BdNyhPW0NIM10pW0NIMl1PW0NAXTgoW09IXSlbQ0BAXTUoW09IXSlbQ0BASF0oTihbQ0gyXTgpW0NIM10pW0NIMl1bUytdN1tPLV0=

>  <s_epik_cmdline>  (8) 
J2VwaWtfcHl0aG9uJywgJy1waHQnLCAnMi4wJywgJy1waCcsICc3LjAnLCAnLXRuJywgJzgnLCAnLW1hJywgJzIwMCcsICctaW1hZScsICc8aW5maWxlLm1hZT4nLCAnLW9tYWUnLCAnPG91dGZpbGUubWFlPic=

>  <r_epik_Ionization_Penalty>  (8) 
0.0393096

>  <r_epik_Ionization_Penalty_Charging>  (8) 
0.0391527

>  <r_epik_Ionization_Penalty_Neutral>  (8) 
0.000156863

>  <r_epik_State_Penalty>  (8) 
0.0328779

>  <r_epik_Charging_Adjusted_Penalty>  (8) 
0.0720306

>  <i_epik_Tot_Q>  (8) 
1

>  <i_epik_Tot_abs_Q>  (8) 
3

>  <s_epik_Chemistry_Notes>  (8) 
This compound contains an acetal/aminal-like group ( X-CH(R)-Y where X, Y are N, S, or O) that may be acid/base labile, releasing an aldehyde.

>  <s_lp_Force_Field>  (8) 
OPLS3e

>  <r_lp_Energy>  (8) 
172.922

>  <b_lp_Chiralities_Consistent>  (8) 
1

>  <s_lp_Variant>  (8) 
7:0-1

>  <s_i_glide_gridfile>  (8) 
pfpi4k_grid

>  <i_i_glide_lignum>  (8) 
8

>  <i_i_glide_rotatable_bonds>  (8) 
11

>  <r_i_docking_score>  (8) 
-2.10865

>  <r_i_glide_ligand_efficiency>  (8) 
-0.0448648

>  <r_i_glide_ligand_efficiency_sa>  (8) 
-0.161909

>  <r_i_glide_ligand_efficiency_ln>  (8) 
-0.434759

>  <r_i_glide_gscore>  (8) 
-2.10865

>  <r_i_glide_lipo>  (8) 
-0.0589854

>  <r_i_glide_hbond>  (8) 
0

>  <r_i_glide_metal>  (8) 
-0

>  <r_i_glide_rewards>  (8) 
-0.000995331

>  <r_i_glide_evdw>  (8) 
-22.7419

>  <r_i_glide_ecoul>  (8) 
-6.28402

>  <r_i_glide_erotb>  (8) 
0.0911921

>  <r_i_glide_esite>  (8) 
-0.0601597

>  <r_i_glide_emodel>  (8) 
-29.6089

>  <r_i_glide_energy>  (8) 
-29.026

>  <r_i_glide_einternal>  (8) 
7.44721

>  <r_i_glide_intrahb_reward>  (8) 
-0

>  <i_i_glide_confnum>  (8) 
5

>  <i_i_glide_posenum>  (8) 
9

>  <r_i_glide_eff_state_penalty>  (8) 
0

>  <ligand_id>  (8) 
7

>  <original_smiles>  (8) 
C=COC1(O)C(O)C(OC)OC12c1ccccc1C13CCC2C2(O)C(O)COC2(O)C1C1(OC)COC2(O)CN(C)C(C[S+]1[O-])C23O

>  <smiles>  (8) 
[H]OC1([H])C([H])(OC([H])([H])[H])OC2(c3c([H])c([H])c([H])c([H])c3C34C([H])([H])C([H])([H])C2([H])C2(O[H])C([H])(O[H])C([H])([H])OC2(O[H])C3([H])C2(OC([H])([H])[H])S(=O)C([H])([H])C3([H])C4(O[H])C(O[H])(OC2([H])[H])C([H])([H])[N+]3([H])C([H])([H])[H])C1(O[H])OC([H])=C([H])[H]

$$$$
7:0:2
     RDKit          3D

 89 96  0  0  1  0  0  0  0  0999 V2000
    2.6976   -3.0567   -0.3640 C   0  0  0  0  0  0  0  0  0  0  0  0
    2.6038   -4.1408    0.4150 C   0  0  0  0  0  0  0  0  0  0  0  0
    2.8877   -4.2490    1.7566 O   0  0  0  0  0  0  0  0  0  0  0  0
    3.4661   -3.2355    2.5108 C   0  0  1  0  0  0  0  0  0  0  0  0
    4.6780   -2.8456    1.9229 O   0  0  0  0  0  0  0  0  0  0  0  0
    2.5818   -1.9577    2.6053 C   0  0  1  0  0  0  0  0  0  0  0  0
    1.1979   -2.2436    2.8057 O   0  0  0  0  0  0  0  0  0  0  0  0
    3.1803   -1.3943    3.9222 C   0  0  1  0  0  0  0  0  0  0  0  0
    2.2552   -0.5926    4.6040 O   0  0  0  0  0  0  0  0  0  0  0  0
    1.8891    0.5992    3.9257 C   0  0  0  0  0  0  0  0  0  0  0  0
    3.7028   -2.4564    4.6956 O   0  0  0  0  0  0  0  0  0  0  0  0
    3.6499   -3.7375    4.0326 C   0  0  1  0  0  0  0  0  0  0  0  0
    2.4423   -4.5089    4.6530 C   0  0  0  0  0  0  0  0  0  0  0  0
    1.4151   -3.6725    5.1583 C   0  0  0  0  0  0  0  0  0  0  0  0
    0.3477   -4.2400    5.8529 C   0  0  0  0  0  0  0  0  0  0  0  0
    0.3154   -5.5925    6.1565 C   0  0  0  0  0  0  0  0  0  0  0  0
    1.3587   -6.4458    5.7398 C   0  0  0  0  0  0  0  0  0  0  0  0
    2.4265   -5.9492    4.9380 C   0  0  0  0  0  0  0  0  0  0  0  0
    3.4978   -7.0284    4.3449 C   0  0  1  0  0  0  0  0  0  0  0  0
    4.3036   -6.5454    3.0792 C   0  0  0  0  0  0  0  0  0  0  0  0
    5.3486   -5.4210    3.1411 C   0  0  0  0  0  0  0  0  0  0  0  0
    5.0474   -4.4132    4.2738 C   0  0  2  0  0  0  0  0  0  0  0  0
    5.3492   -4.9350    5.7471 C   0  0  2  0  0  0  0  0  0  0  0  0
    4.3433   -4.5524    6.6876 O   0  0  0  0  0  0  0  0  0  0  0  0
    6.6235   -4.3861    6.4065 C   0  0  1  0  0  0  0  0  0  0  0  0
    6.5432   -3.0412    6.8544 O   0  0  0  0  0  0  0  0  0  0  0  0
    6.8175   -5.3913    7.5597 C   0  0  0  0  0  0  0  0  0  0  0  0
    6.0169   -6.5454    7.2329 O   0  0  0  0  0  0  0  0  0  0  0  0
    5.6579   -6.4670    5.8854 C   0  0  2  0  0  0  0  0  0  0  0  0
    6.8184   -6.8360    5.1562 O   0  0  0  0  0  0  0  0  0  0  0  0
    4.4809   -7.5100    5.5425 C   0  0  2  0  0  0  0  0  0  0  0  0
    5.0825   -9.0187    5.4829 C   0  0  2  0  0  0  0  0  0  0  0  0
    6.2857   -9.0905    6.2711 O   0  0  0  0  0  0  0  0  0  0  0  0
    6.9996  -10.3410    6.3996 C   0  0  0  0  0  0  0  0  0  0  0  0
    5.4159   -9.4638    4.0350 C   0  0  0  0  0  0  0  0  0  0  0  0
    4.3233  -10.0761    3.3980 O   0  0  0  0  0  0  0  0  0  0  0  0
    3.3121   -9.3866    2.7868 C   0  0  1  0  0  0  0  0  0  0  0  0
    3.6997   -8.9600    1.4911 O   0  0  0  0  0  0  0  0  0  0  0  0
    2.2420  -10.4622    2.5869 C   0  0  0  0  0  0  0  0  0  0  0  0
    1.3542  -10.4272    3.7484 N   0  0  1  0  0  0  0  0  0  0  0  0
    1.0066  -11.7461    4.3482 C   0  0  0  0  0  0  0  0  0  0  0  0
    1.7243   -9.2699    4.6146 C   0  0  1  0  0  0  0  0  0  0  0  0
    2.1798   -9.6634    6.0681 C   0  0  0  0  0  0  0  0  0  0  0  0
    3.9010  -10.2796    6.2277 S   0  0  0  0  0  0  0  0  0  0  0  0
    4.0098  -11.6260    5.4996 O   0  0  0  0  0  0  0  0  0  0  0  0
    2.6011   -8.2968    3.7422 C   0  0  1  0  0  0  0  0  0  0  0  0
    1.5901   -7.6616    2.9507 O   0  0  0  0  0  0  0  0  0  0  0  0
    3.0105   -2.1099    0.0107 H   0  0  0  0  0  0  0  0  0  0  0  0
    2.4466   -3.1463   -1.4408 H   0  0  0  0  0  0  0  0  0  0  0  0
    2.2606   -5.1177    0.1087 H   0  0  0  0  0  0  0  0  0  0  0  0
    4.5337   -2.6977    1.0367 H   0  0  0  0  0  0  0  0  0  0  0  0
    2.7833   -1.2710    1.7606 H   0  0  0  0  0  0  0  0  0  0  0  0
    0.7066   -1.4767    2.9460 H   0  0  0  0  0  0  0  0  0  0  0  0
    4.0336   -0.7969    3.6752 H   0  0  0  0  0  0  0  0  0  0  0  0
    1.0879    1.0915    4.4701 H   0  0  0  0  0  0  0  0  0  0  0  0
    1.5114    0.4455    2.9115 H   0  0  0  0  0  0  0  0  0  0  0  0
    2.7301    1.2895    3.8622 H   0  0  0  0  0  0  0  0  0  0  0  0
    1.3841   -2.6016    5.0822 H   0  0  0  0  0  0  0  0  0  0  0  0
   -0.4466   -3.6120    6.1859 H   0  0  0  0  0  0  0  0  0  0  0  0
   -0.5118   -5.9895    6.7347 H   0  0  0  0  0  0  0  0  0  0  0  0
    1.1821   -7.4208    6.0846 H   0  0  0  0  0  0  0  0  0  0  0  0
    4.9084   -7.3305    2.6504 H   0  0  0  0  0  0  0  0  0  0  0  0
    3.6094   -6.3118    2.2846 H   0  0  0  0  0  0  0  0  0  0  0  0
    6.3742   -5.7942    3.1983 H   0  0  0  0  0  0  0  0  0  0  0  0
    5.3162   -4.9322    2.1930 H   0  0  0  0  0  0  0  0  0  0  0  0
    5.7813   -3.6163    4.1452 H   0  0  0  0  0  0  0  0  0  0  0  0
    3.5185   -4.9137    6.4059 H   0  0  0  0  0  0  0  0  0  0  0  0
    7.4513   -4.4455    5.7057 H   0  0  0  0  0  0  0  0  0  0  0  0
    5.7690   -2.9640    7.3810 H   0  0  0  0  0  0  0  0  0  0  0  0
    7.8757   -5.6386    7.6605 H   0  0  0  0  0  0  0  0  0  0  0  0
    6.4691   -4.9821    8.5108 H   0  0  0  0  0  0  0  0  0  0  0  0
    6.9745   -7.7481    5.3356 H   0  0  0  0  0  0  0  0  0  0  0  0
    3.8682   -7.4826    6.4416 H   0  0  0  0  0  0  0  0  0  0  0  0
    7.5739  -10.3634    7.3268 H   0  0  0  0  0  0  0  0  0  0  0  0
    7.6924  -10.4734    5.5667 H   0  0  0  0  0  0  0  0  0  0  0  0
    6.3468  -11.2056    6.4323 H   0  0  0  0  0  0  0  0  0  0  0  0
    5.9482   -8.7393    3.4405 H   0  0  0  0  0  0  0  0  0  0  0  0
    6.0908  -10.3109    4.0324 H   0  0  0  0  0  0  0  0  0  0  0  0
    3.9652   -9.7189    0.9866 H   0  0  0  0  0  0  0  0  0  0  0  0
    1.6695  -10.1349    1.7143 H   0  0  0  0  0  0  0  0  0  0  0  0
    2.7119  -11.4545    2.4508 H   0  0  0  0  0  0  0  0  0  0  0  0
    1.8828  -12.2404    4.7763 H   0  0  0  0  0  0  0  0  0  0  0  0
    0.6130  -12.3814    3.5568 H   0  0  0  0  0  0  0  0  0  0  0  0
    0.2291  -11.6352    5.1060 H   0  0  0  0  0  0  0  0  0  0  0  0
    0.7294   -8.8352    4.7345 H   0  0  0  0  0  0  0  0  0  0  0  0
    2.1600   -8.8877    6.8113 H   0  0  0  0  0  0  0  0  0  0  0  0
    1.4786  -10.3905    6.4585 H   0  0  0  0  0  0  0  0  0  0  0  0
    1.2546   -8.2768    2.3241 H   0  0  0  0  0  0  0  0  0  0  0  0
    0.4592  -10.1170    3.3320 H   0  0  0  0  0  0  0  0  0  0  0  0
  1  2  2  0
  1 48  1  0
  1 49  1  0
  2  3  1  0
  2 50  1  0
  4  3  1  6
  4 12  1  0
  4  5  1  0
  4  6  1  0
  5 51  1  0
  6  7  1  0
  6  8  1  0
  6 52  1  6
  7 53  1  0
  8  9  1  0
  8 11  1  0
  8 54  1  6
  9 10  1  0
 10 55  1  0
 10 56  1  0
 10 57  1  0
 12 11  1  1
 12 22  1  0
 12 13  1  0
 13 18  2  0
 13 14  1  0
 14 15  2  0
 14 58  1  0
 15 16  1  0
 15 59  1  0
 16 17  2  0
 16 60  1  0
 17 18  1  0
 17 61  1  0
 19 18  1  1
 19 31  1  0
 19 46  1  0
 19 20  1  0
 20 21  1  0
 20 62  1  0
 20 63  1  0
 21 22  1  0
 21 64  1  0
 21 65  1  0
 22 23  1  0
 22 66  1  6
 23 29  1  0
 23 24  1  1
 23 25  1  0
 24 67  1  0
 25 26  1  0
 25 27  1  0
 25 68  1  6
 26 69  1  0
 27 28  1  0
 27 70  1  0
 27 71  1  0
 28 29  1  0
 29 30  1  6
 29 31  1  0
 30 72  1  0
 31 32  1  0
 31 73  1  1
 32 44  1  0
 32 33  1  1
 32 35  1  0
 33 34  1  0
 34 74  1  0
 34 75  1  0
 34 76  1  0
 35 36  1  0
 35 77  1  0
 35 78  1  0
 36 37  1  0
 37 46  1  0
 37 38  1  6
 37 39  1  0
 38 79  1  0
 39 40  1  0
 39 80  1  0
 39 81  1  0
 40 41  1  0
 40 42  1  0
 40 89  1  6
 41 82  1  0
 41 83  1  0
 41 84  1  0
 42 43  1  0
 42 46  1  0
 42 85  1  1
 44 43  1  6
 43 86  1  0
 43 87  1  0
 44 45  2  0
 46 47  1  6
 47 88  1  0
M  CHG  1  40   1
M  END
>  <i_m_ct_stereo_status>  (9) 
1

>  <s_m_source_file>  (9) 
/var/tmp/pbs.5075288.sched01/tmpye5xf5zc/0p3ozm_yu.sdf

>  <i_m_source_file_index>  (9) 
8

>  <i_lp_mmshare_version>  (9) 
48012

>  <i_f3d_flags>  (9) 
0

>  <s_epik_input>  (9) 
W0NIM11PW0NAQEhdKE8xKVtDQEhdKFtPSF0pW0NAXShbT0hdKShPW0NIXT1bQ0gyXSlbQ0BdMTJjM2MoW2NIXVtjSF1bY0hdW2NIXTMpW0NAXTQ1W0NASF0oW0NAQF02KFtPSF0pW0NAQF0oW09IXSkoW0NAQEhdKFtPSF0pW0NIMl1PNilbQ0BIXTJbQ0gyXVtDSDJdNClbQ0BdNyhPW0NIM10pW0NIMl1PW0NAXTgoW09IXSlbQ0BAXTUoW09IXSlbQ0BASF0oTihbQ0gyXTgpW0NIM10pW0NIMl1bUytdN1tPLV0=

>  <s_epik_cmdline>  (9) 
J2VwaWtfcHl0aG9uJywgJy1waHQnLCAnMi4wJywgJy1waCcsICc3LjAnLCAnLXRuJywgJzgnLCAnLW1hJywgJzIwMCcsICctaW1hZScsICc8aW5maWxlLm1hZT4nLCAnLW9tYWUnLCAnPG91dGZpbGUubWFlPic=

>  <r_epik_Ionization_Penalty>  (9) 
0.0393096

>  <r_epik_Ionization_Penalty_Charging>  (9) 
0.0391527

>  <r_epik_Ionization_Penalty_Neutral>  (9) 
0.000156863

>  <r_epik_State_Penalty>  (9) 
0.0328779

>  <r_epik_Charging_Adjusted_Penalty>  (9) 
0.0720306

>  <i_epik_Tot_Q>  (9) 
1

>  <i_epik_Tot_abs_Q>  (9) 
3

>  <s_epik_Chemistry_Notes>  (9) 
This compound contains an acetal/aminal-like group ( X-CH(R)-Y where X, Y are N, S, or O) that may be acid/base labile, releasing an aldehyde.

>  <s_lp_Force_Field>  (9) 
OPLS3e

>  <r_lp_Energy>  (9) 
172.922

>  <b_lp_Chiralities_Consistent>  (9) 
1

>  <s_lp_Variant>  (9) 
7:0-1

>  <s_i_glide_gridfile>  (9) 
pfpi4k_grid

>  <i_i_glide_lignum>  (9) 
8

>  <i_i_glide_rotatable_bonds>  (9) 
11

>  <r_i_docking_score>  (9) 
-1.93366

>  <r_i_glide_ligand_efficiency>  (9) 
-0.0411417

>  <r_i_glide_ligand_efficiency_sa>  (9) 
-0.148473

>  <r_i_glide_ligand_efficiency_ln>  (9) 
-0.398681

>  <r_i_glide_gscore>  (9) 
-1.93366

>  <r_i_glide_lipo>  (9) 
-0.0941346

>  <r_i_glide_hbond>  (9) 
0

>  <r_i_glide_metal>  (9) 
-0

>  <r_i_glide_rewards>  (9) 
-0.00105851

>  <r_i_glide_evdw>  (9) 
-25.2197

>  <r_i_glide_ecoul>  (9) 
-4.0819

>  <r_i_glide_erotb>  (9) 
0.0911921

>  <r_i_glide_esite>  (9) 
-0.0563903

>  <r_i_glide_emodel>  (9) 
-28.4876

>  <r_i_glide_energy>  (9) 
-29.3016

>  <r_i_glide_einternal>  (9) 
7.79049

>  <r_i_glide_intrahb_reward>  (9) 
-0

>  <i_i_glide_confnum>  (9) 
4

>  <i_i_glide_posenum>  (9) 
13

>  <r_i_glide_eff_state_penalty>  (9) 
0

>  <ligand_id>  (9) 
7

>  <original_smiles>  (9) 
C=COC1(O)C(O)C(OC)OC12c1ccccc1C13CCC2C2(O)C(O)COC2(O)C1C1(OC)COC2(O)CN(C)C(C[S+]1[O-])C23O

>  <smiles>  (9) 
[H]OC1([H])C([H])(OC([H])([H])[H])OC2(c3c([H])c([H])c([H])c([H])c3C34C([H])([H])C([H])([H])C2([H])C2(O[H])C([H])(O[H])C([H])([H])OC2(O[H])C3([H])C2(OC([H])([H])[H])S(=O)C([H])([H])C3([H])C4(O[H])C(O[H])(OC2([H])[H])C([H])([H])[N+]3([H])C([H])([H])[H])C1(O[H])OC([H])=C([H])[H]

$$$$
12:0:0
     RDKit          3D

105115  0  0  1  0  0  0  0  0999 V2000
   -2.1332    4.3828    2.6670 C   0  0  0  0  0  0  0  0  0  0  0  0
   -1.9223    3.5224    3.6807 C   0  0  0  0  0  0  0  0  0  0  0  0
   -3.0547    2.5991    4.0866 C   0  0  0  0  0  0  0  0  0  0  0  0
   -0.6059    3.4925    4.4925 C   0  0  1  0  0  0  0  0  0  0  0  0
   -0.3627    4.8414    4.8372 O   0  0  0  0  0  0  0  0  0  0  0  0
   -0.8265    2.7469    5.6952 O   0  0  0  0  0  0  0  0  0  0  0  0
    0.1571    1.8027    6.1894 C   0  0  2  0  0  0  0  0  0  0  0  0
    1.4951    2.7252    6.0292 C   0  0  1  0  0  0  0  0  0  0  0  0
    2.7709    2.8166    6.9601 C   0  0  0  0  0  0  0  0  0  0  0  0
    3.7936    1.6541    6.7549 C   0  0  2  0  0  0  0  0  0  0  0  0
    4.7751    1.5312    7.9482 C   0  0  0  0  0  0  0  0  0  0  0  0
    4.5406    1.6167    5.5026 O   0  0  0  0  0  0  0  0  0  0  0  0
    3.8802    0.7263    4.6210 C   0  0  1  0  0  0  0  0  0  0  0  0
    4.1999    0.8931    3.2713 O   0  0  0  0  0  0  0  0  0  0  0  0
    4.0368   -0.7766    5.1234 C   0  0  1  0  0  0  0  0  0  0  0  0
    5.3878   -1.1298    4.9180 O   0  0  0  0  0  0  0  0  0  0  0  0
    3.7811   -0.5935    6.4334 O   0  0  0  0  0  0  0  0  0  0  0  0
    2.8835    0.5027    6.4491 C   0  0  1  0  0  0  0  0  0  0  0  0
    2.0233    0.1922    7.7337 C   0  0  0  0  0  0  0  0  0  0  0  0
    2.4883    1.0113    4.9005 C   0  0  2  0  0  0  0  0  0  0  0  0
    1.7975    0.3500    3.9001 O   0  0  0  0  0  0  0  0  0  0  0  0
    1.9600    2.5154    4.6399 C   0  0  2  0  0  0  0  0  0  0  0  0
    2.9852    3.4540    4.2950 O   0  0  0  0  0  0  0  0  0  0  0  0
    0.7139    2.9744    3.7062 C   0  0  1  0  0  0  0  0  0  0  0  0
    0.4363    2.1885    2.5605 O   0  0  0  0  0  0  0  0  0  0  0  0
    2.9937   -1.9947    4.7583 C   0  0  1  0  0  0  0  0  0  0  0  0
    1.6273   -2.0177    5.6359 C   0  0  0  0  0  0  0  0  0  0  0  0
    0.2336   -1.2438    5.3491 C   0  0  1  0  0  0  0  0  0  0  0  0
   -0.2367   -1.9163    4.0428 C   0  0  0  0  0  0  0  0  0  0  0  0
   -0.7916   -1.5027    6.4472 C   0  0  0  0  0  0  0  0  0  0  0  0
   -1.2731   -0.1225    6.4802 O   0  0  0  0  0  0  0  0  0  0  0  0
   -0.2912    0.3294    5.5136 C   0  0  1  0  0  0  0  0  0  0  0  0
   -0.8780    0.6683    4.3213 O   0  0  0  0  0  0  0  0  0  0  0  0
    2.6205   -2.0673    3.3784 O   0  0  0  0  0  0  0  0  0  0  0  0
    3.5202   -2.5175    2.4098 C   0  0  1  0  0  0  0  0  0  0  0  0
    4.6516   -1.7198    2.4003 O   0  0  0  0  0  0  0  0  0  0  0  0
    5.5176   -1.6743    1.2781 C   0  0  2  0  0  0  0  0  0  0  0  0
    4.8267   -1.4324   -0.0840 C   0  0  0  0  0  0  0  0  0  0  0  0
    4.7296   -2.5480   -1.1746 C   0  0  2  0  0  0  0  0  0  0  0  0
    3.9876   -1.9031   -2.3659 C   0  0  1  0  0  0  0  0  0  0  0  0
    4.4203   -2.4695   -3.5793 O   0  0  0  0  0  0  0  0  0  0  0  0
    2.6309   -2.1445   -2.1458 O   0  0  0  0  0  0  0  0  0  0  0  0
    2.4253   -3.2624   -1.2787 C   0  0  0  0  0  0  0  0  0  0  0  0
    3.8264   -3.7884   -1.0211 C   0  0  2  0  0  0  0  0  0  0  0  0
    3.9600   -4.8892    0.0810 C   0  0  1  0  0  0  0  0  0  0  0  0
    4.6294   -6.0048   -0.4763 O   0  0  0  0  0  0  0  0  0  0  0  0
    4.7234   -4.4875    1.3420 C   0  0  1  0  0  0  0  0  0  0  0  0
    5.8928   -5.2136    1.7842 O   0  0  0  0  0  0  0  0  0  0  0  0
    6.1281   -4.0938    0.9308 C   0  0  2  0  0  0  0  0  0  0  0  0
    6.5967   -2.7508    1.3830 C   0  0  0  0  0  0  0  0  0  0  0  0
    3.8782   -4.0133    2.5702 C   0  0  2  0  0  0  0  0  0  0  0  0
    2.5715   -4.8509    2.7097 C   0  0  0  0  0  0  0  0  0  0  0  0
    4.6949   -4.1670    3.8869 C   0  0  0  0  0  0  0  0  0  0  0  0
    3.7511   -3.5957    5.3819 S   0  0  0  0  0  0  0  0  0  0  0  0
    4.7176   -3.3315    6.5175 O   0  0  0  0  0  0  0  0  0  0  0  0
   -3.0825    4.3708    2.1613 H   0  0  0  0  0  0  0  0  0  0  0  0
   -1.3903    5.0962    2.3424 H   0  0  0  0  0  0  0  0  0  0  0  0
   -3.2263    2.6774    5.1571 H   0  0  0  0  0  0  0  0  0  0  0  0
   -2.8366    1.5953    3.8409 H   0  0  0  0  0  0  0  0  0  0  0  0
   -3.9880    2.8919    3.5917 H   0  0  0  0  0  0  0  0  0  0  0  0
    0.2768    5.2035    4.2398 H   0  0  0  0  0  0  0  0  0  0  0  0
   -0.0423    1.7831    7.2582 H   0  0  0  0  0  0  0  0  0  0  0  0
    1.1916    3.7544    6.1963 H   0  0  0  0  0  0  0  0  0  0  0  0
    3.3102    3.7523    6.7780 H   0  0  0  0  0  0  0  0  0  0  0  0
    2.4646    2.9204    8.0011 H   0  0  0  0  0  0  0  0  0  0  0  0
    4.2583    1.4266    8.9049 H   0  0  0  0  0  0  0  0  0  0  0  0
    5.4013    2.4208    8.0183 H   0  0  0  0  0  0  0  0  0  0  0  0
    5.4432    0.6774    7.8360 H   0  0  0  0  0  0  0  0  0  0  0  0
    4.4205    1.7965    3.1167 H   0  0  0  0  0  0  0  0  0  0  0  0
    5.5049   -1.0705    3.9835 H   0  0  0  0  0  0  0  0  0  0  0  0
    1.8305    1.0219    8.4090 H   0  0  0  0  0  0  0  0  0  0  0  0
    2.5601   -0.5289    8.3509 H   0  0  0  0  0  0  0  0  0  0  0  0
    1.0627   -0.2498    7.5655 H   0  0  0  0  0  0  0  0  0  0  0  0
    2.0311    0.7440    3.0710 H   0  0  0  0  0  0  0  0  0  0  0  0
    3.2209    3.3332    3.3852 H   0  0  0  0  0  0  0  0  0  0  0  0
    1.0494    3.8704    3.1803 H   0  0  0  0  0  0  0  0  0  0  0  0
    0.1943    2.7871    1.8559 H   0  0  0  0  0  0  0  0  0  0  0  0
    1.3195   -3.0636    5.5582 H   0  0  0  0  0  0  0  0  0  0  0  0
    1.8763   -2.0295    6.6888 H   0  0  0  0  0  0  0  0  0  0  0  0
   -1.3061   -1.7598    3.9295 H   0  0  0  0  0  0  0  0  0  0  0  0
   -0.0994   -2.9984    4.0049 H   0  0  0  0  0  0  0  0  0  0  0  0
    0.2429   -1.4869    3.1666 H   0  0  0  0  0  0  0  0  0  0  0  0
   -1.5937   -2.1721    6.1375 H   0  0  0  0  0  0  0  0  0  0  0  0
   -0.3749   -1.8555    7.3946 H   0  0  0  0  0  0  0  0  0  0  0  0
   -0.2062    1.0365    3.7557 H   0  0  0  0  0  0  0  0  0  0  0  0
    2.9733   -2.3674    1.4854 H   0  0  0  0  0  0  0  0  0  0  0  0
    6.0553   -0.7552    1.4973 H   0  0  0  0  0  0  0  0  0  0  0  0
    3.8603   -0.9461    0.0755 H   0  0  0  0  0  0  0  0  0  0  0  0
    5.4399   -0.6551   -0.5402 H   0  0  0  0  0  0  0  0  0  0  0  0
    5.7355   -2.8258   -1.4951 H   0  0  0  0  0  0  0  0  0  0  0  0
    4.1523   -0.8276   -2.4365 H   0  0  0  0  0  0  0  0  0  0  0  0
    4.2391   -3.3944   -3.5247 H   0  0  0  0  0  0  0  0  0  0  0  0
    1.9339   -2.9610   -0.3523 H   0  0  0  0  0  0  0  0  0  0  0  0
    1.7881   -3.9987   -1.7712 H   0  0  0  0  0  0  0  0  0  0  0  0
    4.0580   -4.3161   -1.9394 H   0  0  0  0  0  0  0  0  0  0  0  0
    2.9900   -5.3235    0.3038 H   0  0  0  0  0  0  0  0  0  0  0  0
    4.1747   -6.2407   -1.2795 H   0  0  0  0  0  0  0  0  0  0  0  0
    6.5363   -4.3965   -0.0326 H   0  0  0  0  0  0  0  0  0  0  0  0
    7.4870   -2.4707    0.8145 H   0  0  0  0  0  0  0  0  0  0  0  0
    6.8506   -2.8265    2.4224 H   0  0  0  0  0  0  0  0  0  0  0  0
    2.7967   -5.9169    2.7148 H   0  0  0  0  0  0  0  0  0  0  0  0
    1.8580   -4.6536    1.9142 H   0  0  0  0  0  0  0  0  0  0  0  0
    2.0251   -4.6440    3.6219 H   0  0  0  0  0  0  0  0  0  0  0  0
    4.9706   -5.2042    4.0714 H   0  0  0  0  0  0  0  0  0  0  0  0
    5.6215   -3.6124    3.8772 H   0  0  0  0  0  0  0  0  0  0  0  0
  1  2  2  0
  1 56  1  0
  1 57  1  0
  2  3  1  0
  2  4  1  0
  3 58  1  0
  3 59  1  0
  3 60  1  0
  4 24  1  0
  4  5  1  1
  4  6  1  0
  5 61  1  0
  6  7  1  0
  7 32  1  0
  7  8  1  0
  7 62  1  1
  8 22  1  0
  8  9  1  0
  8 63  1  6
  9 10  1  0
  9 64  1  0
  9 65  1  0
 10 18  1  0
 10 11  1  1
 10 12  1  0
 11 66  1  0
 11 67  1  0
 11 68  1  0
 12 13  1  0
 13 20  1  0
 13 14  1  6
 13 15  1  0
 14 69  1  0
 15 16  1  1
 15 17  1  0
 15 26  1  0
 16 70  1  0
 17 18  1  0
 18 19  1  1
 18 20  1  0
 19 71  1  0
 19 72  1  0
 19 73  1  0
 20 21  1  6
 20 22  1  0
 21 74  1  0
 22 23  1  6
 22 24  1  0
 23 75  1  0
 24 25  1  0
 24 76  1  6
 25 77  1  0
 26 54  1  0
 26 27  1  0
 26 34  1  6
 27 28  1  0
 27 78  1  0
 27 79  1  0
 28 32  1  0
 28 29  1  6
 28 30  1  0
 29 80  1  0
 29 81  1  0
 29 82  1  0
 30 31  1  0
 30 83  1  0
 30 84  1  0
 31 32  1  0
 32 33  1  6
 33 85  1  0
 34 35  1  0
 35 51  1  0
 35 36  1  0
 35 86  1  6
 36 37  1  0
 37 50  1  0
 37 38  1  0
 37 87  1  1
 38 39  1  0
 38 88  1  0
 38 89  1  0
 39 44  1  0
 39 40  1  0
 39 90  1  6
 40 41  1  0
 40 42  1  0
 40 91  1  6
 41 92  1  0
 42 43  1  0
 43 44  1  0
 43 93  1  0
 43 94  1  0
 44 45  1  0
 44 95  1  6
 45 46  1  0
 45 47  1  0
 45 96  1  1
 46 97  1  0
 47 49  1  0
 47 48  1  1
 47 51  1  0
 48 49  1  0
 49 50  1  0
 49 98  1  6
 50 99  1  0
 50100  1  0
 51 52  1  1
 51 53  1  0
 52101  1  0
 52102  1  0
 52103  1  0
 54 53  1  6
 53104  1  0
 53105  1  0
 54 55  2  0
M  END
>  <i_m_ct_stereo_status>  (10) 
1

>  <s_m_source_file>  (10) 
/var/tmp/pbs.5075288.sched01/tmpye5xf5zc/0p3ozm_yu.sdf

>  <i_m_source_file_index>  (10) 
23

>  <i_lp_mmshare_version>  (10) 
48012

>  <i_f3d_flags>  (10) 
0

>  <s_epik_input>  (10) 
W09IXVtDQF0xMltDQEBIXShbT0hdKVtDQEBdKFtPSF0pKEMoPVtDSDJdKVtDSDNdKU9bQ0BASF0oW0NAQF0zKFtPSF0pW0NAXShbQ0gyXTQpKFtDSDNdKVtDSDJdTzMpW0NASF0xW0NIMl1bQ0BAXShPNSkoW0NIM10pW0NAQF0oTzYpKFtDSDNdKVtDQF0yKFtPSF0pW0NAXTUoW09IXSlbQ0BdNihbT0hdKVtDQF00N09bQ0BASF04W0NAXShbQ0gzXSkoW0NIMl1bUytdN1tPLV0pW0NAQF0xOVtDQEhdKE8xKVtDSDJdW0NASF0oTzgpW0NIMl1bQ0BIXTFbQ0BASF0oW0NASF05W09IXSlbQ0gyXU9bQ0BASF0xW09IXQ==

>  <s_epik_cmdline>  (10) 
J2VwaWtfcHl0aG9uJywgJy1waHQnLCAnMi4wJywgJy1waCcsICc3LjAnLCAnLXRuJywgJzgnLCAnLW1hJywgJzIwMCcsICctaW1hZScsICc8aW5maWxlLm1hZT4nLCAnLW9tYWUnLCAnPG91dGZpbGUubWFlPic=

>  <r_lp_tautomer_probability>  (10) 
1

>  <r_epik_Ionization_Penalty>  (10) 
0.000210842

>  <r_epik_Ionization_Penalty_Charging>  (10) 
0

>  <r_epik_Ionization_Penalty_Neutral>  (10) 
0.000210842

>  <r_epik_State_Penalty>  (10) 
-0

>  <r_epik_Charging_Adjusted_Penalty>  (10) 
0

>  <i_epik_Tot_Q>  (10) 
0

>  <i_epik_Tot_abs_Q>  (10) 
2

>  <s_epik_Chemistry_Notes>  (10) 
This compound contains an acetal/aminal-like group ( X-CH(R)-Y where X, Y are N, S, or O) that may be acid/base labile, releasing an aldehyde.

>  <s_lp_Force_Field>  (10) 
OPLS3e

>  <r_lp_Energy>  (10) 
316.781

>  <b_lp_Chiralities_Consistent>  (10) 
1

>  <s_lp_Variant>  (10) 
12:0-1

>  <s_i_glide_gridfile>  (10) 
pfpi4k_grid

>  <i_i_glide_lignum>  (10) 
23

>  <i_i_glide_rotatable_bonds>  (10) 
10

>  <r_i_docking_score>  (10) 
-5.04591

>  <r_i_glide_ligand_efficiency>  (10) 
-0.0917438

>  <r_i_glide_ligand_efficiency_sa>  (10) 
-0.348897

>  <r_i_glide_ligand_efficiency_ln>  (10) 
-1.0077

>  <r_i_glide_gscore>  (10) 
-5.04591

>  <r_i_glide_lipo>  (10) 
-0.328885

>  <r_i_glide_hbond>  (10) 
-0.121896

>  <r_i_glide_metal>  (10) 
-0

>  <r_i_glide_rewards>  (10) 
-1.00322

>  <r_i_glide_evdw>  (10) 
-20.3769

>  <r_i_glide_ecoul>  (10) 
-17.2367

>  <r_i_glide_erotb>  (10) 
0.033801

>  <r_i_glide_esite>  (10) 
-0.0670171

>  <r_i_glide_emodel>  (10) 
-52.3947

>  <r_i_glide_energy>  (10) 
-37.6136

>  <r_i_glide_einternal>  (10) 
7.30523

>  <r_i_glide_intrahb_reward>  (10) 
-1

>  <i_i_glide_confnum>  (10) 
1

>  <i_i_glide_posenum>  (10) 
7

>  <r_i_glide_eff_state_penalty>  (10) 
0

>  <ligand_id>  (10) 
12

>  <original_smiles>  (10) 
C=C(C)C1(O)OC2C3CC4(C)OC5(O)C(O)(OC4(C)C5(O)C3(O)C1O)C1(CC3(C)COC23O)OC2OC3CC4C(O)OCC4C(O)C4(OC4C3)C2(C)C[S+]1[O-]

>  <smiles>  (10) 
[H]OC1([H])OC([H])([H])C2([H])C([H])(O[H])C34OC3([H])C([H])([H])C([H])(OC3([H])OC5(S(=O)C([H])([H])C34C([H])([H])[H])C([H])([H])C3(C([H])([H])[H])C([H])([H])OC3(O[H])C3([H])OC(O[H])(C(=C([H])[H])C([H])([H])[H])C([H])(O[H])C4(O[H])C3([H])C([H])([H])C3(C([H])([H])[H])OC6(O[H])C5(O[H])OC3(C([H])([H])[H])C64O[H])C([H])([H])C12[H]

$$$$
12:0:1
     RDKit          3D

105115  0  0  1  0  0  0  0  0999 V2000
   -2.3302    3.1163    2.7317 C   0  0  0  0  0  0  0  0  0  0  0  0
   -2.0912    3.2188    4.0587 C   0  0  0  0  0  0  0  0  0  0  0  0
   -3.2328    3.2724    5.0421 C   0  0  0  0  0  0  0  0  0  0  0  0
   -0.7070    3.3182    4.7136 C   0  0  1  0  0  0  0  0  0  0  0  0
   -0.5686    4.7122    4.9230 O   0  0  0  0  0  0  0  0  0  0  0  0
   -0.7807    2.6757    5.9893 O   0  0  0  0  0  0  0  0  0  0  0  0
    0.2688    1.8391    6.4712 C   0  0  2  0  0  0  0  0  0  0  0  0
    1.5447    2.7995    6.1175 C   0  0  1  0  0  0  0  0  0  0  0  0
    2.8919    3.0154    6.9093 C   0  0  0  0  0  0  0  0  0  0  0  0
    3.9551    1.9008    6.6931 C   0  0  2  0  0  0  0  0  0  0  0  0
    5.0473    1.9333    7.7818 C   0  0  0  0  0  0  0  0  0  0  0  0
    4.5808    1.7883    5.3938 O   0  0  0  0  0  0  0  0  0  0  0  0
    3.9056    0.7986    4.6423 C   0  0  1  0  0  0  0  0  0  0  0  0
    4.1410    0.8599    3.2688 O   0  0  0  0  0  0  0  0  0  0  0  0
    4.1596   -0.6476    5.2541 C   0  0  1  0  0  0  0  0  0  0  0  0
    5.4793   -0.9667    4.9490 O   0  0  0  0  0  0  0  0  0  0  0  0
    4.0252   -0.3699    6.5556 O   0  0  0  0  0  0  0  0  0  0  0  0
    3.0877    0.6827    6.5734 C   0  0  1  0  0  0  0  0  0  0  0  0
    2.3702    0.4480    7.9574 C   0  0  0  0  0  0  0  0  0  0  0  0
    2.5302    1.0388    5.0391 C   0  0  2  0  0  0  0  0  0  0  0  0
    1.7979    0.2271    4.1935 O   0  0  0  0  0  0  0  0  0  0  0  0
    1.9054    2.5019    4.7163 C   0  0  2  0  0  0  0  0  0  0  0  0
    2.8380    3.4548    4.2205 O   0  0  0  0  0  0  0  0  0  0  0  0
    0.5743    2.8178    3.8634 C   0  0  1  0  0  0  0  0  0  0  0  0
    0.2934    1.8638    2.8605 O   0  0  0  0  0  0  0  0  0  0  0  0
    3.1784   -1.9516    5.0790 C   0  0  1  0  0  0  0  0  0  0  0  0
    1.8837   -1.9519    6.0688 C   0  0  0  0  0  0  0  0  0  0  0  0
    0.4323   -1.2525    5.8583 C   0  0  1  0  0  0  0  0  0  0  0  0
   -0.1412   -2.0597    4.6497 C   0  0  0  0  0  0  0  0  0  0  0  0
   -0.4513   -1.4613    7.0771 C   0  0  0  0  0  0  0  0  0  0  0  0
   -0.9804   -0.1323    7.0928 O   0  0  0  0  0  0  0  0  0  0  0  0
   -0.1799    0.2842    5.9760 C   0  0  1  0  0  0  0  0  0  0  0  0
   -1.0269    0.4669    4.8537 O   0  0  0  0  0  0  0  0  0  0  0  0
    2.6927   -2.1655    3.7522 O   0  0  0  0  0  0  0  0  0  0  0  0
    3.5277   -2.6430    2.7571 C   0  0  1  0  0  0  0  0  0  0  0  0
    4.6105   -1.7988    2.5754 O   0  0  0  0  0  0  0  0  0  0  0  0
    5.3492   -1.7958    1.3640 C   0  0  2  0  0  0  0  0  0  0  0  0
    4.5209   -1.6899    0.0594 C   0  0  0  0  0  0  0  0  0  0  0  0
    4.4136   -2.8938   -0.9155 C   0  0  2  0  0  0  0  0  0  0  0  0
    3.5205   -2.4259   -2.0946 C   0  0  1  0  0  0  0  0  0  0  0  0
    3.9422   -3.0751   -3.2734 O   0  0  0  0  0  0  0  0  0  0  0  0
    2.2165   -2.7677   -1.7906 O   0  0  0  0  0  0  0  0  0  0  0  0
    2.1874   -3.7444   -0.7653 C   0  0  0  0  0  0  0  0  0  0  0  0
    3.6429   -4.1815   -0.5970 C   0  0  2  0  0  0  0  0  0  0  0  0
    3.8963   -5.1891    0.5865 C   0  0  1  0  0  0  0  0  0  0  0  0
    4.5476   -6.3219    0.0510 O   0  0  0  0  0  0  0  0  0  0  0  0
    4.7387   -4.6558    1.7461 C   0  0  1  0  0  0  0  0  0  0  0  0
    5.9927   -5.2627    2.1254 O   0  0  0  0  0  0  0  0  0  0  0  0
    6.0625   -4.2150    1.1622 C   0  0  2  0  0  0  0  0  0  0  0  0
    6.4947   -2.8081    1.4352 C   0  0  0  0  0  0  0  0  0  0  0  0
    3.9805   -4.1101    3.0031 C   0  0  2  0  0  0  0  0  0  0  0  0
    2.7450   -4.9851    3.3368 C   0  0  0  0  0  0  0  0  0  0  0  0
    4.9267   -4.0988    4.2467 C   0  0  0  0  0  0  0  0  0  0  0  0
    4.0718   -3.4481    5.7489 S   0  0  0  0  0  0  0  0  0  0  0  0
    5.1577   -3.0305    6.7759 O   0  0  0  0  0  0  0  0  0  0  0  0
   -3.3355    3.0119    2.3393 H   0  0  0  0  0  0  0  0  0  0  0  0
   -1.5000    3.1619    2.0506 H   0  0  0  0  0  0  0  0  0  0  0  0
   -3.2136    4.1499    5.6530 H   0  0  0  0  0  0  0  0  0  0  0  0
   -3.1720    2.4804    5.7720 H   0  0  0  0  0  0  0  0  0  0  0  0
   -4.1698    3.1821    4.4949 H   0  0  0  0  0  0  0  0  0  0  0  0
    0.3445    4.9029    5.1037 H   0  0  0  0  0  0  0  0  0  0  0  0
    0.1674    1.8830    7.5423 H   0  0  0  0  0  0  0  0  0  0  0  0
    1.1854    3.8083    6.2336 H   0  0  0  0  0  0  0  0  0  0  0  0
    3.3484    3.9523    6.5858 H   0  0  0  0  0  0  0  0  0  0  0  0
    2.6738    3.1945    7.9577 H   0  0  0  0  0  0  0  0  0  0  0  0
    4.6301    1.8858    8.7846 H   0  0  0  0  0  0  0  0  0  0  0  0
    5.6213    2.8590    7.7093 H   0  0  0  0  0  0  0  0  0  0  0  0
    5.7533    1.1064    7.6701 H   0  0  0  0  0  0  0  0  0  0  0  0
    4.3131    1.7647    3.0288 H   0  0  0  0  0  0  0  0  0  0  0  0
    5.4657   -1.1476    4.0157 H   0  0  0  0  0  0  0  0  0  0  0  0
    2.1906    1.3153    8.5798 H   0  0  0  0  0  0  0  0  0  0  0  0
    3.0025   -0.1882    8.5787 H   0  0  0  0  0  0  0  0  0  0  0  0
    1.4275   -0.0546    7.9180 H   0  0  0  0  0  0  0  0  0  0  0  0
    1.7759    0.6302    3.3393 H   0  0  0  0  0  0  0  0  0  0  0  0
    3.0409    3.2368    3.3219 H   0  0  0  0  0  0  0  0  0  0  0  0
    0.8090    3.6837    3.2326 H   0  0  0  0  0  0  0  0  0  0  0  0
    0.0111    2.3316    2.0814 H   0  0  0  0  0  0  0  0  0  0  0  0
    1.6364   -3.0092    6.1194 H   0  0  0  0  0  0  0  0  0  0  0  0
    2.2297   -1.8487    7.0899 H   0  0  0  0  0  0  0  0  0  0  0  0
   -1.2260   -1.9924    4.5944 H   0  0  0  0  0  0  0  0  0  0  0  0
    0.0722   -3.1324    4.6994 H   0  0  0  0  0  0  0  0  0  0  0  0
    0.2320   -1.7099    3.6816 H   0  0  0  0  0  0  0  0  0  0  0  0
   -1.2296   -2.1830    6.8647 H   0  0  0  0  0  0  0  0  0  0  0  0
    0.1220   -1.7694    7.9735 H   0  0  0  0  0  0  0  0  0  0  0  0
   -0.5147    0.8893    4.1563 H   0  0  0  0  0  0  0  0  0  0  0  0
    2.9013   -2.5978    1.8820 H   0  0  0  0  0  0  0  0  0  0  0  0
    5.8577   -0.8272    1.4497 H   0  0  0  0  0  0  0  0  0  0  0  0
    3.5358   -1.2667    0.2740 H   0  0  0  0  0  0  0  0  0  0  0  0
    5.0401   -0.9234   -0.5155 H   0  0  0  0  0  0  0  0  0  0  0  0
    5.4213   -3.1501   -1.2798 H   0  0  0  0  0  0  0  0  0  0  0  0
    3.6107   -1.3607   -2.2737 H   0  0  0  0  0  0  0  0  0  0  0  0
    3.6979   -3.9925   -3.1852 H   0  0  0  0  0  0  0  0  0  0  0  0
    1.8471   -3.3244    0.1816 H   0  0  0  0  0  0  0  0  0  0  0  0
    1.5561   -4.5817   -1.0582 H   0  0  0  0  0  0  0  0  0  0  0  0
    3.9522   -4.7268   -1.4722 H   0  0  0  0  0  0  0  0  0  0  0  0
    2.9660   -5.6224    0.9422 H   0  0  0  0  0  0  0  0  0  0  0  0
    4.1008   -6.5626   -0.7522 H   0  0  0  0  0  0  0  0  0  0  0  0
    6.3837   -4.5923    0.1841 H   0  0  0  0  0  0  0  0  0  0  0  0
    7.2989   -2.5400    0.7518 H   0  0  0  0  0  0  0  0  0  0  0  0
    6.8431   -2.7564    2.4424 H   0  0  0  0  0  0  0  0  0  0  0  0
    3.0292   -6.0339    3.4037 H   0  0  0  0  0  0  0  0  0  0  0  0
    1.9443   -4.8915    2.6011 H   0  0  0  0  0  0  0  0  0  0  0  0
    2.2699   -4.7281    4.2818 H   0  0  0  0  0  0  0  0  0  0  0  0
    5.2827   -5.0994    4.4700 H   0  0  0  0  0  0  0  0  0  0  0  0
    5.8136   -3.5034    4.0837 H   0  0  0  0  0  0  0  0  0  0  0  0
  1  2  2  0
  1 56  1  0
  1 57  1  0
  2  3  1  0
  2  4  1  0
  3 58  1  0
  3 59  1  0
  3 60  1  0
  4 24  1  0
  4  5  1  1
  4  6  1  0
  5 61  1  0
  6  7  1  0
  7 32  1  0
  7  8  1  0
  7 62  1  1
  8 22  1  0
  8  9  1  0
  8 63  1  6
  9 10  1  0
  9 64  1  0
  9 65  1  0
 10 18  1  0
 10 11  1  1
 10 12  1  0
 11 66  1  0
 11 67  1  0
 11 68  1  0
 12 13  1  0
 13 20  1  0
 13 14  1  6
 13 15  1  0
 14 69  1  0
 15 16  1  1
 15 17  1  0
 15 26  1  0
 16 70  1  0
 17 18  1  0
 18 19  1  1
 18 20  1  0
 19 71  1  0
 19 72  1  0
 19 73  1  0
 20 21  1  6
 20 22  1  0
 21 74  1  0
 22 23  1  6
 22 24  1  0
 23 75  1  0
 24 25  1  0
 24 76  1  6
 25 77  1  0
 26 54  1  0
 26 27  1  0
 26 34  1  6
 27 28  1  0
 27 78  1  0
 27 79  1  0
 28 32  1  0
 28 29  1  6
 28 30  1  0
 29 80  1  0
 29 81  1  0
 29 82  1  0
 30 31  1  0
 30 83  1  0
 30 84  1  0
 31 32  1  0
 32 33  1  6
 33 85  1  0
 34 35  1  0
 35 51  1  0
 35 36  1  0
 35 86  1  6
 36 37  1  0
 37 50  1  0
 37 38  1  0
 37 87  1  1
 38 39  1  0
 38 88  1  0
 38 89  1  0
 39 44  1  0
 39 40  1  0
 39 90  1  6
 40 41  1  0
 40 42  1  0
 40 91  1  6
 41 92  1  0
 42 43  1  0
 43 44  1  0
 43 93  1  0
 43 94  1  0
 44 45  1  0
 44 95  1  6
 45 46  1  0
 45 47  1  0
 45 96  1  1
 46 97  1  0
 47 49  1  0
 47 48  1  1
 47 51  1  0
 48 49  1  0
 49 50  1  0
 49 98  1  6
 50 99  1  0
 50100  1  0
 51 52  1  1
 51 53  1  0
 52101  1  0
 52102  1  0
 52103  1  0
 54 53  1  6
 53104  1  0
 53105  1  0
 54 55  2  0
M  END
>  <i_m_ct_stereo_status>  (11) 
1

>  <s_m_source_file>  (11) 
/var/tmp/pbs.5075288.sched01/tmpye5xf5zc/0p3ozm_yu.sdf

>  <i_m_source_file_index>  (11) 
23

>  <i_lp_mmshare_version>  (11) 
48012

>  <i_f3d_flags>  (11) 
0

>  <s_epik_input>  (11) 
W09IXVtDQF0xMltDQEBIXShbT0hdKVtDQEBdKFtPSF0pKEMoPVtDSDJdKVtDSDNdKU9bQ0BASF0oW0NAQF0zKFtPSF0pW0NAXShbQ0gyXTQpKFtDSDNdKVtDSDJdTzMpW0NASF0xW0NIMl1bQ0BAXShPNSkoW0NIM10pW0NAQF0oTzYpKFtDSDNdKVtDQF0yKFtPSF0pW0NAXTUoW09IXSlbQ0BdNihbT0hdKVtDQF00N09bQ0BASF04W0NAXShbQ0gzXSkoW0NIMl1bUytdN1tPLV0pW0NAQF0xOVtDQEhdKE8xKVtDSDJdW0NASF0oTzgpW0NIMl1bQ0BIXTFbQ0BASF0oW0NASF05W09IXSlbQ0gyXU9bQ0BASF0xW09IXQ==

>  <s_epik_cmdline>  (11) 
J2VwaWtfcHl0aG9uJywgJy1waHQnLCAnMi4wJywgJy1waCcsICc3LjAnLCAnLXRuJywgJzgnLCAnLW1hJywgJzIwMCcsICctaW1hZScsICc8aW5maWxlLm1hZT4nLCAnLW9tYWUnLCAnPG91dGZpbGUubWFlPic=

>  <r_lp_tautomer_probability>  (11) 
1

>  <r_epik_Ionization_Penalty>  (11) 
0.000210842

>  <r_epik_Ionization_Penalty_Charging>  (11) 
0

>  <r_epik_Ionization_Penalty_Neutral>  (11) 
0.000210842

>  <r_epik_State_Penalty>  (11) 
-0

>  <r_epik_Charging_Adjusted_Penalty>  (11) 
0

>  <i_epik_Tot_Q>  (11) 
0

>  <i_epik_Tot_abs_Q>  (11) 
2

>  <s_epik_Chemistry_Notes>  (11) 
This compound contains an acetal/aminal-like group ( X-CH(R)-Y where X, Y are N, S, or O) that may be acid/base labile, releasing an aldehyde.

>  <s_lp_Force_Field>  (11) 
OPLS3e

>  <r_lp_Energy>  (11) 
316.781

>  <b_lp_Chiralities_Consistent>  (11) 
1

>  <s_lp_Variant>  (11) 
12:0-1

>  <s_i_glide_gridfile>  (11) 
pfpi4k_grid

>  <i_i_glide_lignum>  (11) 
23

>  <i_i_glide_rotatable_bonds>  (11) 
10

>  <r_i_docking_score>  (11) 
-4.46321

>  <r_i_glide_ligand_efficiency>  (11) 
-0.0811492

>  <r_i_glide_ligand_efficiency_sa>  (11) 
-0.308606

>  <r_i_glide_ligand_efficiency_ln>  (11) 
-0.891334

>  <r_i_glide_gscore>  (11) 
-4.46321

>  <r_i_glide_lipo>  (11) 
-0.295341

>  <r_i_glide_hbond>  (11) 
-0.0927327

>  <r_i_glide_metal>  (11) 
-0

>  <r_i_glide_rewards>  (11) 
-1.0027

>  <r_i_glide_evdw>  (11) 
-17.4429

>  <r_i_glide_ecoul>  (11) 
-14.3821

>  <r_i_glide_erotb>  (11) 
0.033801

>  <r_i_glide_esite>  (11) 
-0.0767729

>  <r_i_glide_emodel>  (11) 
-47.2893

>  <r_i_glide_energy>  (11) 
-31.825

>  <r_i_glide_einternal>  (11) 
7.29953

>  <r_i_glide_intrahb_reward>  (11) 
-1

>  <i_i_glide_confnum>  (11) 
2

>  <i_i_glide_posenum>  (11) 
16

>  <r_i_glide_eff_state_penalty>  (11) 
0

>  <ligand_id>  (11) 
12

>  <original_smiles>  (11) 
C=C(C)C1(O)OC2C3CC4(C)OC5(O)C(O)(OC4(C)C5(O)C3(O)C1O)C1(CC3(C)COC23O)OC2OC3CC4C(O)OCC4C(O)C4(OC4C3)C2(C)C[S+]1[O-]

>  <smiles>  (11) 
[H]OC1([H])OC([H])([H])C2([H])C([H])(O[H])C34OC3([H])C([H])([H])C([H])(OC3([H])OC5(S(=O)C([H])([H])C34C([H])([H])[H])C([H])([H])C3(C([H])([H])[H])C([H])([H])OC3(O[H])C3([H])OC(O[H])(C(=C([H])[H])C([H])([H])[H])C([H])(O[H])C4(O[H])C3([H])C([H])([H])C3(C([H])([H])[H])OC6(O[H])C5(O[H])OC3(C([H])([H])[H])C64O[H])C([H])([H])C12[H]

$$$$
12:0:2
     RDKit          3D

105115  0  0  1  0  0  0  0  0999 V2000
   -0.5943   -6.1592    6.0705 C   0  0  0  0  0  0  0  0  0  0  0  0
    0.4073   -6.3036    6.9564 C   0  0  0  0  0  0  0  0  0  0  0  0
    1.4815   -7.3513    6.7047 C   0  0  0  0  0  0  0  0  0  0  0  0
    0.5550   -5.4824    8.2577 C   0  0  1  0  0  0  0  0  0  0  0  0
   -0.1487   -6.2528    9.2130 O   0  0  0  0  0  0  0  0  0  0  0  0
    1.9412   -5.4800    8.6186 O   0  0  0  0  0  0  0  0  0  0  0  0
    2.5896   -4.2955    9.1131 C   0  0  2  0  0  0  0  0  0  0  0  0
    1.4446   -3.7961   10.1685 C   0  0  1  0  0  0  0  0  0  0  0  0
    1.6240   -3.1015   11.5771 C   0  0  0  0  0  0  0  0  0  0  0  0
    1.9087   -1.5761   11.4978 C   0  0  2  0  0  0  0  0  0  0  0  0
    2.4812   -1.0238   12.8227 C   0  0  0  0  0  0  0  0  0  0  0  0
    0.8264   -0.7120   11.0903 O   0  0  0  0  0  0  0  0  0  0  0  0
    0.9706   -0.4145    9.7057 C   0  0  1  0  0  0  0  0  0  0  0  0
   -0.2103    0.0879    9.1321 O   0  0  0  0  0  0  0  0  0  0  0  0
    2.2617    0.4936    9.4390 C   0  0  1  0  0  0  0  0  0  0  0  0
    1.9625    1.7871    9.9235 O   0  0  0  0  0  0  0  0  0  0  0  0
    3.1228   -0.1225   10.2659 O   0  0  0  0  0  0  0  0  0  0  0  0
    2.7184   -1.4761   10.2367 C   0  0  1  0  0  0  0  0  0  0  0  0
    4.0800   -2.2307   10.5048 C   0  0  0  0  0  0  0  0  0  0  0  0
    1.4361   -1.7190    9.1833 C   0  0  2  0  0  0  0  0  0  0  0  0
    1.4155   -1.5811    7.7921 O   0  0  0  0  0  0  0  0  0  0  0  0
    0.4667   -2.9960    9.3949 C   0  0  2  0  0  0  0  0  0  0  0  0
   -0.6901   -2.7493   10.1928 O   0  0  0  0  0  0  0  0  0  0  0  0
   -0.0874   -3.9917    8.2545 C   0  0  1  0  0  0  0  0  0  0  0  0
   -0.2655   -3.4197    6.9685 O   0  0  0  0  0  0  0  0  0  0  0  0
    3.1553    0.5227    8.0447 C   0  0  1  0  0  0  0  0  0  0  0  0
    4.2026   -0.7205    7.8457 C   0  0  0  0  0  0  0  0  0  0  0  0
    3.9555   -2.1895    7.2006 C   0  0  1  0  0  0  0  0  0  0  0  0
    3.6363   -1.8593    5.7078 C   0  0  0  0  0  0  0  0  0  0  0  0
    5.2191   -3.0554    7.2651 C   0  0  0  0  0  0  0  0  0  0  0  0
    4.5305   -4.2498    7.6884 O   0  0  0  0  0  0  0  0  0  0  0  0
    3.2461   -3.5924    7.7279 C   0  0  1  0  0  0  0  0  0  0  0  0
    2.4396   -4.0374    6.6628 O   0  0  0  0  0  0  0  0  0  0  0  0
    2.4038    0.6009    6.8243 O   0  0  0  0  0  0  0  0  0  0  0  0
    1.7354    1.7745    6.4792 C   0  0  1  0  0  0  0  0  0  0  0  0
    0.8378    2.1284    7.4730 O   0  0  0  0  0  0  0  0  0  0  0  0
   -0.2093    3.0452    7.2300 C   0  0  2  0  0  0  0  0  0  0  0  0
   -1.0781    2.6933    5.9902 C   0  0  0  0  0  0  0  0  0  0  0  0
   -1.0646    3.5368    4.6730 C   0  0  2  0  0  0  0  0  0  0  0  0
   -2.0677    2.8346    3.7379 C   0  0  1  0  0  0  0  0  0  0  0  0
   -2.6412    3.7725    2.8572 O   0  0  0  0  0  0  0  0  0  0  0  0
   -1.3239    1.8548    3.0664 O   0  0  0  0  0  0  0  0  0  0  0  0
    0.0572    2.2200    2.9866 C   0  0  0  0  0  0  0  0  0  0  0  0
    0.1373    3.5726    3.6923 C   0  0  2  0  0  0  0  0  0  0  0  0
    1.5639    4.1137    4.0473 C   0  0  1  0  0  0  0  0  0  0  0  0
    1.6674    5.4261    3.5155 O   0  0  0  0  0  0  0  0  0  0  0  0
    1.9067    4.1470    5.5468 C   0  0  1  0  0  0  0  0  0  0  0  0
    2.3250    5.3710    6.1784 O   0  0  0  0  0  0  0  0  0  0  0  0
    0.9367    5.0616    6.2718 C   0  0  2  0  0  0  0  0  0  0  0  0
    0.2403    4.4967    7.4728 C   0  0  0  0  0  0  0  0  0  0  0  0
    2.7053    2.9308    6.1318 C   0  0  2  0  0  0  0  0  0  0  0  0
    3.7716    2.4225    5.1177 C   0  0  0  0  0  0  0  0  0  0  0  0
    3.4474    3.3347    7.4442 C   0  0  0  0  0  0  0  0  0  0  0  0
    4.3949    1.9209    8.1875 S   0  0  0  0  0  0  0  0  0  0  0  0
    4.7087    2.2365    9.6521 O   0  0  0  0  0  0  0  0  0  0  0  0
   -0.6345   -6.7627    5.1738 H   0  0  0  0  0  0  0  0  0  0  0  0
   -1.3982   -5.4563    6.2289 H   0  0  0  0  0  0  0  0  0  0  0  0
    1.5562   -8.0360    7.5515 H   0  0  0  0  0  0  0  0  0  0  0  0
    2.4560   -6.8896    6.5470 H   0  0  0  0  0  0  0  0  0  0  0  0
    1.2497   -7.9477    5.8209 H   0  0  0  0  0  0  0  0  0  0  0  0
   -0.0069   -5.8577   10.0595 H   0  0  0  0  0  0  0  0  0  0  0  0
    3.4035   -4.6861    9.7208 H   0  0  0  0  0  0  0  0  0  0  0  0
    0.9965   -4.6965   10.5663 H   0  0  0  0  0  0  0  0  0  0  0  0
    0.7190   -3.2298   12.1735 H   0  0  0  0  0  0  0  0  0  0  0  0
    2.3665   -3.6380   12.1662 H   0  0  0  0  0  0  0  0  0  0  0  0
    3.3676   -1.5673   13.1473 H   0  0  0  0  0  0  0  0  0  0  0  0
    1.7415   -1.1099   13.6204 H   0  0  0  0  0  0  0  0  0  0  0  0
    2.7446    0.0323   12.7489 H   0  0  0  0  0  0  0  0  0  0  0  0
   -0.3026    0.9810    9.4398 H   0  0  0  0  0  0  0  0  0  0  0  0
    1.5187    1.6772   10.7479 H   0  0  0  0  0  0  0  0  0  0  0  0
    4.0749   -3.0342   11.2300 H   0  0  0  0  0  0  0  0  0  0  0  0
    4.8039   -1.5335   10.9225 H   0  0  0  0  0  0  0  0  0  0  0  0
    4.5686   -2.6539    9.6573 H   0  0  0  0  0  0  0  0  0  0  0  0
    2.0026   -2.2136    7.4027 H   0  0  0  0  0  0  0  0  0  0  0  0
   -0.4329   -2.2211   10.9403 H   0  0  0  0  0  0  0  0  0  0  0  0
   -1.1370   -4.1851    8.4887 H   0  0  0  0  0  0  0  0  0  0  0  0
    0.5933   -3.3259    6.5741 H   0  0  0  0  0  0  0  0  0  0  0  0
    4.9356   -0.3041    7.1565 H   0  0  0  0  0  0  0  0  0  0  0  0
    4.8569   -0.7752    8.7047 H   0  0  0  0  0  0  0  0  0  0  0  0
    3.7907   -2.7148    5.0459 H   0  0  0  0  0  0  0  0  0  0  0  0
    4.2722   -1.0775    5.2991 H   0  0  0  0  0  0  0  0  0  0  0  0
    2.6062   -1.5416    5.5479 H   0  0  0  0  0  0  0  0  0  0  0  0
    5.7114   -3.1938    6.3030 H   0  0  0  0  0  0  0  0  0  0  0  0
    5.9518   -2.7288    8.0022 H   0  0  0  0  0  0  0  0  0  0  0  0
    2.6481   -4.9524    6.5493 H   0  0  0  0  0  0  0  0  0  0  0  0
    1.1906    1.4838    5.5906 H   0  0  0  0  0  0  0  0  0  0  0  0
   -0.8516    2.8313    8.0851 H   0  0  0  0  0  0  0  0  0  0  0  0
   -0.9854    1.6305    5.7689 H   0  0  0  0  0  0  0  0  0  0  0  0
   -2.1017    2.7798    6.3574 H   0  0  0  0  0  0  0  0  0  0  0  0
   -1.4391    4.5369    4.8934 H   0  0  0  0  0  0  0  0  0  0  0  0
   -2.8912    2.3486    4.2593 H   0  0  0  0  0  0  0  0  0  0  0  0
   -1.9634    4.0493    2.2578 H   0  0  0  0  0  0  0  0  0  0  0  0
    0.6682    1.4623    3.4777 H   0  0  0  0  0  0  0  0  0  0  0  0
    0.3866    2.2880    1.9475 H   0  0  0  0  0  0  0  0  0  0  0  0
   -0.1959    4.2643    2.9158 H   0  0  0  0  0  0  0  0  0  0  0  0
    2.3013    3.5751    3.4646 H   0  0  0  0  0  0  0  0  0  0  0  0
    1.3872    5.4091    2.6082 H   0  0  0  0  0  0  0  0  0  0  0  0
    0.3254    5.7534    5.6969 H   0  0  0  0  0  0  0  0  0  0  0  0
   -0.6396    5.1127    7.6652 H   0  0  0  0  0  0  0  0  0  0  0  0
    0.8616    4.5916    8.3613 H   0  0  0  0  0  0  0  0  0  0  0  0
    4.3969    3.2494    4.7796 H   0  0  0  0  0  0  0  0  0  0  0  0
    3.3340    1.9426    4.2428 H   0  0  0  0  0  0  0  0  0  0  0  0
    4.4435    1.6697    5.5276 H   0  0  0  0  0  0  0  0  0  0  0  0
    4.1603    4.1396    7.2671 H   0  0  0  0  0  0  0  0  0  0  0  0
    2.7714    3.6994    8.2086 H   0  0  0  0  0  0  0  0  0  0  0  0
  1  2  2  0
  1 56  1  0
  1 57  1  0
  2  3  1  0
  2  4  1  0
  3 58  1  0
  3 59  1  0
  3 60  1  0
  4 24  1  0
  4  5  1  1
  4  6  1  0
  5 61  1  0
  6  7  1  0
  7 32  1  0
  7  8  1  0
  7 62  1  1
  8 22  1  0
  8  9  1  0
  8 63  1  1
  9 10  1  0
  9 64  1  0
  9 65  1  0
 10 18  1  0
 10 11  1  1
 10 12  1  0
 11 66  1  0
 11 67  1  0
 11 68  1  0
 12 13  1  0
 13 20  1  0
 13 14  1  6
 13 15  1  0
 14 69  1  0
 15 16  1  1
 15 17  1  0
 15 26  1  0
 16 70  1  0
 17 18  1  0
 18 19  1  1
 18 20  1  0
 19 71  1  0
 19 72  1  0
 19 73  1  0
 20 21  1  6
 20 22  1  0
 21 74  1  0
 22 23  1  1
 22 24  1  0
 23 75  1  0
 24 25  1  0
 24 76  1  1
 25 77  1  0
 26 54  1  0
 26 27  1  0
 26 34  1  6
 27 28  1  0
 27 78  1  0
 27 79  1  0
 28 32  1  0
 28 29  1  6
 28 30  1  0
 29 80  1  0
 29 81  1  0
 29 82  1  0
 30 31  1  0
 30 83  1  0
 30 84  1  0
 31 32  1  0
 32 33  1  6
 33 85  1  0
 34 35  1  0
 35 51  1  0
 35 36  1  0
 35 86  1  6
 36 37  1  0
 37 50  1  0
 37 38  1  0
 37 87  1  1
 38 39  1  0
 38 88  1  0
 38 89  1  0
 39 44  1  0
 39 40  1  0
 39 90  1  1
 40 41  1  0
 40 42  1  0
 40 91  1  1
 41 92  1  0
 42 43  1  0
 43 44  1  0
 43 93  1  0
 43 94  1  0
 44 45  1  0
 44 95  1  6
 45 46  1  0
 45 47  1  0
 45 96  1  6
 46 97  1  0
 47 49  1  0
 47 48  1  6
 47 51  1  0
 48 49  1  0
 49 50  1  0
 49 98  1  6
 50 99  1  0
 50100  1  0
 51 52  1  6
 51 53  1  0
 52101  1  0
 52102  1  0
 52103  1  0
 54 53  1  1
 53104  1  0
 53105  1  0
 54 55  2  0
M  END
>  <i_m_ct_stereo_status>  (12) 
1

>  <s_m_source_file>  (12) 
/var/tmp/pbs.5075288.sched01/tmpye5xf5zc/0p3ozm_yu.sdf

>  <i_m_source_file_index>  (12) 
23

>  <i_lp_mmshare_version>  (12) 
48012

>  <i_f3d_flags>  (12) 
0

>  <s_epik_input>  (12) 
W09IXVtDQF0xMltDQEBIXShbT0hdKVtDQEBdKFtPSF0pKEMoPVtDSDJdKVtDSDNdKU9bQ0BASF0oW0NAQF0zKFtPSF0pW0NAXShbQ0gyXTQpKFtDSDNdKVtDSDJdTzMpW0NASF0xW0NIMl1bQ0BAXShPNSkoW0NIM10pW0NAQF0oTzYpKFtDSDNdKVtDQF0yKFtPSF0pW0NAXTUoW09IXSlbQ0BdNihbT0hdKVtDQF00N09bQ0BASF04W0NAXShbQ0gzXSkoW0NIMl1bUytdN1tPLV0pW0NAQF0xOVtDQEhdKE8xKVtDSDJdW0NASF0oTzgpW0NIMl1bQ0BIXTFbQ0BASF0oW0NASF05W09IXSlbQ0gyXU9bQ0BASF0xW09IXQ==

>  <s_epik_cmdline>  (12) 
J2VwaWtfcHl0aG9uJywgJy1waHQnLCAnMi4wJywgJy1waCcsICc3LjAnLCAnLXRuJywgJzgnLCAnLW1hJywgJzIwMCcsICctaW1hZScsICc8aW5maWxlLm1hZT4nLCAnLW9tYWUnLCAnPG91dGZpbGUubWFlPic=

>  <r_lp_tautomer_probability>  (12) 
1

>  <r_epik_Ionization_Penalty>  (12) 
0.000210842

>  <r_epik_Ionization_Penalty_Charging>  (12) 
0

>  <r_epik_Ionization_Penalty_Neutral>  (12) 
0.000210842

>  <r_epik_State_Penalty>  (12) 
-0

>  <r_epik_Charging_Adjusted_Penalty>  (12) 
0

>  <i_epik_Tot_Q>  (12) 
0

>  <i_epik_Tot_abs_Q>  (12) 
2

>  <s_epik_Chemistry_Notes>  (12) 
This compound contains an acetal/aminal-like group ( X-CH(R)-Y where X, Y are N, S, or O) that may be acid/base labile, releasing an aldehyde.

>  <s_lp_Force_Field>  (12) 
OPLS3e

>  <r_lp_Energy>  (12) 
316.781

>  <b_lp_Chiralities_Consistent>  (12) 
1

>  <s_lp_Variant>  (12) 
12:0-1

>  <s_i_glide_gridfile>  (12) 
pfpi4k_grid

>  <i_i_glide_lignum>  (12) 
23

>  <i_i_glide_rotatable_bonds>  (12) 
10

>  <r_i_docking_score>  (12) 
-3.39126

>  <r_i_glide_ligand_efficiency>  (12) 
-0.0616593

>  <r_i_glide_ligand_efficiency_sa>  (12) 
-0.234488

>  <r_i_glide_ligand_efficiency_ln>  (12) 
-0.67726

>  <r_i_glide_gscore>  (12) 
-3.39126

>  <r_i_glide_lipo>  (12) 
-0.00757793

>  <r_i_glide_hbond>  (12) 
0

>  <r_i_glide_metal>  (12) 
-0

>  <r_i_glide_rewards>  (12) 
-1

>  <r_i_glide_evdw>  (12) 
-21.4572

>  <r_i_glide_ecoul>  (12) 
-8.62202

>  <r_i_glide_erotb>  (12) 
0.033801

>  <r_i_glide_esite>  (12) 
-0.0513227

>  <r_i_glide_emodel>  (12) 
-45.8487

>  <r_i_glide_energy>  (12) 
-30.0793

>  <r_i_glide_einternal>  (12) 
3.30916

>  <r_i_glide_intrahb_reward>  (12) 
-1

>  <i_i_glide_confnum>  (12) 
1

>  <i_i_glide_posenum>  (12) 
3

>  <r_i_glide_eff_state_penalty>  (12) 
0

>  <ligand_id>  (12) 
12

>  <original_smiles>  (12) 
C=C(C)C1(O)OC2C3CC4(C)OC5(O)C(O)(OC4(C)C5(O)C3(O)C1O)C1(CC3(C)COC23O)OC2OC3CC4C(O)OCC4C(O)C4(OC4C3)C2(C)C[S+]1[O-]

>  <smiles>  (12) 
[H]OC1([H])OC([H])([H])C2([H])C([H])(O[H])C34OC3([H])C([H])([H])C([H])(OC3([H])OC5(S(=O)C([H])([H])C34C([H])([H])[H])C([H])([H])C3(C([H])([H])[H])C([H])([H])OC3(O[H])C3([H])OC(O[H])(C(=C([H])[H])C([H])([H])[H])C([H])(O[H])C4(O[H])C3([H])C([H])([H])C3(C([H])([H])[H])OC6(O[H])C5(O[H])OC3(C([H])([H])[H])C64O[H])C([H])([H])C12[H]

$$$$
16:0:0
     RDKit          3D

 95102  0  0  1  0  0  0  0  0999 V2000
    3.1645    3.6695    4.1334 C   0  0  0  0  0  0  0  0  0  0  0  0
    3.4926    3.2580    5.3652 C   0  0  0  0  0  0  0  0  0  0  0  0
    3.4624    1.8291    5.9357 C   0  0  2  0  0  0  0  0  0  0  0  0
    3.8337    0.6767    4.9117 C   0  0  1  0  0  0  0  0  0  0  0  0
    5.1478    0.8939    4.4447 O   0  0  0  0  0  0  0  0  0  0  0  0
    3.4179   -0.8552    5.0533 C   0  0  1  0  0  0  0  0  0  0  0  0
    3.9948   -1.3416    3.8227 O   0  0  0  0  0  0  0  0  0  0  0  0
    4.1152   -1.8706    6.0998 C   0  0  1  0  0  0  0  0  0  0  0  0
    4.6713   -1.1861    7.4161 C   0  0  1  0  0  0  0  0  0  0  0  0
    5.6054   -0.1507    7.1381 O   0  0  0  0  0  0  0  0  0  0  0  0
    6.8113   -0.5485    6.4920 C   0  0  0  0  0  0  0  0  0  0  0  0
    3.5097   -0.8602    8.4386 C   0  0  1  0  0  0  0  0  0  0  0  0
    3.8300   -1.5964    9.6278 O   0  0  0  0  0  0  0  0  0  0  0  0
    3.6074    0.4732    9.2541 C   0  0  0  0  0  0  0  0  0  0  0  0
    2.6279    1.0126    9.7352 O   0  0  0  0  0  0  0  0  0  0  0  0
    4.8932    0.8862    9.4863 O   0  0  0  0  0  0  0  0  0  0  0  0
    5.1352    2.0116   10.3278 C   0  0  0  0  0  0  0  0  0  0  0  0
    2.0729   -1.4667    7.8326 C   0  0  2  0  0  0  0  0  0  0  0  0
    1.1825   -1.2980    8.9286 O   0  0  0  0  0  0  0  0  0  0  0  0
    2.4863   -2.9887    7.7685 C   0  0  1  0  0  0  0  0  0  0  0  0
    1.6494   -3.9600    8.3441 O   0  0  0  0  0  0  0  0  0  0  0  0
    3.3800   -3.2491    6.5370 C   0  0  2  0  0  0  0  0  0  0  0  0
    4.4768   -4.0481    6.9869 O   0  0  0  0  0  0  0  0  0  0  0  0
    2.7733   -4.2363    5.5276 C   0  0  1  0  0  0  0  0  0  0  0  0
    2.0658   -5.3037    6.1499 O   0  0  0  0  0  0  0  0  0  0  0  0
    1.2813   -4.5715    5.2231 C   0  0  2  0  0  0  0  0  0  0  0  0
    0.9786   -5.3763    3.9630 C   0  0  0  0  0  0  0  0  0  0  0  0
   -0.1860   -6.1695    4.0797 O   0  0  0  0  0  0  0  0  0  0  0  0
    0.0629   -3.6873    5.6997 C   0  0  1  0  0  0  0  0  0  0  0  0
   -0.7989   -4.0802    6.8614 C   0  0  0  0  0  0  0  0  0  0  0  0
   -0.5677   -2.7700    7.5102 O   0  0  0  0  0  0  0  0  0  0  0  0
   -0.0527   -2.2014    6.2843 C   0  0  2  0  0  0  0  0  0  0  0  0
   -1.1521   -1.6158    5.6234 O   0  0  0  0  0  0  0  0  0  0  0  0
    1.1521   -1.0728    6.4316 C   0  0  1  0  0  0  0  0  0  0  0  0
    0.5783    0.4514    6.5761 C   0  0  2  0  0  0  0  0  0  0  0  0
   -0.2369    1.1150    5.3752 C   0  0  2  0  0  0  0  0  0  0  0  0
    0.6089    1.2053    4.1474 C   0  0  2  0  0  0  0  0  0  0  0  0
   -0.3351    1.9817    3.1938 C   0  0  1  0  0  0  0  0  0  0  0  0
   -1.1880    1.1498    2.2220 C   0  0  0  0  0  0  0  0  0  0  0  0
   -1.2326    2.6824    4.0658 O   0  0  0  0  0  0  0  0  0  0  0  0
   -0.7910    2.5524    5.3926 C   0  0  1  0  0  0  0  0  0  0  0  0
   -1.9267    2.6996    6.3887 C   0  0  0  0  0  0  0  0  0  0  0  0
   -3.1895    2.9387    6.0544 C   0  0  0  0  0  0  0  0  0  0  0  0
    0.2093    3.5128    5.5828 O   0  0  0  0  0  0  0  0  0  0  0  0
   -0.1876    4.8874    5.4836 C   0  0  0  0  0  0  0  0  0  0  0  0
    1.0744   -0.2188    3.8032 C   0  0  1  0  0  0  0  0  0  0  0  0
    1.8294   -0.1367    2.5873 O   0  0  0  0  0  0  0  0  0  0  0  0
    1.8560   -1.0093    4.9699 C   0  0  1  0  0  0  0  0  0  0  0  0
    1.7166   -2.1433    4.1818 O   0  0  0  0  0  0  0  0  0  0  0  0
    1.9632    1.6157    7.0638 S   0  0  0  0  0  0  0  0  0  0  0  0
    1.4783    2.8987    7.7200 O   0  0  0  0  0  0  0  0  0  0  0  0
    2.8393    2.9801    3.3649 H   0  0  0  0  0  0  0  0  0  0  0  0
    3.2316    4.7218    3.8565 H   0  0  0  0  0  0  0  0  0  0  0  0
    3.8039    4.0233    6.0732 H   0  0  0  0  0  0  0  0  0  0  0  0
    4.2594    1.8573    6.6756 H   0  0  0  0  0  0  0  0  0  0  0  0
    3.3517    1.0138    3.9923 H   0  0  0  0  0  0  0  0  0  0  0  0
    5.1375    1.8225    4.3274 H   0  0  0  0  0  0  0  0  0  0  0  0
    3.7287   -0.7299    3.1489 H   0  0  0  0  0  0  0  0  0  0  0  0
    4.9938   -2.2656    5.5767 H   0  0  0  0  0  0  0  0  0  0  0  0
    5.3036   -1.9196    7.9211 H   0  0  0  0  0  0  0  0  0  0  0  0
    7.4897    0.3033    6.4385 H   0  0  0  0  0  0  0  0  0  0  0  0
    6.5623   -0.7563    5.4619 H   0  0  0  0  0  0  0  0  0  0  0  0
    7.3519   -1.3773    6.9758 H   0  0  0  0  0  0  0  0  0  0  0  0
    4.0130   -2.4871    9.3823 H   0  0  0  0  0  0  0  0  0  0  0  0
    4.8186    2.9024    9.7950 H   0  0  0  0  0  0  0  0  0  0  0  0
    6.1993    2.1036   10.5574 H   0  0  0  0  0  0  0  0  0  0  0  0
    4.5952    1.9622   11.2747 H   0  0  0  0  0  0  0  0  0  0  0  0
    1.6255   -1.6571    9.6831 H   0  0  0  0  0  0  0  0  0  0  0  0
    3.1548   -3.3408    8.5499 H   0  0  0  0  0  0  0  0  0  0  0  0
    2.1292   -4.7768    8.3661 H   0  0  0  0  0  0  0  0  0  0  0  0
    4.9849   -4.3209    6.2383 H   0  0  0  0  0  0  0  0  0  0  0  0
    3.4674   -4.5365    4.7499 H   0  0  0  0  0  0  0  0  0  0  0  0
    0.8790   -4.7041    3.1059 H   0  0  0  0  0  0  0  0  0  0  0  0
    1.8107   -6.0431    3.7436 H   0  0  0  0  0  0  0  0  0  0  0  0
   -0.0113   -6.8664    4.6970 H   0  0  0  0  0  0  0  0  0  0  0  0
   -0.5902   -3.6410    4.8238 H   0  0  0  0  0  0  0  0  0  0  0  0
   -1.8491   -4.1979    6.6013 H   0  0  0  0  0  0  0  0  0  0  0  0
   -0.4348   -4.9462    7.4253 H   0  0  0  0  0  0  0  0  0  0  0  0
   -0.8334   -1.2583    4.8120 H   0  0  0  0  0  0  0  0  0  0  0  0
   -0.1176    0.4459    7.4253 H   0  0  0  0  0  0  0  0  0  0  0  0
   -1.1607    0.5673    5.1353 H   0  0  0  0  0  0  0  0  0  0  0  0
    1.4607    1.8452    4.3207 H   0  0  0  0  0  0  0  0  0  0  0  0
    0.2619    2.6952    2.6417 H   0  0  0  0  0  0  0  0  0  0  0  0
   -0.5596    0.6682    1.4760 H   0  0  0  0  0  0  0  0  0  0  0  0
   -1.9077    1.7684    1.6873 H   0  0  0  0  0  0  0  0  0  0  0  0
   -1.7588    0.3978    2.7595 H   0  0  0  0  0  0  0  0  0  0  0  0
   -1.6544    2.5736    7.4283 H   0  0  0  0  0  0  0  0  0  0  0  0
   -3.4746    3.0941    5.0174 H   0  0  0  0  0  0  0  0  0  0  0  0
   -3.9588    2.9441    6.8158 H   0  0  0  0  0  0  0  0  0  0  0  0
    0.6975    5.5169    5.5011 H   0  0  0  0  0  0  0  0  0  0  0  0
   -0.8163    5.1902    6.3190 H   0  0  0  0  0  0  0  0  0  0  0  0
   -0.7158    5.0981    4.5556 H   0  0  0  0  0  0  0  0  0  0  0  0
    0.1619   -0.7689    3.5084 H   0  0  0  0  0  0  0  0  0  0  0  0
    1.3100    0.2514    1.8931 H   0  0  0  0  0  0  0  0  0  0  0  0
    2.1996   -1.9347    3.3855 H   0  0  0  0  0  0  0  0  0  0  0  0
  1  2  2  0
  1 52  1  0
  1 53  1  0
  2  3  1  0
  2 54  1  0
 50  3  1  6
  3  4  1  0
  3 55  1  1
  4  5  1  0
  4  6  1  0
  4 56  1  6
  5 57  1  0
  6 48  1  0
  6  7  1  6
  6  8  1  0
  7 58  1  0
  8 22  1  0
  8  9  1  0
  8 59  1  6
  9 10  1  0
  9 12  1  0
  9 60  1  1
 10 11  1  0
 11 61  1  0
 11 62  1  0
 11 63  1  0
 12 13  1  1
 12 14  1  0
 12 18  1  0
 13 64  1  0
 14 15  2  0
 14 16  1  0
 16 17  1  0
 17 65  1  0
 17 66  1  0
 17 67  1  0
 18 34  1  0
 18 19  1  1
 18 20  1  0
 19 68  1  0
 20 21  1  0
 20 22  1  0
 20 69  1  1
 21 70  1  0
 22 23  1  1
 22 24  1  0
 23 71  1  0
 24 26  1  0
 24 25  1  0
 24 72  1  6
 25 26  1  0
 26 27  1  6
 26 29  1  0
 27 28  1  0
 27 73  1  0
 27 74  1  0
 28 75  1  0
 29 32  1  0
 29 30  1  0
 29 76  1  6
 30 31  1  0
 30 77  1  0
 30 78  1  0
 31 32  1  0
 32 33  1  6
 34 32  1  6
 33 79  1  0
 34 48  1  0
 34 35  1  0
 35 36  1  0
 35 50  1  0
 35 80  1  1
 36 41  1  0
 36 37  1  0
 36 81  1  6
 37 38  1  0
 37 46  1  0
 37 82  1  1
 38 39  1  0
 38 40  1  0
 38 83  1  6
 39 84  1  0
 39 85  1  0
 39 86  1  0
 40 41  1  0
 41 42  1  0
 41 44  1  1
 42 43  2  0
 42 87  1  0
 43 88  1  0
 43 89  1  0
 44 45  1  0
 45 90  1  0
 45 91  1  0
 45 92  1  0
 46 47  1  0
 46 48  1  0
 46 93  1  6
 47 94  1  0
 48 49  1  6
 49 95  1  0
 50 51  2  0
M  END
>  <i_m_ct_stereo_status>  (13) 
1

>  <s_m_source_file>  (13) 
/var/tmp/pbs.5075288.sched01/tmpye5xf5zc/0p3ozm_yu.sdf

>  <i_m_source_file_index>  (13) 
28

>  <i_lp_mmshare_version>  (13) 
48012

>  <i_f3d_flags>  (13) 
0

>  <s_epik_input>  (13) 
W0NIMl09W0NIXVtDQEhdKFtDQEhdMVtPSF0pW1MrXShbTy1dKVtDQEhdMltDQEBIXShbQ0BAXShbQ0hdPVtDSDJdKShPW0NIM10pT1tDQEBIXTNbQ0gzXSlbQ0BIXTNbQ0BASF0oW09IXSlbQ0BAXTQoW09IXSlbQ0BdMShbT0hdKVtDQEBIXShbQ0BASF0oT1tDSDNdKVtDQF0oW09IXSkoW0NAXTUoW0NAQF0yNDYpW09IXSlDKD1PKU9bQ0gzXSlbQ0BAXShbT0hdKShbQ0BASF01W09IXSlbQ0BASF03W0NAXShPNykoW0NIMl1bT0hdKVtDQEBIXThbQ0BAXTYoW09IXSlPW0NIMl04

>  <s_epik_cmdline>  (13) 
J2VwaWtfcHl0aG9uJywgJy1waHQnLCAnMi4wJywgJy1waCcsICc3LjAnLCAnLXRuJywgJzgnLCAnLW1hJywgJzIwMCcsICctaW1hZScsICc8aW5maWxlLm1hZT4nLCAnLW9tYWUnLCAnPG91dGZpbGUubWFlPic=

>  <r_lp_tautomer_probability>  (13) 
1

>  <r_epik_Ionization_Penalty>  (13) 
4.73266e-06

>  <r_epik_Ionization_Penalty_Charging>  (13) 
0

>  <r_epik_Ionization_Penalty_Neutral>  (13) 
4.73266e-06

>  <r_epik_State_Penalty>  (13) 
-0

>  <r_epik_Charging_Adjusted_Penalty>  (13) 
0

>  <i_epik_Tot_Q>  (13) 
0

>  <i_epik_Tot_abs_Q>  (13) 
2

>  <s_epik_Chemistry_Notes>  (13) 
This compound has an ester and may undergo hydrolysis at high or low pH.

>  <s_lp_Force_Field>  (13) 
OPLS3e

>  <r_lp_Energy>  (13) 
253.126

>  <b_lp_Chiralities_Consistent>  (13) 
1

>  <s_lp_Variant>  (13) 
16:0-1

>  <s_i_glide_gridfile>  (13) 
pfpi4k_grid

>  <i_i_glide_lignum>  (13) 
28

>  <i_i_glide_rotatable_bonds>  (13) 
17

>  <r_i_docking_score>  (13) 
-2.84181

>  <r_i_glide_ligand_efficiency>  (13) 
-0.0557218

>  <r_i_glide_ligand_efficiency_sa>  (13) 
-0.20664

>  <r_i_glide_ligand_efficiency_ln>  (13) 
-0.576219

>  <r_i_glide_gscore>  (13) 
-2.84181

>  <r_i_glide_lipo>  (13) 
-0.238773

>  <r_i_glide_hbond>  (13) 
-0.0612193

>  <r_i_glide_metal>  (13) 
-0

>  <r_i_glide_rewards>  (13) 
-0.5

>  <r_i_glide_evdw>  (13) 
-22.9934

>  <r_i_glide_ecoul>  (13) 
-6.76345

>  <r_i_glide_erotb>  (13) 
0.15421

>  <r_i_glide_esite>  (13) 
-0.0318452

>  <r_i_glide_emodel>  (13) 
-37.2563

>  <r_i_glide_energy>  (13) 
-29.7568

>  <r_i_glide_einternal>  (13) 
5.18012

>  <r_i_glide_intrahb_reward>  (13) 
-0.5

>  <i_i_glide_confnum>  (13) 
3

>  <i_i_glide_posenum>  (13) 
4

>  <r_i_glide_eff_state_penalty>  (13) 
0

>  <ligand_id>  (13) 
16

>  <original_smiles>  (13) 
C=CC1C(O)C2(O)C3C(OC)C(O)(C(=O)OC)C4(O)C(O)C3(O)C3OC3(CO)C3COC3(O)C43C(C4C(C(C)OC4(C=C)OC)C(O)C23O)[S+]1[O-]

>  <smiles>  (13) 
[H]OC([H])([H])C12OC1([H])C1(O[H])C([H])(O[H])C3(O[H])C(O[H])(C(=O)OC([H])([H])[H])C([H])(OC([H])([H])[H])C1([H])C1(O[H])C([H])(O[H])C([H])(C([H])=C([H])[H])S(=O)C4([H])C5([H])C(OC([H])([H])[H])(C([H])=C([H])[H])OC([H])(C([H])([H])[H])C5([H])C([H])(O[H])C1(O[H])C43C1(O[H])OC([H])([H])C12[H]

$$$$
16:0:1
     RDKit          3D

 95102  0  0  1  0  0  0  0  0999 V2000
   -1.8112    2.6690    8.6920 C   0  0  0  0  0  0  0  0  0  0  0  0
   -0.9925    1.6560    8.3831 C   0  0  0  0  0  0  0  0  0  0  0  0
   -0.1150    1.5464    7.1345 C   0  0  2  0  0  0  0  0  0  0  0  0
   -0.7098    0.5658    6.0731 C   0  0  1  0  0  0  0  0  0  0  0  0
   -1.8710    1.2021    5.5816 O   0  0  0  0  0  0  0  0  0  0  0  0
    0.0876   -0.1281    4.8728 C   0  0  1  0  0  0  0  0  0  0  0  0
   -0.9957   -0.7956    4.2376 O   0  0  0  0  0  0  0  0  0  0  0  0
    0.6719    0.6456    3.5685 C   0  0  1  0  0  0  0  0  0  0  0  0
    1.0026    2.1705    3.8453 C   0  0  1  0  0  0  0  0  0  0  0  0
   -0.1495    2.8366    4.3637 O   0  0  0  0  0  0  0  0  0  0  0  0
   -1.1975    3.0768    3.4335 C   0  0  0  0  0  0  0  0  0  0  0  0
    2.3545    2.3259    4.6307 C   0  0  1  0  0  0  0  0  0  0  0  0
    3.1362    3.1530    3.7634 O   0  0  0  0  0  0  0  0  0  0  0  0
    2.4862    3.4669    5.7185 C   0  0  0  0  0  0  0  0  0  0  0  0
    3.4023    3.4657    6.5329 O   0  0  0  0  0  0  0  0  0  0  0  0
    1.6285    4.4982    5.5216 O   0  0  0  0  0  0  0  0  0  0  0  0
    1.7612    5.6922    6.2961 C   0  0  0  0  0  0  0  0  0  0  0  0
    3.0763    0.8296    4.7862 C   0  0  2  0  0  0  0  0  0  0  0  0
    4.3733    1.1526    5.2586 O   0  0  0  0  0  0  0  0  0  0  0  0
    3.2225    0.4924    3.2410 C   0  0  1  0  0  0  0  0  0  0  0  0
    4.4622    0.0157    2.7752 O   0  0  0  0  0  0  0  0  0  0  0  0
    1.8867    0.0298    2.6701 C   0  0  2  0  0  0  0  0  0  0  0  0
    1.7058    0.6969    1.4225 O   0  0  0  0  0  0  0  0  0  0  0  0
    1.8807   -1.4348    2.1697 C   0  0  1  0  0  0  0  0  0  0  0  0
    3.0997   -1.8023    1.5508 O   0  0  0  0  0  0  0  0  0  0  0  0
    2.7210   -2.6520    2.6193 C   0  0  2  0  0  0  0  0  0  0  0  0
    2.3006   -4.0415    2.1209 C   0  0  0  0  0  0  0  0  0  0  0  0
    3.3493   -4.9816    2.0828 O   0  0  0  0  0  0  0  0  0  0  0  0
    3.5659   -2.7276    3.9236 C   0  0  1  0  0  0  0  0  0  0  0  0
    5.0692   -2.5446    3.9245 C   0  0  0  0  0  0  0  0  0  0  0  0
    4.9469   -1.4270    4.8735 O   0  0  0  0  0  0  0  0  0  0  0  0
    3.5988   -1.8277    5.2393 C   0  0  2  0  0  0  0  0  0  0  0  0
    3.6898   -2.7062    6.3203 O   0  0  0  0  0  0  0  0  0  0  0  0
    2.5622   -0.5808    5.6436 C   0  0  1  0  0  0  0  0  0  0  0  0
    2.5592   -0.2653    7.2473 C   0  0  2  0  0  0  0  0  0  0  0  0
    2.0544   -1.3577    8.2847 C   0  0  2  0  0  0  0  0  0  0  0  0
    0.6323   -1.7335    8.0675 C   0  0  2  0  0  0  0  0  0  0  0  0
    0.3821   -2.6878    9.2482 C   0  0  1  0  0  0  0  0  0  0  0  0
    0.5050   -4.1898    8.9692 C   0  0  0  0  0  0  0  0  0  0  0  0
    1.3816   -2.3459   10.2228 O   0  0  0  0  0  0  0  0  0  0  0  0
    2.0382   -1.1828    9.8304 C   0  0  1  0  0  0  0  0  0  0  0  0
    3.4336   -1.1123   10.4642 C   0  0  0  0  0  0  0  0  0  0  0  0
    4.6244   -1.1709    9.8486 C   0  0  0  0  0  0  0  0  0  0  0  0
    1.2315   -0.0922   10.1965 O   0  0  0  0  0  0  0  0  0  0  0  0
    0.9455    0.0753   11.5921 C   0  0  0  0  0  0  0  0  0  0  0  0
    0.5073   -2.1924    6.6257 C   0  0  1  0  0  0  0  0  0  0  0  0
   -0.8393   -2.6092    6.4598 O   0  0  0  0  0  0  0  0  0  0  0  0
    1.0573   -1.1941    5.4762 C   0  0  1  0  0  0  0  0  0  0  0  0
    0.9651   -2.2815    4.6032 O   0  0  0  0  0  0  0  0  0  0  0  0
    1.6718    1.3198    7.6159 S   0  0  0  0  0  0  0  0  0  0  0  0
    2.1042    2.0281    8.8908 O   0  0  0  0  0  0  0  0  0  0  0  0
   -1.9197    3.5078    8.0239 H   0  0  0  0  0  0  0  0  0  0  0  0
   -2.3775    2.6704    9.6141 H   0  0  0  0  0  0  0  0  0  0  0  0
   -0.9561    0.8244    9.0712 H   0  0  0  0  0  0  0  0  0  0  0  0
   -0.1045    2.5687    6.7336 H   0  0  0  0  0  0  0  0  0  0  0  0
   -1.1932   -0.2370    6.6348 H   0  0  0  0  0  0  0  0  0  0  0  0
   -1.5440    1.9828    5.1589 H   0  0  0  0  0  0  0  0  0  0  0  0
   -1.6079   -0.1061    3.9923 H   0  0  0  0  0  0  0  0  0  0  0  0
   -0.1215    0.6629    2.8234 H   0  0  0  0  0  0  0  0  0  0  0  0
    1.1554    2.6565    2.8750 H   0  0  0  0  0  0  0  0  0  0  0  0
   -1.9102    3.7739    3.8728 H   0  0  0  0  0  0  0  0  0  0  0  0
   -1.7371    2.1616    3.1751 H   0  0  0  0  0  0  0  0  0  0  0  0
   -0.8503    3.5347    2.4923 H   0  0  0  0  0  0  0  0  0  0  0  0
    3.3278    2.6632    2.9737 H   0  0  0  0  0  0  0  0  0  0  0  0
    1.3517    5.4659    7.2701 H   0  0  0  0  0  0  0  0  0  0  0  0
    1.1954    6.5185    5.8585 H   0  0  0  0  0  0  0  0  0  0  0  0
    2.7905    6.0248    6.4153 H   0  0  0  0  0  0  0  0  0  0  0  0
    4.2895    1.4994    6.1510 H   0  0  0  0  0  0  0  0  0  0  0  0
    3.4347    1.3395    2.6007 H   0  0  0  0  0  0  0  0  0  0  0  0
    4.6060   -0.8457    3.1665 H   0  0  0  0  0  0  0  0  0  0  0  0
    1.3000    0.1163    0.7781 H   0  0  0  0  0  0  0  0  0  0  0  0
    0.9992   -1.6817    1.6132 H   0  0  0  0  0  0  0  0  0  0  0  0
    1.4734   -4.4045    2.7301 H   0  0  0  0  0  0  0  0  0  0  0  0
    1.9461   -3.9393    1.0989 H   0  0  0  0  0  0  0  0  0  0  0  0
    3.6237   -5.1924    2.9690 H   0  0  0  0  0  0  0  0  0  0  0  0
    3.3721   -3.7108    4.3371 H   0  0  0  0  0  0  0  0  0  0  0  0
    5.5901   -3.3831    4.3785 H   0  0  0  0  0  0  0  0  0  0  0  0
    5.4961   -2.3042    2.9550 H   0  0  0  0  0  0  0  0  0  0  0  0
    2.8746   -3.2285    6.3563 H   0  0  0  0  0  0  0  0  0  0  0  0
    3.5904   -0.0112    7.4922 H   0  0  0  0  0  0  0  0  0  0  0  0
    2.5988   -2.3090    8.2116 H   0  0  0  0  0  0  0  0  0  0  0  0
   -0.0312   -0.9030    8.2321 H   0  0  0  0  0  0  0  0  0  0  0  0
   -0.6040   -2.4862    9.6671 H   0  0  0  0  0  0  0  0  0  0  0  0
   -0.2721   -4.5218    8.2775 H   0  0  0  0  0  0  0  0  0  0  0  0
    0.3883   -4.7475    9.9024 H   0  0  0  0  0  0  0  0  0  0  0  0
    1.4845   -4.4368    8.5481 H   0  0  0  0  0  0  0  0  0  0  0  0
    3.4459   -1.0090   11.5401 H   0  0  0  0  0  0  0  0  0  0  0  0
    4.7328   -1.2966    8.7773 H   0  0  0  0  0  0  0  0  0  0  0  0
    5.5288   -1.0955   10.4416 H   0  0  0  0  0  0  0  0  0  0  0  0
    0.1861    0.8476   11.7288 H   0  0  0  0  0  0  0  0  0  0  0  0
    1.8245    0.4052   12.1501 H   0  0  0  0  0  0  0  0  0  0  0  0
    0.5579   -0.8314   12.0669 H   0  0  0  0  0  0  0  0  0  0  0  0
    1.0837   -3.1233    6.6126 H   0  0  0  0  0  0  0  0  0  0  0  0
   -0.8656   -3.0242    5.5937 H   0  0  0  0  0  0  0  0  0  0  0  0
    1.0921   -1.9539    3.7249 H   0  0  0  0  0  0  0  0  0  0  0  0
  1  2  2  0
  1 52  1  0
  1 53  1  0
  2  3  1  0
  2 54  1  0
 50  3  1  1
  3  4  1  0
  3 55  1  6
  4  5  1  0
  4  6  1  0
  4 56  1  1
  5 57  1  0
  6 48  1  0
  6  7  1  6
  6  8  1  0
  7 58  1  0
  8 22  1  0
  8  9  1  0
  8 59  1  6
  9 10  1  0
  9 12  1  0
  9 60  1  6
 10 11  1  0
 11 61  1  0
 11 62  1  0
 11 63  1  0
 12 13  1  6
 12 14  1  0
 12 18  1  0
 13 64  1  0
 14 15  2  0
 14 16  1  0
 16 17  1  0
 17 65  1  0
 17 66  1  0
 17 67  1  0
 18 34  1  0
 18 19  1  1
 18 20  1  0
 19 68  1  0
 20 21  1  0
 20 22  1  0
 20 69  1  6
 21 70  1  0
 22 23  1  6
 22 24  1  0
 23 71  1  0
 24 26  1  0
 24 25  1  0
 24 72  1  6
 25 26  1  0
 26 27  1  6
 26 29  1  0
 27 28  1  0
 27 73  1  0
 27 74  1  0
 28 75  1  0
 29 32  1  0
 29 30  1  0
 29 76  1  1
 30 31  1  0
 30 77  1  0
 30 78  1  0
 31 32  1  0
 32 33  1  1
 34 32  1  1
 33 79  1  0
 34 48  1  0
 34 35  1  0
 35 36  1  0
 35 50  1  0
 35 80  1  1
 36 41  1  0
 36 37  1  0
 36 81  1  1
 37 38  1  0
 37 46  1  0
 37 82  1  1
 38 39  1  0
 38 40  1  0
 38 83  1  1
 39 84  1  0
 39 85  1  0
 39 86  1  0
 40 41  1  0
 41 42  1  0
 41 44  1  6
 42 43  2  0
 42 87  1  0
 43 88  1  0
 43 89  1  0
 44 45  1  0
 45 90  1  0
 45 91  1  0
 45 92  1  0
 46 47  1  0
 46 48  1  0
 46 93  1  1
 47 94  1  0
 48 49  1  6
 49 95  1  0
 50 51  2  0
M  END
>  <i_m_ct_stereo_status>  (14) 
1

>  <s_m_source_file>  (14) 
/var/tmp/pbs.5075288.sched01/tmpye5xf5zc/0p3ozm_yu.sdf

>  <i_m_source_file_index>  (14) 
28

>  <i_lp_mmshare_version>  (14) 
48012

>  <i_f3d_flags>  (14) 
0

>  <s_epik_input>  (14) 
W0NIMl09W0NIXVtDQEhdKFtDQEhdMVtPSF0pW1MrXShbTy1dKVtDQEhdMltDQEBIXShbQ0BAXShbQ0hdPVtDSDJdKShPW0NIM10pT1tDQEBIXTNbQ0gzXSlbQ0BIXTNbQ0BASF0oW09IXSlbQ0BAXTQoW09IXSlbQ0BdMShbT0hdKVtDQEBIXShbQ0BASF0oT1tDSDNdKVtDQF0oW09IXSkoW0NAXTUoW0NAQF0yNDYpW09IXSlDKD1PKU9bQ0gzXSlbQ0BAXShbT0hdKShbQ0BASF01W09IXSlbQ0BASF03W0NAXShPNykoW0NIMl1bT0hdKVtDQEBIXThbQ0BAXTYoW09IXSlPW0NIMl04

>  <s_epik_cmdline>  (14) 
J2VwaWtfcHl0aG9uJywgJy1waHQnLCAnMi4wJywgJy1waCcsICc3LjAnLCAnLXRuJywgJzgnLCAnLW1hJywgJzIwMCcsICctaW1hZScsICc8aW5maWxlLm1hZT4nLCAnLW9tYWUnLCAnPG91dGZpbGUubWFlPic=

>  <r_lp_tautomer_probability>  (14) 
1

>  <r_epik_Ionization_Penalty>  (14) 
4.73266e-06

>  <r_epik_Ionization_Penalty_Charging>  (14) 
0

>  <r_epik_Ionization_Penalty_Neutral>  (14) 
4.73266e-06

>  <r_epik_State_Penalty>  (14) 
-0

>  <r_epik_Charging_Adjusted_Penalty>  (14) 
0

>  <i_epik_Tot_Q>  (14) 
0

>  <i_epik_Tot_abs_Q>  (14) 
2

>  <s_epik_Chemistry_Notes>  (14) 
This compound has an ester and may undergo hydrolysis at high or low pH.

>  <s_lp_Force_Field>  (14) 
OPLS3e

>  <r_lp_Energy>  (14) 
253.126

>  <b_lp_Chiralities_Consistent>  (14) 
1

>  <s_lp_Variant>  (14) 
16:0-1

>  <s_i_glide_gridfile>  (14) 
pfpi4k_grid

>  <i_i_glide_lignum>  (14) 
28

>  <i_i_glide_rotatable_bonds>  (14) 
17

>  <r_i_docking_score>  (14) 
-2.71777

>  <r_i_glide_ligand_efficiency>  (14) 
-0.0532896

>  <r_i_glide_ligand_efficiency_sa>  (14) 
-0.197621

>  <r_i_glide_ligand_efficiency_ln>  (14) 
-0.551067

>  <r_i_glide_gscore>  (14) 
-2.71777

>  <r_i_glide_lipo>  (14) 
-0.0511672

>  <r_i_glide_hbond>  (14) 
0

>  <r_i_glide_metal>  (14) 
-0

>  <r_i_glide_rewards>  (14) 
-0.5

>  <r_i_glide_evdw>  (14) 
-24.0047

>  <r_i_glide_ecoul>  (14) 
-7.46745

>  <r_i_glide_erotb>  (14) 
0.15421

>  <r_i_glide_esite>  (14) 
-0.00045763

>  <r_i_glide_emodel>  (14) 
-40.0491

>  <r_i_glide_energy>  (14) 
-31.4721

>  <r_i_glide_einternal>  (14) 
3.31563

>  <r_i_glide_intrahb_reward>  (14) 
-0.5

>  <i_i_glide_confnum>  (14) 
1

>  <i_i_glide_posenum>  (14) 
5

>  <r_i_glide_eff_state_penalty>  (14) 
0

>  <ligand_id>  (14) 
16

>  <original_smiles>  (14) 
C=CC1C(O)C2(O)C3C(OC)C(O)(C(=O)OC)C4(O)C(O)C3(O)C3OC3(CO)C3COC3(O)C43C(C4C(C(C)OC4(C=C)OC)C(O)C23O)[S+]1[O-]

>  <smiles>  (14) 
[H]OC([H])([H])C12OC1([H])C1(O[H])C([H])(O[H])C3(O[H])C(O[H])(C(=O)OC([H])([H])[H])C([H])(OC([H])([H])[H])C1([H])C1(O[H])C([H])(O[H])C([H])(C([H])=C([H])[H])S(=O)C4([H])C5([H])C(OC([H])([H])[H])(C([H])=C([H])[H])OC([H])(C([H])([H])[H])C5([H])C([H])(O[H])C1(O[H])C43C1(O[H])OC([H])([H])C12[H]

$$$$
16:0:2
     RDKit          3D

 95102  0  0  1  0  0  0  0  0999 V2000
   -1.8873    2.2491    8.9476 C   0  0  0  0  0  0  0  0  0  0  0  0
   -1.0218    1.2770    8.6260 C   0  0  0  0  0  0  0  0  0  0  0  0
   -0.0222    1.3205    7.4763 C   0  0  2  0  0  0  0  0  0  0  0  0
   -0.5733    0.6527    6.1729 C   0  0  1  0  0  0  0  0  0  0  0  0
   -1.5950    1.5319    5.7357 O   0  0  0  0  0  0  0  0  0  0  0  0
    0.3195    0.0732    4.9816 C   0  0  1  0  0  0  0  0  0  0  0  0
   -0.7231   -0.4034    4.1240 O   0  0  0  0  0  0  0  0  0  0  0  0
    1.1443    0.9982    3.9366 C   0  0  1  0  0  0  0  0  0  0  0  0
    1.5912    2.3999    4.5264 C   0  0  1  0  0  0  0  0  0  0  0  0
    0.4958    3.1589    5.0193 O   0  0  0  0  0  0  0  0  0  0  0  0
   -0.3636    3.7237    4.0339 C   0  0  0  0  0  0  0  0  0  0  0  0
    2.8456    2.2819    5.4741 C   0  0  1  0  0  0  0  0  0  0  0  0
    3.8029    3.1459    4.8500 O   0  0  0  0  0  0  0  0  0  0  0  0
    2.8910    3.1974    6.7541 C   0  0  0  0  0  0  0  0  0  0  0  0
    3.6649    2.9763    7.6892 O   0  0  0  0  0  0  0  0  0  0  0  0
    2.1858    4.3482    6.6279 O   0  0  0  0  0  0  0  0  0  0  0  0
    2.2514    5.3450    7.6389 C   0  0  0  0  0  0  0  0  0  0  0  0
    3.3830    0.7065    5.4157 C   0  0  2  0  0  0  0  0  0  0  0  0
    4.6247    0.7708    6.0863 O   0  0  0  0  0  0  0  0  0  0  0  0
    3.7014    0.6189    3.8723 C   0  0  1  0  0  0  0  0  0  0  0  0
    4.9607    0.1437    3.4744 O   0  0  0  0  0  0  0  0  0  0  0  0
    2.4016    0.4191    3.0841 C   0  0  2  0  0  0  0  0  0  0  0  0
    2.4124    1.2693    1.9403 O   0  0  0  0  0  0  0  0  0  0  0  0
    2.3550   -0.9236    2.3131 C   0  0  1  0  0  0  0  0  0  0  0  0
    3.6163   -1.2795    1.7713 O   0  0  0  0  0  0  0  0  0  0  0  0
    3.0438   -2.2740    2.5958 C   0  0  2  0  0  0  0  0  0  0  0  0
    2.5891   -3.5063    1.7999 C   0  0  0  0  0  0  0  0  0  0  0  0
    3.6125   -4.4603    1.6342 O   0  0  0  0  0  0  0  0  0  0  0  0
    3.7149   -2.6571    3.9504 C   0  0  1  0  0  0  0  0  0  0  0  0
    5.2144   -2.6181    4.1649 C   0  0  0  0  0  0  0  0  0  0  0  0
    5.0488   -1.6996    5.2990 O   0  0  0  0  0  0  0  0  0  0  0  0
    3.6244   -2.0179    5.4060 C   0  0  2  0  0  0  0  0  0  0  0  0
    3.4801   -3.0882    6.2855 O   0  0  0  0  0  0  0  0  0  0  0  0
    2.6562   -0.7692    5.9262 C   0  0  1  0  0  0  0  0  0  0  0  0
    2.4865   -0.7415    7.5490 C   0  0  2  0  0  0  0  0  0  0  0  0
    1.7760   -1.9458    8.3099 C   0  0  2  0  0  0  0  0  0  0  0  0
    0.3713   -2.1340    7.8767 C   0  0  2  0  0  0  0  0  0  0  0  0
   -0.0870   -3.2640    8.8272 C   0  0  1  0  0  0  0  0  0  0  0  0
   -0.0392   -4.6954    8.2896 C   0  0  0  0  0  0  0  0  0  0  0  0
    0.8004   -3.1819    9.9546 O   0  0  0  0  0  0  0  0  0  0  0  0
    1.5838   -2.0326    9.8542 C   0  0  1  0  0  0  0  0  0  0  0  0
    2.8909   -2.2118   10.6353 C   0  0  0  0  0  0  0  0  0  0  0  0
    4.1402   -2.2694   10.1424 C   0  0  0  0  0  0  0  0  0  0  0  0
    0.8123   -0.9588   10.3317 O   0  0  0  0  0  0  0  0  0  0  0  0
    0.4015   -0.9933   11.7038 C   0  0  0  0  0  0  0  0  0  0  0  0
    0.3911   -2.3125    6.3695 C   0  0  1  0  0  0  0  0  0  0  0  0
   -0.9523   -2.5495    5.9913 O   0  0  0  0  0  0  0  0  0  0  0  0
    1.1330   -1.1789    5.4872 C   0  0  1  0  0  0  0  0  0  0  0  0
    1.0709   -2.0869    4.4178 O   0  0  0  0  0  0  0  0  0  0  0  0
    1.6643    0.8240    8.1053 S   0  0  0  0  0  0  0  0  0  0  0  0
    1.9654    1.2393    9.5298 O   0  0  0  0  0  0  0  0  0  0  0  0
   -1.9322    3.1436    8.3478 H   0  0  0  0  0  0  0  0  0  0  0  0
   -2.5440    2.1630    9.8047 H   0  0  0  0  0  0  0  0  0  0  0  0
   -1.0061    0.3890    9.2329 H   0  0  0  0  0  0  0  0  0  0  0  0
    0.1224    2.3885    7.2861 H   0  0  0  0  0  0  0  0  0  0  0  0
   -1.1812   -0.1910    6.5031 H   0  0  0  0  0  0  0  0  0  0  0  0
   -1.9159    1.2369    4.8883 H   0  0  0  0  0  0  0  0  0  0  0  0
   -1.0727    0.3317    3.6319 H   0  0  0  0  0  0  0  0  0  0  0  0
    0.4402    1.2471    3.1450 H   0  0  0  0  0  0  0  0  0  0  0  0
    1.9208    3.0016    3.6746 H   0  0  0  0  0  0  0  0  0  0  0  0
   -1.0954    4.3569    4.5342 H   0  0  0  0  0  0  0  0  0  0  0  0
   -0.9282    2.9555    3.5055 H   0  0  0  0  0  0  0  0  0  0  0  0
    0.1608    4.3362    3.2955 H   0  0  0  0  0  0  0  0  0  0  0  0
    3.9523    2.8631    3.9524 H   0  0  0  0  0  0  0  0  0  0  0  0
    1.6878    4.9701    8.4852 H   0  0  0  0  0  0  0  0  0  0  0  0
    1.8009    6.2823    7.3061 H   0  0  0  0  0  0  0  0  0  0  0  0
    3.2690    5.5625    7.9671 H   0  0  0  0  0  0  0  0  0  0  0  0
    5.1006   -0.0268    5.8630 H   0  0  0  0  0  0  0  0  0  0  0  0
    4.0565    1.5283    3.4242 H   0  0  0  0  0  0  0  0  0  0  0  0
    4.9679   -0.8110    3.5881 H   0  0  0  0  0  0  0  0  0  0  0  0
    2.4991    2.1816    2.2065 H   0  0  0  0  0  0  0  0  0  0  0  0
    1.5349   -0.9703    1.6085 H   0  0  0  0  0  0  0  0  0  0  0  0
    1.7438   -3.9695    2.3056 H   0  0  0  0  0  0  0  0  0  0  0  0
    2.2489   -3.1792    0.8180 H   0  0  0  0  0  0  0  0  0  0  0  0
    3.3360   -5.0908    0.9751 H   0  0  0  0  0  0  0  0  0  0  0  0
    3.4129   -3.6820    4.1363 H   0  0  0  0  0  0  0  0  0  0  0  0
    5.6326   -3.5695    4.4906 H   0  0  0  0  0  0  0  0  0  0  0  0
    5.7770   -2.2375    3.3091 H   0  0  0  0  0  0  0  0  0  0  0  0
    4.2606   -3.6272    6.1925 H   0  0  0  0  0  0  0  0  0  0  0  0
    3.4900   -0.6160    7.9467 H   0  0  0  0  0  0  0  0  0  0  0  0
    2.2596   -2.9075    8.1262 H   0  0  0  0  0  0  0  0  0  0  0  0
   -0.2291   -1.2722    8.1146 H   0  0  0  0  0  0  0  0  0  0  0  0
   -1.1013   -3.0745    9.1741 H   0  0  0  0  0  0  0  0  0  0  0  0
   -0.7505   -4.8242    7.4721 H   0  0  0  0  0  0  0  0  0  0  0  0
   -0.3120   -5.3928    9.0836 H   0  0  0  0  0  0  0  0  0  0  0  0
    0.9619   -4.9510    7.9360 H   0  0  0  0  0  0  0  0  0  0  0  0
    2.7835   -2.3111   11.7055 H   0  0  0  0  0  0  0  0  0  0  0  0
    4.3609   -2.2068    9.0854 H   0  0  0  0  0  0  0  0  0  0  0  0
    4.9761   -2.3865   10.8206 H   0  0  0  0  0  0  0  0  0  0  0  0
   -0.3143   -0.1917   11.8954 H   0  0  0  0  0  0  0  0  0  0  0  0
    1.2391   -0.8293   12.3845 H   0  0  0  0  0  0  0  0  0  0  0  0
   -0.0903   -1.9305   11.9754 H   0  0  0  0  0  0  0  0  0  0  0  0
    0.9063   -3.2721    6.2351 H   0  0  0  0  0  0  0  0  0  0  0  0
   -0.8996   -2.7744    5.0631 H   0  0  0  0  0  0  0  0  0  0  0  0
    1.3560   -1.6338    3.6390 H   0  0  0  0  0  0  0  0  0  0  0  0
  1  2  2  0
  1 52  1  0
  1 53  1  0
  2  3  1  0
  2 54  1  0
 50  3  1  1
  3  4  1  0
  3 55  1  6
  4  5  1  0
  4  6  1  0
  4 56  1  1
  5 57  1  0
  6 48  1  0
  6  7  1  6
  6  8  1  0
  7 58  1  0
  8 22  1  0
  8  9  1  0
  8 59  1  6
  9 10  1  0
  9 12  1  0
  9 60  1  6
 10 11  1  0
 11 61  1  0
 11 62  1  0
 11 63  1  0
 12 13  1  6
 12 14  1  0
 12 18  1  0
 13 64  1  0
 14 15  2  0
 14 16  1  0
 16 17  1  0
 17 65  1  0
 17 66  1  0
 17 67  1  0
 18 34  1  0
 18 19  1  1
 18 20  1  0
 19 68  1  0
 20 21  1  0
 20 22  1  0
 20 69  1  6
 21 70  1  0
 22 23  1  6
 22 24  1  0
 23 71  1  0
 24 26  1  0
 24 25  1  0
 24 72  1  6
 25 26  1  0
 26 27  1  6
 26 29  1  0
 27 28  1  0
 27 73  1  0
 27 74  1  0
 28 75  1  0
 29 32  1  0
 29 30  1  0
 29 76  1  1
 30 31  1  0
 30 77  1  0
 30 78  1  0
 31 32  1  0
 32 33  1  1
 34 32  1  1
 33 79  1  0
 34 48  1  0
 34 35  1  0
 35 36  1  0
 35 50  1  0
 35 80  1  1
 36 41  1  0
 36 37  1  0
 36 81  1  6
 37 38  1  0
 37 46  1  0
 37 82  1  6
 38 39  1  0
 38 40  1  0
 38 83  1  1
 39 84  1  0
 39 85  1  0
 39 86  1  0
 40 41  1  0
 41 42  1  0
 41 44  1  1
 42 43  2  0
 42 87  1  0
 43 88  1  0
 43 89  1  0
 44 45  1  0
 45 90  1  0
 45 91  1  0
 45 92  1  0
 46 47  1  0
 46 48  1  0
 46 93  1  1
 47 94  1  0
 48 49  1  6
 49 95  1  0
 50 51  2  0
M  END
>  <i_m_ct_stereo_status>  (15) 
1

>  <s_m_source_file>  (15) 
/var/tmp/pbs.5075288.sched01/tmpye5xf5zc/0p3ozm_yu.sdf

>  <i_m_source_file_index>  (15) 
28

>  <i_lp_mmshare_version>  (15) 
48012

>  <i_f3d_flags>  (15) 
0

>  <s_epik_input>  (15) 
W0NIMl09W0NIXVtDQEhdKFtDQEhdMVtPSF0pW1MrXShbTy1dKVtDQEhdMltDQEBIXShbQ0BAXShbQ0hdPVtDSDJdKShPW0NIM10pT1tDQEBIXTNbQ0gzXSlbQ0BIXTNbQ0BASF0oW09IXSlbQ0BAXTQoW09IXSlbQ0BdMShbT0hdKVtDQEBIXShbQ0BASF0oT1tDSDNdKVtDQF0oW09IXSkoW0NAXTUoW0NAQF0yNDYpW09IXSlDKD1PKU9bQ0gzXSlbQ0BAXShbT0hdKShbQ0BASF01W09IXSlbQ0BASF03W0NAXShPNykoW0NIMl1bT0hdKVtDQEBIXThbQ0BAXTYoW09IXSlPW0NIMl04

>  <s_epik_cmdline>  (15) 
J2VwaWtfcHl0aG9uJywgJy1waHQnLCAnMi4wJywgJy1waCcsICc3LjAnLCAnLXRuJywgJzgnLCAnLW1hJywgJzIwMCcsICctaW1hZScsICc8aW5maWxlLm1hZT4nLCAnLW9tYWUnLCAnPG91dGZpbGUubWFlPic=

>  <r_lp_tautomer_probability>  (15) 
1

>  <r_epik_Ionization_Penalty>  (15) 
4.73266e-06

>  <r_epik_Ionization_Penalty_Charging>  (15) 
0

>  <r_epik_Ionization_Penalty_Neutral>  (15) 
4.73266e-06

>  <r_epik_State_Penalty>  (15) 
-0

>  <r_epik_Charging_Adjusted_Penalty>  (15) 
0

>  <i_epik_Tot_Q>  (15) 
0

>  <i_epik_Tot_abs_Q>  (15) 
2

>  <s_epik_Chemistry_Notes>  (15) 
This compound has an ester and may undergo hydrolysis at high or low pH.

>  <s_lp_Force_Field>  (15) 
OPLS3e

>  <r_lp_Energy>  (15) 
253.126

>  <b_lp_Chiralities_Consistent>  (15) 
1

>  <s_lp_Variant>  (15) 
16:0-1

>  <s_i_glide_gridfile>  (15) 
pfpi4k_grid

>  <i_i_glide_lignum>  (15) 
28

>  <i_i_glide_rotatable_bonds>  (15) 
17

>  <r_i_docking_score>  (15) 
-2.62345

>  <r_i_glide_ligand_efficiency>  (15) 
-0.0514403

>  <r_i_glide_ligand_efficiency_sa>  (15) 
-0.190763

>  <r_i_glide_ligand_efficiency_ln>  (15) 
-0.531944

>  <r_i_glide_gscore>  (15) 
-2.62345

>  <r_i_glide_lipo>  (15) 
-0.0427345

>  <r_i_glide_hbond>  (15) 
0

>  <r_i_glide_metal>  (15) 
-0

>  <r_i_glide_rewards>  (15) 
-0.5

>  <r_i_glide_evdw>  (15) 
-24.8842

>  <r_i_glide_ecoul>  (15) 
-6.5877

>  <r_i_glide_erotb>  (15) 
0.15421

>  <r_i_glide_esite>  (15) 
-0.00256446

>  <r_i_glide_emodel>  (15) 
-40.347

>  <r_i_glide_energy>  (15) 
-31.4719

>  <r_i_glide_einternal>  (15) 
3.0653

>  <r_i_glide_intrahb_reward>  (15) 
-0.5

>  <i_i_glide_confnum>  (15) 
3

>  <i_i_glide_posenum>  (15) 
19

>  <r_i_glide_eff_state_penalty>  (15) 
0

>  <ligand_id>  (15) 
16

>  <original_smiles>  (15) 
C=CC1C(O)C2(O)C3C(OC)C(O)(C(=O)OC)C4(O)C(O)C3(O)C3OC3(CO)C3COC3(O)C43C(C4C(C(C)OC4(C=C)OC)C(O)C23O)[S+]1[O-]

>  <smiles>  (15) 
[H]OC([H])([H])C12OC1([H])C1(O[H])C([H])(O[H])C3(O[H])C(O[H])(C(=O)OC([H])([H])[H])C([H])(OC([H])([H])[H])C1([H])C1(O[H])C([H])(O[H])C([H])(C([H])=C([H])[H])S(=O)C4([H])C5([H])C(OC([H])([H])[H])(C([H])=C([H])[H])OC([H])(C([H])([H])[H])C5([H])C([H])(O[H])C1(O[H])C43C1(O[H])OC([H])([H])C12[H]

$$$$
19:0:0
     RDKit          3D

 97105  0  0  1  0  0  0  0  0999 V2000
    4.1655    7.1036    6.6454 C   0  0  0  0  0  0  0  0  0  0  0  0
    3.0079    6.1590    6.3087 C   0  0  0  0  0  0  0  0  0  0  0  0
    2.3114    6.3389    5.3254 O   0  0  0  0  0  0  0  0  0  0  0  0
    2.9022    5.1619    7.2275 O   0  0  0  0  0  0  0  0  0  0  0  0
    1.9417    4.0793    7.2113 C   0  0  1  0  0  0  0  0  0  0  0  0
    2.6196    2.8171    8.3116 C   0  0  2  0  0  0  0  0  0  0  0  0
    3.9444    3.1130    8.7798 O   0  0  0  0  0  0  0  0  0  0  0  0
    4.8611    2.0380    8.4964 C   0  0  0  0  0  0  0  0  0  0  0  0
    4.2157    0.9940    7.5272 C   0  0  1  0  0  0  0  0  0  0  0  0
    4.9555   -0.3397    7.8456 C   0  0  0  0  0  0  0  0  0  0  0  0
    2.7771    1.1676    7.9613 C   0  0  2  0  0  0  0  0  0  0  0  0
    1.7513    0.1962    7.1016 C   0  0  1  0  0  0  0  0  0  0  0  0
    2.2830   -1.3063    6.9378 C   0  0  0  0  0  0  0  0  0  0  0  0
    1.1313   -0.3667    8.2717 O   0  0  0  0  0  0  0  0  0  0  0  0
    0.8342    0.7733    5.6599 C   0  0  2  0  0  0  0  0  0  0  0  0
   -0.0632    2.0719    5.1498 O   0  0  0  0  0  0  0  0  0  0  0  0
   -0.4445    3.6214    5.3609 C   0  0  0  0  0  0  0  0  0  0  0  0
   -0.5415    4.4850    4.0172 C   0  0  0  0  0  0  0  0  0  0  0  0
   -2.0064    3.4648    5.3638 C   0  0  0  0  0  0  0  0  0  0  0  0
    0.4089    4.6005    6.5674 C   0  0  2  0  0  0  0  0  0  0  0  0
   -0.6047    5.5840    7.3782 C   0  0  1  0  0  0  0  0  0  0  0  0
   -1.8364    4.8424    8.0616 C   0  0  0  0  0  0  0  0  0  0  0  0
   -1.3006    4.0435    9.2212 C   0  0  2  0  0  0  0  0  0  0  0  0
   -0.3091    5.0123    9.8078 C   0  0  1  0  0  0  0  0  0  0  0  0
    0.7210    4.0331    9.7440 O   0  0  0  0  0  0  0  0  0  0  0  0
   -0.1124    3.0039    9.1180 C   0  0  1  0  0  0  0  0  0  0  0  0
   -0.1619    1.8999   10.1943 C   0  0  0  0  0  0  0  0  0  0  0  0
    0.3637    2.3497    7.6005 C   0  0  2  0  0  0  0  0  0  0  0  0
   -0.9467    0.9581    7.2548 S   0  0  0  0  0  0  0  0  0  0  0  0
   -2.4465    1.2335    7.5408 O   0  0  0  0  0  0  0  0  0  0  0  0
   -0.5422    0.0221    5.7052 C   0  0  0  0  0  0  0  0  0  0  0  0
   -1.6151    0.2399    4.5785 C   0  0  0  0  0  0  0  0  0  0  0  0
   -0.6950   -1.4831    6.0625 C   0  0  0  0  0  0  0  0  0  0  0  0
    1.9383    2.9850    6.3449 C   0  0  1  0  0  0  0  0  0  0  0  0
    2.0605    3.2507    4.7043 C   0  0  0  0  0  0  0  0  0  0  0  0
    1.9378    2.0532    3.7022 C   0  0  1  0  0  0  0  0  0  0  0  0
    2.8926    2.1300    2.6252 N   0  0  0  0  0  0  0  0  0  0  0  0
    1.9282    0.7009    4.4784 C   0  0  2  0  0  0  0  0  0  0  0  0
    1.5334   -0.4192    3.4740 C   0  0  0  0  0  0  0  0  0  0  0  0
    3.4549    0.5049    4.9102 C   0  0  0  0  0  0  0  0  0  0  0  0
    4.1315   -0.3036    4.2677 O   0  0  0  0  0  0  0  0  0  0  0  0
    4.2031    1.3533    6.0127 C   0  0  2  0  0  0  0  0  0  0  0  0
    5.5946    1.3160    5.6955 O   0  0  0  0  0  0  0  0  0  0  0  0
    3.6296    2.7569    6.0633 C   0  0  1  0  0  0  0  0  0  0  0  0
    4.5522    3.5638    5.2833 O   0  0  0  0  0  0  0  0  0  0  0  0
   -0.1242    6.1571    8.7745 C   0  0  1  0  0  0  0  0  0  0  0  0
    1.1400    6.7850    8.8099 O   0  0  0  0  0  0  0  0  0  0  0  0
    4.0408    7.5032    7.6496 H   0  0  0  0  0  0  0  0  0  0  0  0
    4.1948    7.9348    5.9456 H   0  0  0  0  0  0  0  0  0  0  0  0
    5.1128    6.5733    6.5964 H   0  0  0  0  0  0  0  0  0  0  0  0
    2.3150    2.7823    9.3393 H   0  0  0  0  0  0  0  0  0  0  0  0
    5.8054    2.4254    8.1145 H   0  0  0  0  0  0  0  0  0  0  0  0
    5.1048    1.5809    9.4563 H   0  0  0  0  0  0  0  0  0  0  0  0
    4.8727   -1.0954    7.0627 H   0  0  0  0  0  0  0  0  0  0  0  0
    4.6313   -0.7780    8.7894 H   0  0  0  0  0  0  0  0  0  0  0  0
    6.0293   -0.1709    7.9470 H   0  0  0  0  0  0  0  0  0  0  0  0
    2.8399    0.7488    8.9727 H   0  0  0  0  0  0  0  0  0  0  0  0
    2.9410   -1.5466    6.1134 H   0  0  0  0  0  0  0  0  0  0  0  0
    1.5326   -2.0726    6.8110 H   0  0  0  0  0  0  0  0  0  0  0  0
    2.8174   -1.6742    7.8196 H   0  0  0  0  0  0  0  0  0  0  0  0
    0.8103    0.3232    8.8160 H   0  0  0  0  0  0  0  0  0  0  0  0
    0.0086    5.4226    4.1147 H   0  0  0  0  0  0  0  0  0  0  0  0
   -1.5099    4.8210    3.6514 H   0  0  0  0  0  0  0  0  0  0  0  0
   -0.1447    3.9423    3.1593 H   0  0  0  0  0  0  0  0  0  0  0  0
   -2.5262    4.4128    5.3924 H   0  0  0  0  0  0  0  0  0  0  0  0
   -2.4483    2.8585    6.1131 H   0  0  0  0  0  0  0  0  0  0  0  0
   -2.3493    2.9754    4.4494 H   0  0  0  0  0  0  0  0  0  0  0  0
    0.4056    4.4926    7.5659 H   0  0  0  0  0  0  0  0  0  0  0  0
   -0.8976    6.3966    6.7192 H   0  0  0  0  0  0  0  0  0  0  0  0
   -2.4994    5.6103    8.4728 H   0  0  0  0  0  0  0  0  0  0  0  0
   -2.5574    4.2723    7.5098 H   0  0  0  0  0  0  0  0  0  0  0  0
   -2.0412    3.7342    9.9659 H   0  0  0  0  0  0  0  0  0  0  0  0
   -0.5515    5.3138   10.8280 H   0  0  0  0  0  0  0  0  0  0  0  0
   -0.9430    1.1701   10.0019 H   0  0  0  0  0  0  0  0  0  0  0  0
   -0.4114    2.3238   11.1704 H   0  0  0  0  0  0  0  0  0  0  0  0
    0.7869    1.3886   10.3233 H   0  0  0  0  0  0  0  0  0  0  0  0
   -0.5948    2.7127    7.3165 H   0  0  0  0  0  0  0  0  0  0  0  0
   -1.8871   -0.7024    4.1037 H   0  0  0  0  0  0  0  0  0  0  0  0
   -1.3219    0.8629    3.7343 H   0  0  0  0  0  0  0  0  0  0  0  0
   -2.5402    0.6384    4.9862 H   0  0  0  0  0  0  0  0  0  0  0  0
   -0.1154   -2.1211    5.3951 H   0  0  0  0  0  0  0  0  0  0  0  0
   -1.7276   -1.8125    5.9564 H   0  0  0  0  0  0  0  0  0  0  0  0
   -0.4763   -1.7289    7.0975 H   0  0  0  0  0  0  0  0  0  0  0  0
    1.5998    4.1405    4.4023 H   0  0  0  0  0  0  0  0  0  0  0  0
    2.7831    3.9054    4.2307 H   0  0  0  0  0  0  0  0  0  0  0  0
    0.9989    2.1193    3.1585 H   0  0  0  0  0  0  0  0  0  0  0  0
    3.8711    2.1141    2.9070 H   0  0  0  0  0  0  0  0  0  0  0  0
    2.7587    3.0011    2.1190 H   0  0  0  0  0  0  0  0  0  0  0  0
    0.5693   -0.2297    2.9996 H   0  0  0  0  0  0  0  0  0  0  0  0
    1.4805   -1.3968    3.9555 H   0  0  0  0  0  0  0  0  0  0  0  0
    2.2456   -0.5282    2.6486 H   0  0  0  0  0  0  0  0  0  0  0  0
    5.7223    1.6868    4.8547 H   0  0  0  0  0  0  0  0  0  0  0  0
    4.2302    3.3657    6.7063 H   0  0  0  0  0  0  0  0  0  0  0  0
    4.2978    3.6058    4.3974 H   0  0  0  0  0  0  0  0  0  0  0  0
   -0.8084    6.9676    9.0398 H   0  0  0  0  0  0  0  0  0  0  0  0
    1.7984    6.1293    8.6669 H   0  0  0  0  0  0  0  0  0  0  0  0
    2.7640    1.3669    1.9662 H   0  0  0  0  0  0  0  0  0  0  0  0
  1  2  1  0
  1 48  1  0
  1 49  1  0
  1 50  1  0
  2  3  2  0
  2  4  1  0
  5  4  1  6
  5 20  1  0
  5 34  1  0
  5  6  1  0
  6 11  1  0
  6  7  1  0
  6 51  1  1
  7  8  1  0
  8  9  1  0
  8 52  1  0
  8 53  1  0
  9 42  1  0
  9 10  1  6
  9 11  1  0
 10 54  1  0
 10 55  1  0
 10 56  1  0
 11 12  1  0
 11 57  1  1
 12 13  1  0
 12 14  1  1
 12 15  1  0
 13 58  1  0
 13 59  1  0
 13 60  1  0
 14 61  1  0
 15 31  1  0
 15 38  1  0
 15 16  1  1
 16 17  1  0
 17 18  1  0
 17 19  1  0
 17 20  1  0
 18 62  1  0
 18 63  1  0
 18 64  1  0
 19 65  1  0
 19 66  1  0
 19 67  1  0
 20 21  1  0
 20 68  1  6
 21 46  1  0
 21 22  1  0
 21 69  1  6
 22 23  1  0
 22 70  1  0
 22 71  1  0
 23 26  1  0
 23 24  1  0
 23 72  1  1
 24 25  1  0
 24 46  1  0
 24 73  1  1
 25 26  1  0
 26 27  1  1
 26 28  1  0
 27 74  1  0
 27 75  1  0
 27 76  1  0
 28 29  1  0
 28 34  1  0
 28 77  1  1
 29 30  2  0
 29 31  1  6
 31 32  1  0
 31 33  1  0
 32 78  1  0
 32 79  1  0
 32 80  1  0
 33 81  1  0
 33 82  1  0
 33 83  1  0
 34 44  1  0
 34 35  1  6
 35 36  1  0
 35 84  1  0
 35 85  1  0
 36 37  1  0
 36 38  1  0
 36 86  1  6
 37 87  1  0
 37 88  1  0
 37 97  1  0
 38 39  1  6
 38 40  1  0
 39 89  1  0
 39 90  1  0
 39 91  1  0
 40 41  2  0
 40 42  1  0
 42 43  1  6
 42 44  1  0
 43 92  1  0
 44 45  1  0
 44 93  1  1
 45 94  1  0
 46 47  1  0
 46 95  1  1
 47 96  1  0
M  CHG  1  37   1
M  END
>  <i_m_ct_stereo_status>  (16) 
1

>  <s_m_source_file>  (16) 
/var/tmp/pbs.5075288.sched01/tmpye5xf5zc/0p3ozm_yu.sdf

>  <i_m_source_file_index>  (16) 
47

>  <i_lp_mmshare_version>  (16) 
48012

>  <i_f3d_flags>  (16) 
0

>  <s_epik_input>  (16) 
Tz1DMVtDQEBdKFtPSF0pKFtDQEhdMltPSF0pW0NAXShbQ0gyXU8zKShbQ0gzXSlbQ0BIXShbQ0BAXTQoW0NIM10pW09IXSlbQ0BASF0zW0NAQF0oT0MoPU8pW0NIM10pKEMyNVtDSDJdW0NAQEhdKFtOSDJdKVtDQEBdMShbQ0BAXTQ2NylbQ0gzXSlbQ0BIXShDKE82KShbQ0gzXSlbQ0gzXSlbQ0BIXThbQ0gyXVtDQEBIXTlbQ0BIXShbQ0BIXThbT0hdKU9bQ0BdOShbQ0gzXSlbQ0BASF01W1MrXShbTy1dKUM3KFtDSDNdKVtDSDNd

>  <s_epik_cmdline>  (16) 
J2VwaWtfcHl0aG9uJywgJy1waHQnLCAnMi4wJywgJy1waCcsICc3LjAnLCAnLXRuJywgJzgnLCAnLW1hJywgJzIwMCcsICctaW1hZScsICc8aW5maWxlLm1hZT4nLCAnLW9tYWUnLCAnPG91dGZpbGUubWFlPic=

>  <r_epik_Ionization_Penalty>  (16) 
0.0151088

>  <r_epik_Ionization_Penalty_Charging>  (16) 
0.0151082

>  <r_epik_Ionization_Penalty_Neutral>  (16) 
5.23371e-07

>  <r_epik_State_Penalty>  (16) 
0.0118548

>  <r_epik_Charging_Adjusted_Penalty>  (16) 
0.026963

>  <i_epik_Tot_Q>  (16) 
1

>  <i_epik_Tot_abs_Q>  (16) 
3

>  <s_epik_Chemistry_Notes>  (16) 
This compound has an ester and may undergo hydrolysis at high or low pH.

>  <s_lp_Force_Field>  (16) 
OPLS3e

>  <r_lp_Energy>  (16) 
967.206

>  <b_lp_Chiralities_Consistent>  (16) 
1

>  <s_lp_Variant>  (16) 
19:0-1

>  <s_i_glide_gridfile>  (16) 
pfpi4k_grid

>  <i_i_glide_lignum>  (16) 
47

>  <i_i_glide_rotatable_bonds>  (16) 
6

>  <r_i_docking_score>  (16) 
-2.7846

>  <r_i_glide_ligand_efficiency>  (16) 
-0.0592469

>  <r_i_glide_ligand_efficiency_sa>  (16) 
-0.213812

>  <r_i_glide_ligand_efficiency_ln>  (16) 
-0.574128

>  <r_i_glide_gscore>  (16) 
-2.7846

>  <r_i_glide_lipo>  (16) 
-0.000712167

>  <r_i_glide_hbond>  (16) 
-0.150136

>  <r_i_glide_metal>  (16) 
-0

>  <r_i_glide_rewards>  (16) 
-0.50169

>  <r_i_glide_evdw>  (16) 
-18.0339

>  <r_i_glide_ecoul>  (16) 
-7.92974

>  <r_i_glide_erotb>  (16) 
0.0460866

>  <r_i_glide_esite>  (16) 
-0.0869956

>  <r_i_glide_emodel>  (16) 
-34.4558

>  <r_i_glide_energy>  (16) 
-25.9636

>  <r_i_glide_einternal>  (16) 
3.68561

>  <r_i_glide_intrahb_reward>  (16) 
-0.5

>  <i_i_glide_confnum>  (16) 
3

>  <i_i_glide_posenum>  (16) 
4

>  <r_i_glide_eff_state_penalty>  (16) 
0

>  <ligand_id>  (16) 
19

>  <original_smiles>  (16) 
CC(=O)OC12C3OCC4(C)C3C(C)(O)C35OC(C)(C)C1C1CC6C(OC6(C)C([S+]([O-])C3(C)C)C23CC(N)C5(C)C(=O)C4(O)C3O)C1O

>  <smiles>  (16) 
[H]OC1([H])C2([H])OC3(C([H])([H])[H])C4([H])S(=O)C(C([H])([H])[H])(C([H])([H])[H])C56OC(C([H])([H])[H])(C([H])([H])[H])C([H])(C1([H])C([H])([H])C23[H])C1(OC(=O)C([H])([H])[H])C2([H])OC([H])([H])C(C([H])([H])[H])(C3(O[H])C(=O)C5(C([H])([H])[H])C([H])([N+]([H])([H])[H])C([H])([H])C41C3([H])O[H])C2([H])C6(O[H])C([H])([H])[H]

$$$$
19:0:1
     RDKit          3D

 97105  0  0  1  0  0  0  0  0999 V2000
    4.0783    6.9684    6.9528 C   0  0  0  0  0  0  0  0  0  0  0  0
    2.9303    6.0537    6.5449 C   0  0  0  0  0  0  0  0  0  0  0  0
    2.2187    6.3210    5.5801 O   0  0  0  0  0  0  0  0  0  0  0  0
    2.8336    4.9764    7.3668 O   0  0  0  0  0  0  0  0  0  0  0  0
    1.8907    3.8841    7.2552 C   0  0  1  0  0  0  0  0  0  0  0  0
    2.5756    2.5496    8.2614 C   0  0  2  0  0  0  0  0  0  0  0  0
    3.8944    2.8278    8.7661 O   0  0  0  0  0  0  0  0  0  0  0  0
    4.8284    1.7907    8.4158 C   0  0  0  0  0  0  0  0  0  0  0  0
    4.2116    0.8182    7.3515 C   0  0  1  0  0  0  0  0  0  0  0  0
    4.9751   -0.5249    7.5676 C   0  0  0  0  0  0  0  0  0  0  0  0
    2.7638    0.9289    7.7835 C   0  0  2  0  0  0  0  0  0  0  0  0
    1.7652    0.0123    6.8267 C   0  0  1  0  0  0  0  0  0  0  0  0
    2.3342   -1.4599    6.5442 C   0  0  0  0  0  0  0  0  0  0  0  0
    1.1270   -0.6557    7.9364 O   0  0  0  0  0  0  0  0  0  0  0  0
    0.8609    0.6923    5.4215 C   0  0  2  0  0  0  0  0  0  0  0  0
   -0.0524    2.0195    5.0053 O   0  0  0  0  0  0  0  0  0  0  0  0
   -0.4711    3.5418    5.3408 C   0  0  0  0  0  0  0  0  0  0  0  0
   -0.5598    4.5080    4.0690 C   0  0  0  0  0  0  0  0  0  0  0  0
   -2.0261    3.3587    5.3074 C   0  0  0  0  0  0  0  0  0  0  0  0
    0.3583    4.4352    6.6357 C   0  0  2  0  0  0  0  0  0  0  0  0
   -0.6844    5.3309    7.5055 C   0  0  1  0  0  0  0  0  0  0  0  0
   -1.9190    4.5147    8.0984 C   0  0  0  0  0  0  0  0  0  0  0  0
   -1.3822    3.6227    9.2039 C   0  0  2  0  0  0  0  0  0  0  0  0
   -0.4231    4.5677    9.8862 C   0  0  1  0  0  0  0  0  0  0  0  0
    0.6368    3.6188    9.7625 O   0  0  0  0  0  0  0  0  0  0  0  0
   -0.1665    2.6151    9.0387 C   0  0  1  0  0  0  0  0  0  0  0  0
   -0.2124    1.4335   10.0187 C   0  0  0  0  0  0  0  0  0  0  0  0
    0.3351    2.0987    7.4800 C   0  0  2  0  0  0  0  0  0  0  0  0
   -0.9690    0.7233    7.0008 S   0  0  0  0  0  0  0  0  0  0  0  0
   -2.4606    0.9386    7.2823 O   0  0  0  0  0  0  0  0  0  0  0  0
   -0.5056   -0.0795    5.3858 C   0  0  0  0  0  0  0  0  0  0  0  0
   -1.5644    0.2195    4.2650 C   0  0  0  0  0  0  0  0  0  0  0  0
   -0.6371   -1.6099    5.6148 C   0  0  0  0  0  0  0  0  0  0  0  0
    1.9124    2.8628    6.3070 C   0  0  1  0  0  0  0  0  0  0  0  0
    2.0509    3.2714    4.6931 C   0  0  0  0  0  0  0  0  0  0  0  0
    1.9611    2.1502    3.6068 C   0  0  1  0  0  0  0  0  0  0  0  0
    2.9489    2.3372    2.5636 N   0  0  0  0  0  0  0  0  0  0  0  0
    1.9737    0.7376    4.2568 C   0  0  2  0  0  0  0  0  0  0  0  0
    1.6069   -0.3006    3.1516 C   0  0  0  0  0  0  0  0  0  0  0  0
    3.4980    0.5308    4.6905 C   0  0  0  0  0  0  0  0  0  0  0  0
    4.1852   -0.2301    4.0102 O   0  0  0  0  0  0  0  0  0  0  0  0
    4.2134    1.3078    5.8696 C   0  0  2  0  0  0  0  0  0  0  0  0
    5.6059    1.3299    5.5685 O   0  0  0  0  0  0  0  0  0  0  0  0
    3.6154    2.6953    6.0200 C   0  0  1  0  0  0  0  0  0  0  0  0
    4.5224    3.6073    5.3602 O   0  0  0  0  0  0  0  0  0  0  0  0
   -0.2366    5.7991    8.9546 C   0  0  1  0  0  0  0  0  0  0  0  0
    1.0169    6.4356    9.0670 O   0  0  0  0  0  0  0  0  0  0  0  0
    3.9634    7.2780    7.9908 H   0  0  0  0  0  0  0  0  0  0  0  0
    4.1044    7.8619    6.3294 H   0  0  0  0  0  0  0  0  0  0  0  0
    5.0302    6.4482    6.8497 H   0  0  0  0  0  0  0  0  0  0  0  0
    2.2572    2.4291    9.2779 H   0  0  0  0  0  0  0  0  0  0  0  0
    5.7705    2.2295    8.0775 H   0  0  0  0  0  0  0  0  0  0  0  0
    5.0704    1.2616    9.3403 H   0  0  0  0  0  0  0  0  0  0  0  0
    4.9151   -1.2093    6.7236 H   0  0  0  0  0  0  0  0  0  0  0  0
    4.6447   -1.0445    8.4690 H   0  0  0  0  0  0  0  0  0  0  0  0
    6.0438   -0.3483    7.7015 H   0  0  0  0  0  0  0  0  0  0  0  0
    2.8117    0.4356    8.7600 H   0  0  0  0  0  0  0  0  0  0  0  0
    3.0029   -1.6134    5.7100 H   0  0  0  0  0  0  0  0  0  0  0  0
    1.5983   -2.2239    6.3344 H   0  0  0  0  0  0  0  0  0  0  0  0
    2.8722   -1.8956    7.3916 H   0  0  0  0  0  0  0  0  0  0  0  0
    1.7844   -0.9875    8.5206 H   0  0  0  0  0  0  0  0  0  0  0  0
   -0.0272    5.4442    4.2488 H   0  0  0  0  0  0  0  0  0  0  0  0
   -1.5322    4.8622    3.7257 H   0  0  0  0  0  0  0  0  0  0  0  0
   -0.1454    4.0458    3.1767 H   0  0  0  0  0  0  0  0  0  0  0  0
   -2.5725    4.2867    5.4266 H   0  0  0  0  0  0  0  0  0  0  0  0
   -2.4646    2.6756    5.9980 H   0  0  0  0  0  0  0  0  0  0  0  0
   -2.3529    2.9476    4.3490 H   0  0  0  0  0  0  0  0  0  0  0  0
    0.3427    4.2345    7.6145 H   0  0  0  0  0  0  0  0  0  0  0  0
   -0.9749    6.1933    6.9104 H   0  0  0  0  0  0  0  0  0  0  0  0
   -2.6013    5.2395    8.5531 H   0  0  0  0  0  0  0  0  0  0  0  0
   -2.6218    3.9848    7.4930 H   0  0  0  0  0  0  0  0  0  0  0  0
   -2.1317    3.2483    9.9039 H   0  0  0  0  0  0  0  0  0  0  0  0
   -0.6725    4.7873   10.9257 H   0  0  0  0  0  0  0  0  0  0  0  0
   -0.9637    0.6993    9.7468 H   0  0  0  0  0  0  0  0  0  0  0  0
   -0.4810    1.7657   11.0255 H   0  0  0  0  0  0  0  0  0  0  0  0
    0.7465    0.9284   10.1071 H   0  0  0  0  0  0  0  0  0  0  0  0
   -0.6250    2.4731    7.2149 H   0  0  0  0  0  0  0  0  0  0  0  0
   -1.8119   -0.6799    3.7068 H   0  0  0  0  0  0  0  0  0  0  0  0
   -1.2667    0.9151    3.4792 H   0  0  0  0  0  0  0  0  0  0  0  0
   -2.5034    0.5658    4.6897 H   0  0  0  0  0  0  0  0  0  0  0  0
   -0.0364   -2.1820    4.9081 H   0  0  0  0  0  0  0  0  0  0  0  0
   -1.6634   -1.9420    5.4706 H   0  0  0  0  0  0  0  0  0  0  0  0
   -0.4321   -1.9386    6.6270 H   0  0  0  0  0  0  0  0  0  0  0  0
    1.5796    4.1775    4.4620 H   0  0  0  0  0  0  0  0  0  0  0  0
    2.7612    3.9728    4.2788 H   0  0  0  0  0  0  0  0  0  0  0  0
    1.0380    2.2512    3.0374 H   0  0  0  0  0  0  0  0  0  0  0  0
    3.9247    2.2957    2.8592 H   0  0  0  0  0  0  0  0  0  0  0  0
    2.8056    3.2438    2.1265 H   0  0  0  0  0  0  0  0  0  0  0  0
    0.6475   -0.0821    2.6801 H   0  0  0  0  0  0  0  0  0  0  0  0
    1.5573   -1.3147    3.5492 H   0  0  0  0  0  0  0  0  0  0  0  0
    2.3316   -0.3286    2.3337 H   0  0  0  0  0  0  0  0  0  0  0  0
    6.0521    1.8133    6.2384 H   0  0  0  0  0  0  0  0  0  0  0  0
    4.1988    3.2478    6.7208 H   0  0  0  0  0  0  0  0  0  0  0  0
    4.3487    3.6070    4.4392 H   0  0  0  0  0  0  0  0  0  0  0  0
   -0.9416    6.5729    9.2713 H   0  0  0  0  0  0  0  0  0  0  0  0
    1.6865    5.7951    8.8897 H   0  0  0  0  0  0  0  0  0  0  0  0
    2.8324    1.6288    1.8439 H   0  0  0  0  0  0  0  0  0  0  0  0
  1  2  1  0
  1 48  1  0
  1 49  1  0
  1 50  1  0
  2  3  2  0
  2  4  1  0
  5  4  1  6
  5 20  1  0
  5 34  1  0
  5  6  1  0
  6 11  1  0
  6  7  1  0
  6 51  1  1
  7  8  1  0
  8  9  1  0
  8 52  1  0
  8 53  1  0
  9 42  1  0
  9 10  1  6
  9 11  1  0
 10 54  1  0
 10 55  1  0
 10 56  1  0
 11 12  1  0
 11 57  1  1
 12 13  1  0
 12 14  1  1
 12 15  1  0
 13 58  1  0
 13 59  1  0
 13 60  1  0
 14 61  1  0
 15 31  1  0
 15 38  1  0
 15 16  1  1
 16 17  1  0
 17 18  1  0
 17 19  1  0
 17 20  1  0
 18 62  1  0
 18 63  1  0
 18 64  1  0
 19 65  1  0
 19 66  1  0
 19 67  1  0
 20 21  1  0
 20 68  1  6
 21 46  1  0
 21 22  1  0
 21 69  1  6
 22 23  1  0
 22 70  1  0
 22 71  1  0
 23 26  1  0
 23 24  1  0
 23 72  1  1
 24 25  1  0
 24 46  1  0
 24 73  1  1
 25 26  1  0
 26 27  1  1
 26 28  1  0
 27 74  1  0
 27 75  1  0
 27 76  1  0
 28 29  1  0
 28 34  1  0
 28 77  1  1
 29 30  2  0
 29 31  1  6
 31 32  1  0
 31 33  1  0
 32 78  1  0
 32 79  1  0
 32 80  1  0
 33 81  1  0
 33 82  1  0
 33 83  1  0
 34 44  1  0
 34 35  1  6
 35 36  1  0
 35 84  1  0
 35 85  1  0
 36 37  1  0
 36 38  1  0
 36 86  1  6
 37 87  1  0
 37 88  1  0
 37 97  1  0
 38 39  1  6
 38 40  1  0
 39 89  1  0
 39 90  1  0
 39 91  1  0
 40 41  2  0
 40 42  1  0
 42 43  1  6
 42 44  1  0
 43 92  1  0
 44 45  1  0
 44 93  1  1
 45 94  1  0
 46 47  1  0
 46 95  1  1
 47 96  1  0
M  CHG  1  37   1
M  END
>  <i_m_ct_stereo_status>  (17) 
1

>  <s_m_source_file>  (17) 
/var/tmp/pbs.5075288.sched01/tmpye5xf5zc/0p3ozm_yu.sdf

>  <i_m_source_file_index>  (17) 
47

>  <i_lp_mmshare_version>  (17) 
48012

>  <i_f3d_flags>  (17) 
0

>  <s_epik_input>  (17) 
Tz1DMVtDQEBdKFtPSF0pKFtDQEhdMltPSF0pW0NAXShbQ0gyXU8zKShbQ0gzXSlbQ0BIXShbQ0BAXTQoW0NIM10pW09IXSlbQ0BASF0zW0NAQF0oT0MoPU8pW0NIM10pKEMyNVtDSDJdW0NAQEhdKFtOSDJdKVtDQEBdMShbQ0BAXTQ2NylbQ0gzXSlbQ0BIXShDKE82KShbQ0gzXSlbQ0gzXSlbQ0BIXThbQ0gyXVtDQEBIXTlbQ0BIXShbQ0BIXThbT0hdKU9bQ0BdOShbQ0gzXSlbQ0BASF01W1MrXShbTy1dKUM3KFtDSDNdKVtDSDNd

>  <s_epik_cmdline>  (17) 
J2VwaWtfcHl0aG9uJywgJy1waHQnLCAnMi4wJywgJy1waCcsICc3LjAnLCAnLXRuJywgJzgnLCAnLW1hJywgJzIwMCcsICctaW1hZScsICc8aW5maWxlLm1hZT4nLCAnLW9tYWUnLCAnPG91dGZpbGUubWFlPic=

>  <r_epik_Ionization_Penalty>  (17) 
0.0151088

>  <r_epik_Ionization_Penalty_Charging>  (17) 
0.0151082

>  <r_epik_Ionization_Penalty_Neutral>  (17) 
5.23371e-07

>  <r_epik_State_Penalty>  (17) 
0.0118548

>  <r_epik_Charging_Adjusted_Penalty>  (17) 
0.026963

>  <i_epik_Tot_Q>  (17) 
1

>  <i_epik_Tot_abs_Q>  (17) 
3

>  <s_epik_Chemistry_Notes>  (17) 
This compound has an ester and may undergo hydrolysis at high or low pH.

>  <s_lp_Force_Field>  (17) 
OPLS3e

>  <r_lp_Energy>  (17) 
967.206

>  <b_lp_Chiralities_Consistent>  (17) 
1

>  <s_lp_Variant>  (17) 
19:0-1

>  <s_i_glide_gridfile>  (17) 
pfpi4k_grid

>  <i_i_glide_lignum>  (17) 
47

>  <i_i_glide_rotatable_bonds>  (17) 
6

>  <r_i_docking_score>  (17) 
-2.67044

>  <r_i_glide_ligand_efficiency>  (17) 
-0.0568178

>  <r_i_glide_ligand_efficiency_sa>  (17) 
-0.205045

>  <r_i_glide_ligand_efficiency_ln>  (17) 
-0.550588

>  <r_i_glide_gscore>  (17) 
-2.67044

>  <r_i_glide_lipo>  (17) 
-0.00104632

>  <r_i_glide_hbond>  (17) 
-0.16

>  <r_i_glide_metal>  (17) 
-0

>  <r_i_glide_rewards>  (17) 
-0.00287913

>  <r_i_glide_evdw>  (17) 
-18.1323

>  <r_i_glide_ecoul>  (17) 
-10.2967

>  <r_i_glide_erotb>  (17) 
0.0460866

>  <r_i_glide_esite>  (17) 
-0.101475

>  <r_i_glide_emodel>  (17) 
-32.6561

>  <r_i_glide_energy>  (17) 
-28.429

>  <r_i_glide_einternal>  (17) 
1.93804

>  <r_i_glide_intrahb_reward>  (17) 
-0

>  <i_i_glide_confnum>  (17) 
2

>  <i_i_glide_posenum>  (17) 
21

>  <r_i_glide_eff_state_penalty>  (17) 
0

>  <ligand_id>  (17) 
19

>  <original_smiles>  (17) 
CC(=O)OC12C3OCC4(C)C3C(C)(O)C35OC(C)(C)C1C1CC6C(OC6(C)C([S+]([O-])C3(C)C)C23CC(N)C5(C)C(=O)C4(O)C3O)C1O

>  <smiles>  (17) 
[H]OC1([H])C2([H])OC3(C([H])([H])[H])C4([H])S(=O)C(C([H])([H])[H])(C([H])([H])[H])C56OC(C([H])([H])[H])(C([H])([H])[H])C([H])(C1([H])C([H])([H])C23[H])C1(OC(=O)C([H])([H])[H])C2([H])OC([H])([H])C(C([H])([H])[H])(C3(O[H])C(=O)C5(C([H])([H])[H])C([H])([N+]([H])([H])[H])C([H])([H])C41C3([H])O[H])C2([H])C6(O[H])C([H])([H])[H]

$$$$
19:0:2
     RDKit          3D

 97105  0  0  1  0  0  0  0  0999 V2000
    3.7097    6.0149    4.0482 C   0  0  0  0  0  0  0  0  0  0  0  0
    3.0342    4.6482    3.9876 C   0  0  0  0  0  0  0  0  0  0  0  0
    3.0147    4.0089    2.9404 O   0  0  0  0  0  0  0  0  0  0  0  0
    2.5098    4.3005    5.1867 O   0  0  0  0  0  0  0  0  0  0  0  0
    1.7415    3.1098    5.5014 C   0  0  1  0  0  0  0  0  0  0  0  0
    1.3113    3.2463    7.2484 C   0  0  2  0  0  0  0  0  0  0  0  0
    1.8547    4.4146    7.8859 O   0  0  0  0  0  0  0  0  0  0  0  0
    2.6192    4.0753    9.0595 C   0  0  0  0  0  0  0  0  0  0  0  0
    2.8649    2.5331    9.1355 C   0  0  1  0  0  0  0  0  0  0  0  0
    3.0591    2.2459   10.6537 C   0  0  0  0  0  0  0  0  0  0  0  0
    1.5943    2.0782    8.4455 C   0  0  2  0  0  0  0  0  0  0  0  0
    1.5099    0.4298    8.3232 C   0  0  1  0  0  0  0  0  0  0  0  0
    1.9244   -0.3324    9.6737 C   0  0  0  0  0  0  0  0  0  0  0  0
    0.1924    0.3341    8.9039 O   0  0  0  0  0  0  0  0  0  0  0  0
    2.0086   -0.4637    6.8338 C   0  0  2  0  0  0  0  0  0  0  0  0
    1.8632   -0.3903    5.1856 O   0  0  0  0  0  0  0  0  0  0  0  0
    1.5164    0.5104    3.8986 C   0  0  0  0  0  0  0  0  0  0  0  0
    2.5007    0.3072    2.6489 C   0  0  0  0  0  0  0  0  0  0  0  0
    0.4602   -0.4335    3.2182 C   0  0  0  0  0  0  0  0  0  0  0  0
    1.2202    2.2450    4.0804 C   0  0  2  0  0  0  0  0  0  0  0  0
   -0.0053    2.7394    3.1393 C   0  0  1  0  0  0  0  0  0  0  0  0
   -1.3587    1.9540    3.3471 C   0  0  0  0  0  0  0  0  0  0  0  0
   -1.9049    2.3555    4.6901 C   0  0  2  0  0  0  0  0  0  0  0  0
   -1.6490    3.8307    4.6893 C   0  0  1  0  0  0  0  0  0  0  0  0
   -0.9956    3.7338    5.9444 O   0  0  0  0  0  0  0  0  0  0  0  0
   -1.1067    2.2834    6.0482 C   0  0  1  0  0  0  0  0  0  0  0  0
   -1.9900    2.1106    7.2968 C   0  0  0  0  0  0  0  0  0  0  0  0
    0.3209    1.3237    6.1798 C   0  0  2  0  0  0  0  0  0  0  0  0
   -0.3732   -0.4916    6.4202 S   0  0  0  0  0  0  0  0  0  0  0  0
   -1.5954   -0.9752    5.6336 O   0  0  0  0  0  0  0  0  0  0  0  0
    1.0296   -1.6860    6.7260 C   0  0  0  0  0  0  0  0  0  0  0  0
    1.1688   -2.7300    5.5591 C   0  0  0  0  0  0  0  0  0  0  0  0
    0.5937   -2.5519    7.9411 C   0  0  0  0  0  0  0  0  0  0  0  0
    2.3257    1.9368    5.9876 C   0  0  1  0  0  0  0  0  0  0  0  0
    3.6479    1.3099    5.1634 C   0  0  0  0  0  0  0  0  0  0  0  0
    4.2806   -0.0538    5.6232 C   0  0  1  0  0  0  0  0  0  0  0  0
    5.7400   -0.0107    5.6290 N   0  0  0  0  0  0  0  0  0  0  0  0
    3.6253   -0.5255    6.9632 C   0  0  2  0  0  0  0  0  0  0  0  0
    4.0613   -1.9989    7.2175 C   0  0  0  0  0  0  0  0  0  0  0  0
    4.3006    0.4169    8.0687 C   0  0  0  0  0  0  0  0  0  0  0  0
    5.1814   -0.0721    8.7755 O   0  0  0  0  0  0  0  0  0  0  0  0
    4.0122    1.9604    8.2486 C   0  0  2  0  0  0  0  0  0  0  0  0
    5.1725    2.5472    8.8338 O   0  0  0  0  0  0  0  0  0  0  0  0
    3.6629    2.5681    6.9033 C   0  0  1  0  0  0  0  0  0  0  0  0
    4.9078    3.1391    6.4159 O   0  0  0  0  0  0  0  0  0  0  0  0
   -0.7108    4.1243    3.4959 C   0  0  1  0  0  0  0  0  0  0  0  0
    0.0479    5.3072    3.6592 O   0  0  0  0  0  0  0  0  0  0  0  0
    2.9939    6.7763    4.3610 H   0  0  0  0  0  0  0  0  0  0  0  0
    4.0923    6.2875    3.0696 H   0  0  0  0  0  0  0  0  0  0  0  0
    4.5331    5.9987    4.7562 H   0  0  0  0  0  0  0  0  0  0  0  0
    0.3354    3.6008    7.5331 H   0  0  0  0  0  0  0  0  0  0  0  0
    3.5496    4.6418    9.0851 H   0  0  0  0  0  0  0  0  0  0  0  0
    2.0449    4.4241    9.9192 H   0  0  0  0  0  0  0  0  0  0  0  0
    3.5579    1.2978   10.8710 H   0  0  0  0  0  0  0  0  0  0  0  0
    2.1213    2.2822   11.2035 H   0  0  0  0  0  0  0  0  0  0  0  0
    3.7034    2.9992   11.1116 H   0  0  0  0  0  0  0  0  0  0  0  0
    0.8541    2.3781    9.2004 H   0  0  0  0  0  0  0  0  0  0  0  0
    2.9689   -0.5573    9.8471 H   0  0  0  0  0  0  0  0  0  0  0  0
    1.4957   -1.3116    9.8248 H   0  0  0  0  0  0  0  0  0  0  0  0
    1.6132    0.1854   10.5841 H   0  0  0  0  0  0  0  0  0  0  0  0
    0.1664    0.8233    9.7048 H   0  0  0  0  0  0  0  0  0  0  0  0
    2.8309    1.2683    2.2522 H   0  0  0  0  0  0  0  0  0  0  0  0
    2.1375   -0.1848    1.7469 H   0  0  0  0  0  0  0  0  0  0  0  0
    3.3842   -0.2774    2.9137 H   0  0  0  0  0  0  0  0  0  0  0  0
    0.1233   -0.0642    2.2448 H   0  0  0  0  0  0  0  0  0  0  0  0
   -0.4094   -0.6859    3.7791 H   0  0  0  0  0  0  0  0  0  0  0  0
    0.8919   -1.4195    3.0260 H   0  0  0  0  0  0  0  0  0  0  0  0
    0.4779    2.7146    4.5615 H   0  0  0  0  0  0  0  0  0  0  0  0
    0.3232    2.6593    2.1094 H   0  0  0  0  0  0  0  0  0  0  0  0
   -2.0539    2.2990    2.5715 H   0  0  0  0  0  0  0  0  0  0  0  0
   -1.4603    0.9067    3.1837 H   0  0  0  0  0  0  0  0  0  0  0  0
   -2.9676    2.1961    4.8134 H   0  0  0  0  0  0  0  0  0  0  0  0
   -2.5658    4.4152    4.7257 H   0  0  0  0  0  0  0  0  0  0  0  0
   -2.3922    1.1032    7.3766 H   0  0  0  0  0  0  0  0  0  0  0  0
   -2.8618    2.7691    7.2449 H   0  0  0  0  0  0  0  0  0  0  0  0
   -1.4696    2.3559    8.2159 H   0  0  0  0  0  0  0  0  0  0  0  0
   -0.0873    0.8741    5.3011 H   0  0  0  0  0  0  0  0  0  0  0  0
    1.3053   -3.7413    5.9485 H   0  0  0  0  0  0  0  0  0  0  0  0
    2.0272   -2.6096    4.9010 H   0  0  0  0  0  0  0  0  0  0  0  0
    0.2707   -2.7672    4.9440 H   0  0  0  0  0  0  0  0  0  0  0  0
    1.4499   -2.9922    8.4500 H   0  0  0  0  0  0  0  0  0  0  0  0
   -0.0259   -3.3895    7.6271 H   0  0  0  0  0  0  0  0  0  0  0  0
   -0.0459   -2.0482    8.6585 H   0  0  0  0  0  0  0  0  0  0  0  0
    3.5998    1.5178    4.1305 H   0  0  0  0  0  0  0  0  0  0  0  0
    4.5100    1.8656    4.8204 H   0  0  0  0  0  0  0  0  0  0  0  0
    4.0760   -0.8217    4.8811 H   0  0  0  0  0  0  0  0  0  0  0  0
    6.0907    0.6817    6.2726 H   0  0  0  0  0  0  0  0  0  0  0  0
    6.0784    0.2122    4.7029 H   0  0  0  0  0  0  0  0  0  0  0  0
    3.7831   -2.6586    6.3949 H   0  0  0  0  0  0  0  0  0  0  0  0
    3.6186   -2.4050    8.1269 H   0  0  0  0  0  0  0  0  0  0  0  0
    5.1452   -2.1156    7.3321 H   0  0  0  0  0  0  0  0  0  0  0  0
    5.8691    2.4941    8.2101 H   0  0  0  0  0  0  0  0  0  0  0  0
    3.6252    3.6302    7.0252 H   0  0  0  0  0  0  0  0  0  0  0  0
    4.6607    3.8740    5.8746 H   0  0  0  0  0  0  0  0  0  0  0  0
   -1.3349    4.3908    2.6354 H   0  0  0  0  0  0  0  0  0  0  0  0
    0.4984    5.4561    2.8367 H   0  0  0  0  0  0  0  0  0  0  0  0
    6.1147   -0.9140    5.8942 H   0  0  0  0  0  0  0  0  0  0  0  0
  1  2  1  0
  1 48  1  0
  1 49  1  0
  1 50  1  0
  2  3  2  0
  2  4  1  0
  5  4  1  6
  5 20  1  0
  5 34  1  0
  5  6  1  0
  6 11  1  0
  6  7  1  0
  6 51  1  6
  7  8  1  0
  8  9  1  0
  8 52  1  0
  8 53  1  0
  9 42  1  0
  9 10  1  1
  9 11  1  0
 10 54  1  0
 10 55  1  0
 10 56  1  0
 11 12  1  0
 11 57  1  1
 12 13  1  0
 12 14  1  6
 12 15  1  0
 13 58  1  0
 13 59  1  0
 13 60  1  0
 14 61  1  0
 15 31  1  0
 15 38  1  0
 15 16  1  6
 16 17  1  0
 17 18  1  0
 17 19  1  0
 17 20  1  0
 18 62  1  0
 18 63  1  0
 18 64  1  0
 19 65  1  0
 19 66  1  0
 19 67  1  0
 20 21  1  0
 20 68  1  6
 21 46  1  0
 21 22  1  0
 21 69  1  6
 22 23  1  0
 22 70  1  0
 22 71  1  0
 23 26  1  0
 23 24  1  0
 23 72  1  1
 24 25  1  0
 24 46  1  0
 24 73  1  1
 25 26  1  0
 26 27  1  1
 26 28  1  0
 27 74  1  0
 27 75  1  0
 27 76  1  0
 28 29  1  0
 28 34  1  0
 28 77  1  1
 29 30  2  0
 29 31  1  6
 31 32  1  0
 31 33  1  0
 32 78  1  0
 32 79  1  0
 32 80  1  0
 33 81  1  0
 33 82  1  0
 33 83  1  0
 34 44  1  0
 34 35  1  6
 35 36  1  0
 35 84  1  0
 35 85  1  0
 36 37  1  0
 36 38  1  0
 36 86  1  6
 37 87  1  0
 37 88  1  0
 37 97  1  0
 38 39  1  1
 38 40  1  0
 39 89  1  0
 39 90  1  0
 39 91  1  0
 40 41  2  0
 40 42  1  0
 42 43  1  1
 42 44  1  0
 43 92  1  0
 44 45  1  0
 44 93  1  1
 45 94  1  0
 46 47  1  0
 46 95  1  6
 47 96  1  0
M  CHG  1  37   1
M  END
>  <i_m_ct_stereo_status>  (18) 
1

>  <s_m_source_file>  (18) 
/var/tmp/pbs.5075288.sched01/tmpye5xf5zc/0p3ozm_yu.sdf

>  <i_m_source_file_index>  (18) 
47

>  <i_lp_mmshare_version>  (18) 
48012

>  <i_f3d_flags>  (18) 
0

>  <s_epik_input>  (18) 
Tz1DMVtDQEBdKFtPSF0pKFtDQEhdMltPSF0pW0NAXShbQ0gyXU8zKShbQ0gzXSlbQ0BIXShbQ0BAXTQoW0NIM10pW09IXSlbQ0BASF0zW0NAQF0oT0MoPU8pW0NIM10pKEMyNVtDSDJdW0NAQEhdKFtOSDJdKVtDQEBdMShbQ0BAXTQ2NylbQ0gzXSlbQ0BIXShDKE82KShbQ0gzXSlbQ0gzXSlbQ0BIXThbQ0gyXVtDQEBIXTlbQ0BIXShbQ0BIXThbT0hdKU9bQ0BdOShbQ0gzXSlbQ0BASF01W1MrXShbTy1dKUM3KFtDSDNdKVtDSDNd

>  <s_epik_cmdline>  (18) 
J2VwaWtfcHl0aG9uJywgJy1waHQnLCAnMi4wJywgJy1waCcsICc3LjAnLCAnLXRuJywgJzgnLCAnLW1hJywgJzIwMCcsICctaW1hZScsICc8aW5maWxlLm1hZT4nLCAnLW9tYWUnLCAnPG91dGZpbGUubWFlPic=

>  <r_epik_Ionization_Penalty>  (18) 
0.0151088

>  <r_epik_Ionization_Penalty_Charging>  (18) 
0.0151082

>  <r_epik_Ionization_Penalty_Neutral>  (18) 
5.23371e-07

>  <r_epik_State_Penalty>  (18) 
0.0118548

>  <r_epik_Charging_Adjusted_Penalty>  (18) 
0.026963

>  <i_epik_Tot_Q>  (18) 
1

>  <i_epik_Tot_abs_Q>  (18) 
3

>  <s_epik_Chemistry_Notes>  (18) 
This compound has an ester and may undergo hydrolysis at high or low pH.

>  <s_lp_Force_Field>  (18) 
OPLS3e

>  <r_lp_Energy>  (18) 
967.206

>  <b_lp_Chiralities_Consistent>  (18) 
1

>  <s_lp_Variant>  (18) 
19:0-1

>  <s_i_glide_gridfile>  (18) 
pfpi4k_grid

>  <i_i_glide_lignum>  (18) 
47

>  <i_i_glide_rotatable_bonds>  (18) 
6

>  <r_i_docking_score>  (18) 
-2.06787

>  <r_i_glide_ligand_efficiency>  (18) 
-0.0439972

>  <r_i_glide_ligand_efficiency_sa>  (18) 
-0.158778

>  <r_i_glide_ligand_efficiency_ln>  (18) 
-0.426351

>  <r_i_glide_gscore>  (18) 
-2.06787

>  <r_i_glide_lipo>  (18) 
-0.0259486

>  <r_i_glide_hbond>  (18) 
-0.00540399

>  <r_i_glide_metal>  (18) 
-0

>  <r_i_glide_rewards>  (18) 
-0.0262419

>  <r_i_glide_evdw>  (18) 
-24.841

>  <r_i_glide_ecoul>  (18) 
-5.10419

>  <r_i_glide_erotb>  (18) 
0.0460866

>  <r_i_glide_esite>  (18) 
-0.0486808

>  <r_i_glide_emodel>  (18) 
-30.8455

>  <r_i_glide_energy>  (18) 
-29.9452

>  <r_i_glide_einternal>  (18) 
5.05567

>  <r_i_glide_intrahb_reward>  (18) 
-0

>  <i_i_glide_confnum>  (18) 
3

>  <i_i_glide_posenum>  (18) 
12

>  <r_i_glide_eff_state_penalty>  (18) 
0

>  <ligand_id>  (18) 
19

>  <original_smiles>  (18) 
CC(=O)OC12C3OCC4(C)C3C(C)(O)C35OC(C)(C)C1C1CC6C(OC6(C)C([S+]([O-])C3(C)C)C23CC(N)C5(C)C(=O)C4(O)C3O)C1O

>  <smiles>  (18) 
[H]OC1([H])C2([H])OC3(C([H])([H])[H])C4([H])S(=O)C(C([H])([H])[H])(C([H])([H])[H])C56OC(C([H])([H])[H])(C([H])([H])[H])C([H])(C1([H])C([H])([H])C23[H])C1(OC(=O)C([H])([H])[H])C2([H])OC([H])([H])C(C([H])([H])[H])(C3(O[H])C(=O)C5(C([H])([H])[H])C([H])([N+]([H])([H])[H])C([H])([H])C41C3([H])O[H])C2([H])C6(O[H])C([H])([H])[H]

$$$$
19:1:0
     RDKit          3D

 97105  0  0  1  0  0  0  0  0999 V2000
    0.3301   -8.6777    2.6532 C   0  0  0  0  0  0  0  0  0  0  0  0
    1.0134   -7.4781    2.0186 C   0  0  0  0  0  0  0  0  0  0  0  0
    0.5058   -6.9232    0.9959 O   0  0  0  0  0  0  0  0  0  0  0  0
    2.2272   -7.0384    2.5513 O   0  0  0  0  0  0  0  0  0  0  0  0
    2.8511   -7.4058    3.8248 C   0  0  1  0  0  0  0  0  0  0  0  0
    4.5409   -6.7620    3.7308 C   0  0  2  0  0  0  0  0  0  0  0  0
    4.9012   -6.2506    2.4373 O   0  0  0  0  0  0  0  0  0  0  0  0
    6.1080   -6.8606    1.9347 C   0  0  0  0  0  0  0  0  0  0  0  0
    6.5045   -8.1070    2.8053 C   0  0  1  0  0  0  0  0  0  0  0  0
    8.0462   -8.2264    2.6283 C   0  0  0  0  0  0  0  0  0  0  0  0
    5.9543   -7.6302    4.1343 C   0  0  2  0  0  0  0  0  0  0  0  0
    6.1577   -8.7741    5.3323 C   0  0  1  0  0  0  0  0  0  0  0  0
    7.6263   -9.3966    5.3387 C   0  0  0  0  0  0  0  0  0  0  0  0
    6.6985   -7.8380    6.2667 O   0  0  0  0  0  0  0  0  0  0  0  0
    4.8862   -9.9599    5.8095 C   0  0  2  0  0  0  0  0  0  0  0  0
    3.2444  -10.0059    6.1281 O   0  0  0  0  0  0  0  0  0  0  0  0
    1.8193   -9.2418    6.0461 C   0  0  0  0  0  0  0  0  0  0  0  0
    0.6096  -10.2534    5.7309 C   0  0  0  0  0  0  0  0  0  0  0  0
    1.4060   -9.2353    7.5744 C   0  0  0  0  0  0  0  0  0  0  0  0
    1.6523   -7.7951    5.0277 C   0  0  2  0  0  0  0  0  0  0  0  0
    0.6478   -6.7004    5.7041 C   0  0  1  0  0  0  0  0  0  0  0  0
    1.0492   -6.2648    7.1752 C   0  0  0  0  0  0  0  0  0  0  0  0
    2.3323   -5.4450    7.0741 C   0  0  2  0  0  0  0  0  0  0  0  0
    1.9810   -4.5871    5.8697 C   0  0  1  0  0  0  0  0  0  0  0  0
    3.2162   -4.9715    5.2284 O   0  0  0  0  0  0  0  0  0  0  0  0
    3.6603   -5.8995    6.3050 C   0  0  1  0  0  0  0  0  0  0  0  0
    4.9251   -5.1822    6.8158 C   0  0  0  0  0  0  0  0  0  0  0  0
    3.9548   -7.5717    5.9483 C   0  0  2  0  0  0  0  0  0  0  0  0
    4.3976   -8.4026    7.6816 S   0  0  0  0  0  0  0  0  0  0  0  0
    5.3493   -7.5972    8.5934 O   0  0  0  0  0  0  0  0  0  0  0  0
    5.0526  -10.1261    7.3588 C   0  0  0  0  0  0  0  0  0  0  0  0
    4.1741  -11.1966    8.1181 C   0  0  0  0  0  0  0  0  0  0  0  0
    6.4259  -10.2668    8.0637 C   0  0  0  0  0  0  0  0  0  0  0  0
    3.5603   -8.5710    4.1085 C   0  0  1  0  0  0  0  0  0  0  0  0
    2.8783  -10.0522    3.7381 C   0  0  0  0  0  0  0  0  0  0  0  0
    3.5784  -11.3890    4.0822 C   0  0  1  0  0  0  0  0  0  0  0  0
    3.5099  -12.3382    2.9239 N   0  0  0  0  0  0  0  0  0  0  0  0
    5.0024  -11.1095    4.6657 C   0  0  2  0  0  0  0  0  0  0  0  0
    5.4736  -12.4429    5.2980 C   0  0  0  0  0  0  0  0  0  0  0  0
    5.8720  -10.7554    3.3691 C   0  0  0  0  0  0  0  0  0  0  0  0
    6.6758  -11.6081    2.9775 O   0  0  0  0  0  0  0  0  0  0  0  0
    5.7281   -9.4324    2.5022 C   0  0  2  0  0  0  0  0  0  0  0  0
    6.1792   -9.7526    1.1777 O   0  0  0  0  0  0  0  0  0  0  0  0
    4.2828   -8.9507    2.5551 C   0  0  1  0  0  0  0  0  0  0  0  0
    3.6604   -9.4418    1.3286 O   0  0  0  0  0  0  0  0  0  0  0  0
    0.7194   -5.2075    5.1891 C   0  0  1  0  0  0  0  0  0  0  0  0
    0.6456   -4.9858    3.8048 O   0  0  0  0  0  0  0  0  0  0  0  0
    1.0026   -9.4677    2.4827 H   0  0  0  0  0  0  0  0  0  0  0  0
   -0.5987   -9.0074    2.1980 H   0  0  0  0  0  0  0  0  0  0  0  0
    0.0995   -8.4550    3.6967 H   0  0  0  0  0  0  0  0  0  0  0  0
    4.7705   -5.7929    4.1320 H   0  0  0  0  0  0  0  0  0  0  0  0
    5.9831   -7.1207    0.8803 H   0  0  0  0  0  0  0  0  0  0  0  0
    6.8867   -6.0955    1.9565 H   0  0  0  0  0  0  0  0  0  0  0  0
    8.4337   -9.2046    2.8872 H   0  0  0  0  0  0  0  0  0  0  0  0
    8.5906   -7.4747    3.1988 H   0  0  0  0  0  0  0  0  0  0  0  0
    8.3325   -8.0796    1.5864 H   0  0  0  0  0  0  0  0  0  0  0  0
    6.6468   -6.8038    4.3446 H   0  0  0  0  0  0  0  0  0  0  0  0
    7.8296  -10.2359    4.6950 H   0  0  0  0  0  0  0  0  0  0  0  0
    7.9890   -9.7845    6.2776 H   0  0  0  0  0  0  0  0  0  0  0  0
    8.4016   -8.6715    5.0839 H   0  0  0  0  0  0  0  0  0  0  0  0
    6.9106   -8.2856    7.0682 H   0  0  0  0  0  0  0  0  0  0  0  0
   -0.0273   -9.9145    4.9314 H   0  0  0  0  0  0  0  0  0  0  0  0
   -0.1459  -10.4708    6.4938 H   0  0  0  0  0  0  0  0  0  0  0  0
    0.9523  -11.2473    5.4518 H   0  0  0  0  0  0  0  0  0  0  0  0
    0.3745   -8.9003    7.7439 H   0  0  0  0  0  0  0  0  0  0  0  0
    2.0089   -8.6934    8.2956 H   0  0  0  0  0  0  0  0  0  0  0  0
    1.4471  -10.2524    7.9924 H   0  0  0  0  0  0  0  0  0  0  0  0
    2.0553   -6.9085    5.1575 H   0  0  0  0  0  0  0  0  0  0  0  0
   -0.3719   -7.0792    5.6834 H   0  0  0  0  0  0  0  0  0  0  0  0
    0.2500   -5.6174    7.5592 H   0  0  0  0  0  0  0  0  0  0  0  0
    1.0904   -6.9600    7.9865 H   0  0  0  0  0  0  0  0  0  0  0  0
    2.5364   -4.8624    7.9773 H   0  0  0  0  0  0  0  0  0  0  0  0
    1.9295   -3.5043    6.0362 H   0  0  0  0  0  0  0  0  0  0  0  0
    5.1612   -5.4328    7.8453 H   0  0  0  0  0  0  0  0  0  0  0  0
    4.7981   -4.0986    6.8120 H   0  0  0  0  0  0  0  0  0  0  0  0
    5.7959   -5.3982    6.2058 H   0  0  0  0  0  0  0  0  0  0  0  0
    3.1919   -7.6610    6.6815 H   0  0  0  0  0  0  0  0  0  0  0  0
    4.7804  -12.0185    8.5011 H   0  0  0  0  0  0  0  0  0  0  0  0
    3.4309  -11.7146    7.5386 H   0  0  0  0  0  0  0  0  0  0  0  0
    3.6769  -10.7631    8.9870 H   0  0  0  0  0  0  0  0  0  0  0  0
    6.9938  -11.0992    7.6530 H   0  0  0  0  0  0  0  0  0  0  0  0
    6.3007  -10.4899    9.1228 H   0  0  0  0  0  0  0  0  0  0  0  0
    7.0424   -9.3761    8.0894 H   0  0  0  0  0  0  0  0  0  0  0  0
    1.8637  -10.1270    3.9361 H   0  0  0  0  0  0  0  0  0  0  0  0
    2.4577  -10.3202    2.7985 H   0  0  0  0  0  0  0  0  0  0  0  0
    2.9643  -11.9258    4.8160 H   0  0  0  0  0  0  0  0  0  0  0  0
    3.9602  -11.9859    2.0550 H   0  0  0  0  0  0  0  0  0  0  0  0
    2.5377  -12.5198    2.6726 H   0  0  0  0  0  0  0  0  0  0  0  0
    4.7553  -12.8208    6.0234 H   0  0  0  0  0  0  0  0  0  0  0  0
    6.4253  -12.3164    5.8005 H   0  0  0  0  0  0  0  0  0  0  0  0
    5.5932  -13.2359    4.5628 H   0  0  0  0  0  0  0  0  0  0  0  0
    5.6343  -10.4384    0.8231 H   0  0  0  0  0  0  0  0  0  0  0  0
    4.1566   -8.1470    1.8614 H   0  0  0  0  0  0  0  0  0  0  0  0
    3.8129  -10.3678    1.2065 H   0  0  0  0  0  0  0  0  0  0  0  0
   -0.1645   -4.6878    5.5698 H   0  0  0  0  0  0  0  0  0  0  0  0
    1.4427   -5.3109    3.4113 H   0  0  0  0  0  0  0  0  0  0  0  0
    3.9212  -13.2377    3.1568 H   0  0  0  0  0  0  0  0  0  0  0  0
  1  2  1  0
  1 48  1  0
  1 49  1  0
  1 50  1  0
  2  3  2  0
  2  4  1  0
  5  4  1  6
  5 20  1  0
  5 34  1  0
  5  6  1  0
  6 11  1  0
  6  7  1  0
  6 51  1  1
  7  8  1  0
  8  9  1  0
  8 52  1  0
  8 53  1  0
  9 42  1  0
  9 10  1  1
  9 11  1  0
 10 54  1  0
 10 55  1  0
 10 56  1  0
 11 12  1  0
 11 57  1  1
 12 13  1  0
 12 14  1  1
 12 15  1  0
 13 58  1  0
 13 59  1  0
 13 60  1  0
 14 61  1  0
 15 31  1  0
 15 38  1  0
 15 16  1  1
 16 17  1  0
 17 18  1  0
 17 19  1  0
 17 20  1  0
 18 62  1  0
 18 63  1  0
 18 64  1  0
 19 65  1  0
 19 66  1  0
 19 67  1  0
 20 21  1  0
 20 68  1  6
 21 46  1  0
 21 22  1  0
 21 69  1  1
 22 23  1  0
 22 70  1  0
 22 71  1  0
 23 26  1  0
 23 24  1  0
 23 72  1  1
 24 25  1  0
 24 46  1  0
 24 73  1  1
 25 26  1  0
 26 27  1  1
 26 28  1  0
 27 74  1  0
 27 75  1  0
 27 76  1  0
 28 29  1  0
 28 34  1  0
 28 77  1  6
 29 30  2  0
 29 31  1  6
 31 32  1  0
 31 33  1  0
 32 78  1  0
 32 79  1  0
 32 80  1  0
 33 81  1  0
 33 82  1  0
 33 83  1  0
 34 44  1  0
 34 35  1  1
 35 36  1  0
 35 84  1  0
 35 85  1  0
 36 37  1  0
 36 38  1  0
 36 86  1  1
 37 87  1  0
 37 88  1  0
 37 97  1  0
 38 39  1  1
 38 40  1  0
 39 89  1  0
 39 90  1  0
 39 91  1  0
 40 41  2  0
 40 42  1  0
 42 43  1  6
 42 44  1  0
 43 92  1  0
 44 45  1  0
 44 93  1  6
 45 94  1  0
 46 47  1  0
 46 95  1  1
 47 96  1  0
M  CHG  1  37   1
M  END
>  <i_m_ct_stereo_status>  (19) 
1

>  <s_m_source_file>  (19) 
/var/tmp/pbs.5075288.sched01/tmpye5xf5zc/0p3ozm_yu.sdf

>  <i_m_source_file_index>  (19) 
48

>  <i_lp_mmshare_version>  (19) 
48012

>  <i_f3d_flags>  (19) 
0

>  <s_epik_input>  (19) 
Tz1DMVtDQEBdKFtPSF0pKFtDQEhdMltPSF0pW0NAXShbQ0gyXU8zKShbQ0gzXSlbQ0BIXShbQ0BAXTQoW0NIM10pW09IXSlbQ0BASF0zW0NAQF0oT0MoPU8pW0NIM10pKEMyNVtDSDJdW0NAQEhdKFtOSDJdKVtDQEBdMShbQ0BAXTQ2NylbQ0gzXSlbQ0BIXShDKE82KShbQ0gzXSlbQ0gzXSlbQ0BIXThbQ0gyXVtDQEBIXTlbQ0BIXShbQ0BIXThbT0hdKU9bQ0BdOShbQ0gzXSlbQ0BASF01W1MrXShbTy1dKUM3KFtDSDNdKVtDSDNd

>  <s_epik_cmdline>  (19) 
J2VwaWtfcHl0aG9uJywgJy1waHQnLCAnMi4wJywgJy1waCcsICc3LjAnLCAnLXRuJywgJzgnLCAnLW1hJywgJzIwMCcsICctaW1hZScsICc8aW5maWxlLm1hZT4nLCAnLW9tYWUnLCAnPG91dGZpbGUubWFlPic=

>  <r_epik_Ionization_Penalty>  (19) 
0.0151088

>  <r_epik_Ionization_Penalty_Charging>  (19) 
0.0151082

>  <r_epik_Ionization_Penalty_Neutral>  (19) 
5.23371e-07

>  <r_epik_State_Penalty>  (19) 
0.0118548

>  <r_epik_Charging_Adjusted_Penalty>  (19) 
0.026963

>  <i_epik_Tot_Q>  (19) 
1

>  <i_epik_Tot_abs_Q>  (19) 
3

>  <s_epik_Chemistry_Notes>  (19) 
This compound has an ester and may undergo hydrolysis at high or low pH.

>  <s_lp_Force_Field>  (19) 
OPLS3e

>  <r_lp_Energy>  (19) 
969.756

>  <b_lp_Chiralities_Consistent>  (19) 
1

>  <s_lp_Variant>  (19) 
19:0-2

>  <s_i_glide_gridfile>  (19) 
pfpi4k_grid

>  <i_i_glide_lignum>  (19) 
48

>  <i_i_glide_rotatable_bonds>  (19) 
6

>  <r_i_docking_score>  (19) 
-4.03587

>  <r_i_glide_ligand_efficiency>  (19) 
-0.0858696

>  <r_i_glide_ligand_efficiency_sa>  (19) 
-0.309888

>  <r_i_glide_ligand_efficiency_ln>  (19) 
-0.832113

>  <r_i_glide_gscore>  (19) 
-4.03587

>  <r_i_glide_lipo>  (19) 
-0.0888395

>  <r_i_glide_hbond>  (19) 
-0.212884

>  <r_i_glide_metal>  (19) 
-0

>  <r_i_glide_rewards>  (19) 
-0.5

>  <r_i_glide_evdw>  (19) 
-25.4144

>  <r_i_glide_ecoul>  (19) 
-12.3986

>  <r_i_glide_erotb>  (19) 
0.0460866

>  <r_i_glide_esite>  (19) 
-0.149721

>  <r_i_glide_emodel>  (19) 
-49.6724

>  <r_i_glide_energy>  (19) 
-37.813

>  <r_i_glide_einternal>  (19) 
8.92303

>  <r_i_glide_intrahb_reward>  (19) 
-0.5

>  <i_i_glide_confnum>  (19) 
4

>  <i_i_glide_posenum>  (19) 
16

>  <r_i_glide_eff_state_penalty>  (19) 
0

>  <ligand_id>  (19) 
19

>  <original_smiles>  (19) 
CC(=O)OC12C3OCC4(C)C3C(C)(O)C35OC(C)(C)C1C1CC6C(OC6(C)C([S+]([O-])C3(C)C)C23CC(N)C5(C)C(=O)C4(O)C3O)C1O

>  <smiles>  (19) 
[H]OC1([H])C2([H])OC3(C([H])([H])[H])C4([H])S(=O)C(C([H])([H])[H])(C([H])([H])[H])C56OC(C([H])([H])[H])(C([H])([H])[H])C([H])(C1([H])C([H])([H])C23[H])C1(OC(=O)C([H])([H])[H])C2([H])OC([H])([H])C(C([H])([H])[H])(C3(O[H])C(=O)C5(C([H])([H])[H])C([H])([N+]([H])([H])[H])C([H])([H])C41C3([H])O[H])C2([H])C6(O[H])C([H])([H])[H]

$$$$
19:1:1
     RDKit          3D

 97105  0  0  1  0  0  0  0  0999 V2000
    4.6081   -4.8059   -0.0500 C   0  0  0  0  0  0  0  0  0  0  0  0
    4.3821   -5.9295    0.9558 C   0  0  0  0  0  0  0  0  0  0  0  0
    4.8869   -7.0326    0.7906 O   0  0  0  0  0  0  0  0  0  0  0  0
    3.6077   -5.5346    1.9854 O   0  0  0  0  0  0  0  0  0  0  0  0
    3.1535   -6.3454    3.0953 C   0  0  1  0  0  0  0  0  0  0  0  0
    2.5939   -5.1744    4.3470 C   0  0  2  0  0  0  0  0  0  0  0  0
    2.8664   -3.8061    4.0093 O   0  0  0  0  0  0  0  0  0  0  0  0
    3.5813   -3.1392    5.0683 C   0  0  0  0  0  0  0  0  0  0  0  0
    4.1129   -4.1669    6.1170 C   0  0  1  0  0  0  0  0  0  0  0  0
    4.2603   -3.3443    7.4298 C   0  0  0  0  0  0  0  0  0  0  0  0
    3.0127   -5.1911    5.9920 C   0  0  2  0  0  0  0  0  0  0  0  0
    3.2860   -6.5062    6.9640 C   0  0  1  0  0  0  0  0  0  0  0  0
    3.7281   -6.0919    8.4478 C   0  0  0  0  0  0  0  0  0  0  0  0
    1.9725   -6.4988    7.5479 O   0  0  0  0  0  0  0  0  0  0  0  0
    4.0602   -8.0267    6.3933 C   0  0  2  0  0  0  0  0  0  0  0  0
    4.0196   -9.0738    5.1083 O   0  0  0  0  0  0  0  0  0  0  0  0
    3.5017   -9.3595    3.6108 C   0  0  0  0  0  0  0  0  0  0  0  0
    4.5635  -10.1759    2.7345 C   0  0  0  0  0  0  0  0  0  0  0  0
    2.6552  -10.6788    3.8372 C   0  0  0  0  0  0  0  0  0  0  0  0
    2.8980   -8.0141    2.6150 C   0  0  2  0  0  0  0  0  0  0  0  0
    1.6383   -8.4889    1.6866 C   0  0  1  0  0  0  0  0  0  0  0  0
    0.4500   -9.1674    2.4912 C   0  0  0  0  0  0  0  0  0  0  0  0
   -0.2227   -8.0930    3.3118 C   0  0  2  0  0  0  0  0  0  0  0  0
   -0.2669   -6.9860    2.3007 C   0  0  1  0  0  0  0  0  0  0  0  0
    0.3474   -6.0860    3.2106 O   0  0  0  0  0  0  0  0  0  0  0  0
    0.5176   -7.0802    4.2731 C   0  0  1  0  0  0  0  0  0  0  0  0
   -0.3824   -6.4732    5.3570 C   0  0  0  0  0  0  0  0  0  0  0  0
    2.0777   -7.4588    4.8981 C   0  0  2  0  0  0  0  0  0  0  0  0
    1.7655   -8.8915    6.2253 S   0  0  0  0  0  0  0  0  0  0  0  0
    0.5862   -8.6275    7.1795 O   0  0  0  0  0  0  0  0  0  0  0  0
    3.3438   -9.1618    7.1886 C   0  0  0  0  0  0  0  0  0  0  0  0
    3.8517  -10.6390    7.0302 C   0  0  0  0  0  0  0  0  0  0  0  0
    2.9954   -9.0883    8.7022 C   0  0  0  0  0  0  0  0  0  0  0  0
    3.9353   -6.7729    4.1737 C   0  0  1  0  0  0  0  0  0  0  0  0
    5.3751   -7.5133    3.8183 C   0  0  0  0  0  0  0  0  0  0  0  0
    6.2616   -8.0460    4.9901 C   0  0  1  0  0  0  0  0  0  0  0  0
    7.6563   -7.6752    4.8136 N   0  0  0  0  0  0  0  0  0  0  0  0
    5.6365   -7.6687    6.3815 C   0  0  2  0  0  0  0  0  0  0  0  0
    6.3629   -8.5108    7.4658 C   0  0  0  0  0  0  0  0  0  0  0  0
    6.0224   -6.1269    6.5792 C   0  0  0  0  0  0  0  0  0  0  0  0
    6.9356   -5.8494    7.3614 O   0  0  0  0  0  0  0  0  0  0  0  0
    5.4048   -4.9448    5.7341 C   0  0  2  0  0  0  0  0  0  0  0  0
    6.3658   -3.8981    5.7302 O   0  0  0  0  0  0  0  0  0  0  0  0
    5.0449   -5.4524    4.3461 C   0  0  1  0  0  0  0  0  0  0  0  0
    6.2223   -5.1637    3.5760 O   0  0  0  0  0  0  0  0  0  0  0  0
    0.6694   -7.3679    1.1363 C   0  0  1  0  0  0  0  0  0  0  0  0
    1.2245   -6.2328    0.4983 O   0  0  0  0  0  0  0  0  0  0  0  0
    3.6496   -4.4861   -0.4627 H   0  0  0  0  0  0  0  0  0  0  0  0
    5.2347   -5.1503   -0.8707 H   0  0  0  0  0  0  0  0  0  0  0  0
    5.0847   -3.9498    0.4215 H   0  0  0  0  0  0  0  0  0  0  0  0
    1.5538   -4.9007    4.4235 H   0  0  0  0  0  0  0  0  0  0  0  0
    4.3803   -2.5278    4.6442 H   0  0  0  0  0  0  0  0  0  0  0  0
    2.8801   -2.4408    5.5386 H   0  0  0  0  0  0  0  0  0  0  0  0
    4.9229   -3.7961    8.1734 H   0  0  0  0  0  0  0  0  0  0  0  0
    3.3020   -3.1381    7.8876 H   0  0  0  0  0  0  0  0  0  0  0  0
    4.7157   -2.3743    7.2222 H   0  0  0  0  0  0  0  0  0  0  0  0
    2.1837   -4.6228    6.4419 H   0  0  0  0  0  0  0  0  0  0  0  0
    4.7778   -5.9118    8.6536 H   0  0  0  0  0  0  0  0  0  0  0  0
    3.4943   -6.7874    9.2426 H   0  0  0  0  0  0  0  0  0  0  0  0
    3.2300   -5.1830    8.8020 H   0  0  0  0  0  0  0  0  0  0  0  0
    1.3615   -7.0157    7.0453 H   0  0  0  0  0  0  0  0  0  0  0  0
    4.7065   -9.6936    1.7682 H   0  0  0  0  0  0  0  0  0  0  0  0
    4.3603  -11.2108    2.4729 H   0  0  0  0  0  0  0  0  0  0  0  0
    5.5276  -10.2433    3.2434 H   0  0  0  0  0  0  0  0  0  0  0  0
    2.3278  -11.1262    2.8993 H   0  0  0  0  0  0  0  0  0  0  0  0
    1.7944  -10.6545    4.4724 H   0  0  0  0  0  0  0  0  0  0  0  0
    3.2711  -11.4276    4.3348 H   0  0  0  0  0  0  0  0  0  0  0  0
    2.0548   -7.4971    2.7630 H   0  0  0  0  0  0  0  0  0  0  0  0
    2.0088   -9.1346    0.8895 H   0  0  0  0  0  0  0  0  0  0  0  0
   -0.2817   -9.5216    1.7593 H   0  0  0  0  0  0  0  0  0  0  0  0
    0.5472  -10.0847    3.0304 H   0  0  0  0  0  0  0  0  0  0  0  0
   -1.2335   -8.3381    3.6525 H   0  0  0  0  0  0  0  0  0  0  0  0
   -1.2911   -6.7033    2.0313 H   0  0  0  0  0  0  0  0  0  0  0  0
   -0.6547   -7.2527    6.0259 H   0  0  0  0  0  0  0  0  0  0  0  0
   -1.3045   -6.1069    4.9230 H   0  0  0  0  0  0  0  0  0  0  0  0
    0.0858   -5.6699    5.9053 H   0  0  0  0  0  0  0  0  0  0  0  0
    1.7878   -8.4203    4.5368 H   0  0  0  0  0  0  0  0  0  0  0  0
    4.2859  -11.0087    7.9661 H   0  0  0  0  0  0  0  0  0  0  0  0
    4.6295  -10.8418    6.2980 H   0  0  0  0  0  0  0  0  0  0  0  0
    3.0112  -11.2896    6.7989 H   0  0  0  0  0  0  0  0  0  0  0  0
    3.8724   -8.9118    9.3227 H   0  0  0  0  0  0  0  0  0  0  0  0
    2.5748  -10.0322    9.0390 H   0  0  0  0  0  0  0  0  0  0  0  0
    2.2120   -8.3895    8.9720 H   0  0  0  0  0  0  0  0  0  0  0  0
    5.3600   -8.1508    2.9917 H   0  0  0  0  0  0  0  0  0  0  0  0
    6.0630   -7.1729    3.0360 H   0  0  0  0  0  0  0  0  0  0  0  0
    6.3008   -9.1298    4.9405 H   0  0  0  0  0  0  0  0  0  0  0  0
    7.7757   -6.6601    4.7933 H   0  0  0  0  0  0  0  0  0  0  0  0
    8.0028   -8.0422    3.9276 H   0  0  0  0  0  0  0  0  0  0  0  0
    6.3096   -9.5830    7.2558 H   0  0  0  0  0  0  0  0  0  0  0  0
    5.9380   -8.3414    8.4582 H   0  0  0  0  0  0  0  0  0  0  0  0
    7.4346   -8.2806    7.5358 H   0  0  0  0  0  0  0  0  0  0  0  0
    7.1020   -4.2200    5.2522 H   0  0  0  0  0  0  0  0  0  0  0  0
    4.8082   -4.6227    3.7091 H   0  0  0  0  0  0  0  0  0  0  0  0
    5.9639   -5.0471    2.6692 H   0  0  0  0  0  0  0  0  0  0  0  0
    0.0484   -7.8139    0.3656 H   0  0  0  0  0  0  0  0  0  0  0  0
    1.9114   -6.5153   -0.0793 H   0  0  0  0  0  0  0  0  0  0  0  0
    8.2316   -8.0532    5.5703 H   0  0  0  0  0  0  0  0  0  0  0  0
  1  2  1  0
  1 48  1  0
  1 49  1  0
  1 50  1  0
  2  3  2  0
  2  4  1  0
  5  4  1  6
  5 20  1  0
  5 34  1  0
  5  6  1  0
  6 11  1  0
  6  7  1  0
  6 51  1  1
  7  8  1  0
  8  9  1  0
  8 52  1  0
  8 53  1  0
  9 42  1  0
  9 10  1  1
  9 11  1  0
 10 54  1  0
 10 55  1  0
 10 56  1  0
 11 12  1  0
 11 57  1  1
 12 13  1  0
 12 14  1  1
 12 15  1  0
 13 58  1  0
 13 59  1  0
 13 60  1  0
 14 61  1  0
 15 31  1  0
 15 38  1  0
 15 16  1  6
 16 17  1  0
 17 18  1  0
 17 19  1  0
 17 20  1  0
 18 62  1  0
 18 63  1  0
 18 64  1  0
 19 65  1  0
 19 66  1  0
 19 67  1  0
 20 21  1  0
 20 68  1  6
 21 46  1  0
 21 22  1  0
 21 69  1  6
 22 23  1  0
 22 70  1  0
 22 71  1  0
 23 26  1  0
 23 24  1  0
 23 72  1  1
 24 25  1  0
 24 46  1  0
 24 73  1  6
 25 26  1  0
 26 27  1  1
 26 28  1  0
 27 74  1  0
 27 75  1  0
 27 76  1  0
 28 29  1  0
 28 34  1  0
 28 77  1  1
 29 30  2  0
 29 31  1  1
 31 32  1  0
 31 33  1  0
 32 78  1  0
 32 79  1  0
 32 80  1  0
 33 81  1  0
 33 82  1  0
 33 83  1  0
 34 44  1  0
 34 35  1  6
 35 36  1  0
 35 84  1  0
 35 85  1  0
 36 37  1  0
 36 38  1  0
 36 86  1  1
 37 87  1  0
 37 88  1  0
 37 97  1  0
 38 39  1  1
 38 40  1  0
 39 89  1  0
 39 90  1  0
 39 91  1  0
 40 41  2  0
 40 42  1  0
 42 43  1  6
 42 44  1  0
 43 92  1  0
 44 45  1  0
 44 93  1  6
 45 94  1  0
 46 47  1  0
 46 95  1  6
 47 96  1  0
M  CHG  1  37   1
M  END
>  <i_m_ct_stereo_status>  (20) 
1

>  <s_m_source_file>  (20) 
/var/tmp/pbs.5075288.sched01/tmpye5xf5zc/0p3ozm_yu.sdf

>  <i_m_source_file_index>  (20) 
48

>  <i_lp_mmshare_version>  (20) 
48012

>  <i_f3d_flags>  (20) 
0

>  <s_epik_input>  (20) 
Tz1DMVtDQEBdKFtPSF0pKFtDQEhdMltPSF0pW0NAXShbQ0gyXU8zKShbQ0gzXSlbQ0BIXShbQ0BAXTQoW0NIM10pW09IXSlbQ0BASF0zW0NAQF0oT0MoPU8pW0NIM10pKEMyNVtDSDJdW0NAQEhdKFtOSDJdKVtDQEBdMShbQ0BAXTQ2NylbQ0gzXSlbQ0BIXShDKE82KShbQ0gzXSlbQ0gzXSlbQ0BIXThbQ0gyXVtDQEBIXTlbQ0BIXShbQ0BIXThbT0hdKU9bQ0BdOShbQ0gzXSlbQ0BASF01W1MrXShbTy1dKUM3KFtDSDNdKVtDSDNd

>  <s_epik_cmdline>  (20) 
J2VwaWtfcHl0aG9uJywgJy1waHQnLCAnMi4wJywgJy1waCcsICc3LjAnLCAnLXRuJywgJzgnLCAnLW1hJywgJzIwMCcsICctaW1hZScsICc8aW5maWxlLm1hZT4nLCAnLW9tYWUnLCAnPG91dGZpbGUubWFlPic=

>  <r_epik_Ionization_Penalty>  (20) 
0.0151088

>  <r_epik_Ionization_Penalty_Charging>  (20) 
0.0151082

>  <r_epik_Ionization_Penalty_Neutral>  (20) 
5.23371e-07

>  <r_epik_State_Penalty>  (20) 
0.0118548

>  <r_epik_Charging_Adjusted_Penalty>  (20) 
0.026963

>  <i_epik_Tot_Q>  (20) 
1

>  <i_epik_Tot_abs_Q>  (20) 
3

>  <s_epik_Chemistry_Notes>  (20) 
This compound has an ester and may undergo hydrolysis at high or low pH.

>  <s_lp_Force_Field>  (20) 
OPLS3e

>  <r_lp_Energy>  (20) 
969.756

>  <b_lp_Chiralities_Consistent>  (20) 
1

>  <s_lp_Variant>  (20) 
19:0-2

>  <s_i_glide_gridfile>  (20) 
pfpi4k_grid

>  <i_i_glide_lignum>  (20) 
48

>  <i_i_glide_rotatable_bonds>  (20) 
6

>  <r_i_docking_score>  (20) 
-2.64396

>  <r_i_glide_ligand_efficiency>  (20) 
-0.0562544

>  <r_i_glide_ligand_efficiency_sa>  (20) 
-0.203012

>  <r_i_glide_ligand_efficiency_ln>  (20) 
-0.54513

>  <r_i_glide_gscore>  (20) 
-2.64396

>  <r_i_glide_lipo>  (20) 
-0.000705675

>  <r_i_glide_hbond>  (20) 
-0.0673094

>  <r_i_glide_metal>  (20) 
-0

>  <r_i_glide_rewards>  (20) 
-0.607576

>  <r_i_glide_evdw>  (20) 
-21.2079

>  <r_i_glide_ecoul>  (20) 
-6.12366

>  <r_i_glide_erotb>  (20) 
0.0460866

>  <r_i_glide_esite>  (20) 
-0.0355078

>  <r_i_glide_emodel>  (20) 
-39.4166

>  <r_i_glide_energy>  (20) 
-27.3316

>  <r_i_glide_einternal>  (20) 
4.51162

>  <r_i_glide_intrahb_reward>  (20) 
-0.5

>  <i_i_glide_confnum>  (20) 
4

>  <i_i_glide_posenum>  (20) 
4

>  <r_i_glide_eff_state_penalty>  (20) 
0

>  <ligand_id>  (20) 
19

>  <original_smiles>  (20) 
CC(=O)OC12C3OCC4(C)C3C(C)(O)C35OC(C)(C)C1C1CC6C(OC6(C)C([S+]([O-])C3(C)C)C23CC(N)C5(C)C(=O)C4(O)C3O)C1O

>  <smiles>  (20) 
[H]OC1([H])C2([H])OC3(C([H])([H])[H])C4([H])S(=O)C(C([H])([H])[H])(C([H])([H])[H])C56OC(C([H])([H])[H])(C([H])([H])[H])C([H])(C1([H])C([H])([H])C23[H])C1(OC(=O)C([H])([H])[H])C2([H])OC([H])([H])C(C([H])([H])[H])(C3(O[H])C(=O)C5(C([H])([H])[H])C([H])([N+]([H])([H])[H])C([H])([H])C41C3([H])O[H])C2([H])C6(O[H])C([H])([H])[H]

$$$$
19:1:2
     RDKit          3D

 97105  0  0  1  0  0  0  0  0999 V2000
   -1.2411   -8.1476    2.4652 C   0  0  0  0  0  0  0  0  0  0  0  0
    0.1373   -8.4064    3.0823 C   0  0  0  0  0  0  0  0  0  0  0  0
    0.7622   -9.4257    2.8319 O   0  0  0  0  0  0  0  0  0  0  0  0
    0.5112   -7.3787    3.8852 O   0  0  0  0  0  0  0  0  0  0  0  0
    1.7475   -7.2752    4.6315 C   0  0  1  0  0  0  0  0  0  0  0  0
    1.7916   -5.5710    5.2383 C   0  0  2  0  0  0  0  0  0  0  0  0
    0.6868   -4.7689    4.7803 O   0  0  0  0  0  0  0  0  0  0  0  0
    1.1457   -3.5529    4.1658 C   0  0  0  0  0  0  0  0  0  0  0  0
    2.6851   -3.6011    3.8946 C   0  0  1  0  0  0  0  0  0  0  0  0
    3.1207   -2.1042    3.8803 C   0  0  0  0  0  0  0  0  0  0  0  0
    3.0761   -4.4777    5.0663 C   0  0  2  0  0  0  0  0  0  0  0  0
    4.7056   -4.7876    5.0947 C   0  0  1  0  0  0  0  0  0  0  0  0
    5.5855   -3.4732    4.8583 C   0  0  0  0  0  0  0  0  0  0  0  0
    4.8571   -4.4423    6.4715 O   0  0  0  0  0  0  0  0  0  0  0  0
    5.4310   -6.2818    4.4081 C   0  0  2  0  0  0  0  0  0  0  0  0
    5.1804   -7.9161    4.3420 O   0  0  0  0  0  0  0  0  0  0  0  0
    4.1862   -9.1419    4.6606 C   0  0  0  0  0  0  0  0  0  0  0  0
    4.2814  -10.3045    3.5694 C   0  0  0  0  0  0  0  0  0  0  0  0
    5.0742   -9.9956    5.6588 C   0  0  0  0  0  0  0  0  0  0  0  0
    2.4688   -8.8328    4.9774 C   0  0  2  0  0  0  0  0  0  0  0  0
    1.8793   -9.8522    6.1084 C   0  0  1  0  0  0  0  0  0  0  0  0
    2.6926   -9.8373    7.4760 C   0  0  0  0  0  0  0  0  0  0  0  0
    2.4411   -8.5173    8.1564 C   0  0  2  0  0  0  0  0  0  0  0  0
    0.9589   -8.3549    7.9051 C   0  0  1  0  0  0  0  0  0  0  0  0
    1.1695   -7.0586    7.3680 O   0  0  0  0  0  0  0  0  0  0  0  0
    2.6321   -7.0922    7.4878 C   0  0  1  0  0  0  0  0  0  0  0  0
    2.8713   -5.9648    8.5056 C   0  0  0  0  0  0  0  0  0  0  0  0
    3.6180   -6.9128    6.0711 C   0  0  2  0  0  0  0  0  0  0  0  0
    5.4723   -7.1046    6.7150 S   0  0  0  0  0  0  0  0  0  0  0  0
    5.8080   -6.3551    8.0137 O   0  0  0  0  0  0  0  0  0  0  0  0
    6.6371   -6.6094    5.3415 C   0  0  0  0  0  0  0  0  0  0  0  0
    7.5962   -7.8009    4.9839 C   0  0  0  0  0  0  0  0  0  0  0  0
    7.6245   -5.5579    5.9221 C   0  0  0  0  0  0  0  0  0  0  0  0
    2.9473   -6.8414    4.0714 C   0  0  1  0  0  0  0  0  0  0  0  0
    3.4353   -7.5824    2.6586 C   0  0  0  0  0  0  0  0  0  0  0  0
    4.8116   -7.1667    2.0151 C   0  0  1  0  0  0  0  0  0  0  0  0
    4.7083   -6.9677    0.5764 N   0  0  0  0  0  0  0  0  0  0  0  0
    5.4751   -5.9823    2.8129 C   0  0  2  0  0  0  0  0  0  0  0  0
    6.9552   -5.8717    2.3440 C   0  0  0  0  0  0  0  0  0  0  0  0
    4.6717   -4.7016    2.3107 C   0  0  0  0  0  0  0  0  0  0  0  0
    5.2489   -3.9290    1.5400 O   0  0  0  0  0  0  0  0  0  0  0  0
    3.1567   -4.4076    2.6415 C   0  0  2  0  0  0  0  0  0  0  0  0
    2.6405   -3.6313    1.5668 O   0  0  0  0  0  0  0  0  0  0  0  0
    2.4128   -5.7209    2.8457 C   0  0  1  0  0  0  0  0  0  0  0  0
    1.7349   -5.9742    1.5777 O   0  0  0  0  0  0  0  0  0  0  0  0
    0.5442   -9.4208    6.8415 C   0  0  1  0  0  0  0  0  0  0  0  0
   -0.5483   -9.0581    6.0338 O   0  0  0  0  0  0  0  0  0  0  0  0
   -1.9868   -8.0024    3.2453 H   0  0  0  0  0  0  0  0  0  0  0  0
   -1.5426   -8.9886    1.8487 H   0  0  0  0  0  0  0  0  0  0  0  0
   -1.2015   -7.2580    1.8460 H   0  0  0  0  0  0  0  0  0  0  0  0
    1.4741   -5.3518    6.2418 H   0  0  0  0  0  0  0  0  0  0  0  0
    0.5834   -3.3537    3.2561 H   0  0  0  0  0  0  0  0  0  0  0  0
    0.8892   -2.7422    4.8498 H   0  0  0  0  0  0  0  0  0  0  0  0
    4.0837   -1.9231    3.3985 H   0  0  0  0  0  0  0  0  0  0  0  0
    3.1455   -1.6727    4.8824 H   0  0  0  0  0  0  0  0  0  0  0  0
    2.4122   -1.4972    3.3124 H   0  0  0  0  0  0  0  0  0  0  0  0
    2.8741   -3.7864    5.8982 H   0  0  0  0  0  0  0  0  0  0  0  0
    5.8177   -3.1828    3.8426 H   0  0  0  0  0  0  0  0  0  0  0  0
    6.5699   -3.4636    5.2989 H   0  0  0  0  0  0  0  0  0  0  0  0
    5.1423   -2.5748    5.2976 H   0  0  0  0  0  0  0  0  0  0  0  0
    5.7384   -4.5882    6.7574 H   0  0  0  0  0  0  0  0  0  0  0  0
    3.2874  -10.5860    3.2154 H   0  0  0  0  0  0  0  0  0  0  0  0
    4.7050  -11.2687    3.8434 H   0  0  0  0  0  0  0  0  0  0  0  0
    4.8810  -10.0060    2.7072 H   0  0  0  0  0  0  0  0  0  0  0  0
    4.6319  -10.9695    5.8850 H   0  0  0  0  0  0  0  0  0  0  0  0
    5.3593   -9.5772    6.6053 H   0  0  0  0  0  0  0  0  0  0  0  0
    6.0462  -10.2093    5.2091 H   0  0  0  0  0  0  0  0  0  0  0  0
    2.0813   -8.3773    5.7780 H   0  0  0  0  0  0  0  0  0  0  0  0
    1.8030  -10.8562    5.6916 H   0  0  0  0  0  0  0  0  0  0  0  0
    2.2765  -10.6078    8.1346 H   0  0  0  0  0  0  0  0  0  0  0  0
    3.7141  -10.1507    7.5533 H   0  0  0  0  0  0  0  0  0  0  0  0
    2.6617   -8.5014    9.2288 H   0  0  0  0  0  0  0  0  0  0  0  0
    0.3586   -8.3431    8.8161 H   0  0  0  0  0  0  0  0  0  0  0  0
    3.7936   -6.0938    9.0651 H   0  0  0  0  0  0  0  0  0  0  0  0
    2.0889   -5.9581    9.2709 H   0  0  0  0  0  0  0  0  0  0  0  0
    2.8675   -4.9811    8.0499 H   0  0  0  0  0  0  0  0  0  0  0  0
    3.9384   -7.8761    6.3992 H   0  0  0  0  0  0  0  0  0  0  0  0
    8.5927   -7.4326    4.7326 H   0  0  0  0  0  0  0  0  0  0  0  0
    7.3390   -8.4208    4.1278 H   0  0  0  0  0  0  0  0  0  0  0  0
    7.7271   -8.4592    5.8412 H   0  0  0  0  0  0  0  0  0  0  0  0
    8.1269   -5.0227    5.1238 H   0  0  0  0  0  0  0  0  0  0  0  0
    8.4243   -6.0436    6.4783 H   0  0  0  0  0  0  0  0  0  0  0  0
    7.2288   -4.8688    6.6607 H   0  0  0  0  0  0  0  0  0  0  0  0
    3.2455   -8.6096    2.6194 H   0  0  0  0  0  0  0  0  0  0  0  0
    2.7543   -7.7953    1.8476 H   0  0  0  0  0  0  0  0  0  0  0  0
    5.4985   -8.0080    2.0861 H   0  0  0  0  0  0  0  0  0  0  0  0
    4.1057   -6.2016    0.3153 H   0  0  0  0  0  0  0  0  0  0  0  0
    4.3816   -7.8232    0.1362 H   0  0  0  0  0  0  0  0  0  0  0  0
    7.5053   -6.8042    2.4790 H   0  0  0  0  0  0  0  0  0  0  0  0
    7.4939   -5.0929    2.8806 H   0  0  0  0  0  0  0  0  0  0  0  0
    7.0553   -5.6212    1.2816 H   0  0  0  0  0  0  0  0  0  0  0  0
    1.7846   -3.3298    1.7890 H   0  0  0  0  0  0  0  0  0  0  0  0
    1.3714   -5.5088    2.9261 H   0  0  0  0  0  0  0  0  0  0  0  0
    2.3242   -6.3870    0.9912 H   0  0  0  0  0  0  0  0  0  0  0  0
    0.1670  -10.2902    7.3818 H   0  0  0  0  0  0  0  0  0  0  0  0
   -1.0005   -9.8309    5.6836 H   0  0  0  0  0  0  0  0  0  0  0  0
    5.6249   -6.7543    0.1893 H   0  0  0  0  0  0  0  0  0  0  0  0
  1  2  1  0
  1 48  1  0
  1 49  1  0
  1 50  1  0
  2  3  2  0
  2  4  1  0
  5  4  1  6
  5 20  1  0
  5 34  1  0
  5  6  1  0
  6 11  1  0
  6  7  1  0
  6 51  1  1
  7  8  1  0
  8  9  1  0
  8 52  1  0
  8 53  1  0
  9 42  1  0
  9 10  1  1
  9 11  1  0
 10 54  1  0
 10 55  1  0
 10 56  1  0
 11 12  1  0
 11 57  1  1
 12 13  1  0
 12 14  1  1
 12 15  1  0
 13 58  1  0
 13 59  1  0
 13 60  1  0
 14 61  1  0
 15 31  1  0
 15 38  1  0
 15 16  1  6
 16 17  1  0
 17 18  1  0
 17 19  1  0
 17 20  1  0
 18 62  1  0
 18 63  1  0
 18 64  1  0
 19 65  1  0
 19 66  1  0
 19 67  1  0
 20 21  1  0
 20 68  1  6
 21 46  1  0
 21 22  1  0
 21 69  1  6
 22 23  1  0
 22 70  1  0
 22 71  1  0
 23 26  1  0
 23 24  1  0
 23 72  1  1
 24 25  1  0
 24 46  1  0
 24 73  1  1
 25 26  1  0
 26 27  1  1
 26 28  1  0
 27 74  1  0
 27 75  1  0
 27 76  1  0
 28 29  1  0
 28 34  1  0
 28 77  1  1
 29 30  2  0
 29 31  1  6
 31 32  1  0
 31 33  1  0
 32 78  1  0
 32 79  1  0
 32 80  1  0
 33 81  1  0
 33 82  1  0
 33 83  1  0
 34 44  1  0
 34 35  1  6
 35 36  1  0
 35 84  1  0
 35 85  1  0
 36 37  1  0
 36 38  1  0
 36 86  1  6
 37 87  1  0
 37 88  1  0
 37 97  1  0
 38 39  1  6
 38 40  1  0
 39 89  1  0
 39 90  1  0
 39 91  1  0
 40 41  2  0
 40 42  1  0
 42 43  1  6
 42 44  1  0
 43 92  1  0
 44 45  1  0
 44 93  1  1
 45 94  1  0
 46 47  1  0
 46 95  1  1
 47 96  1  0
M  CHG  1  37   1
M  END
>  <i_m_ct_stereo_status>  (21) 
1

>  <s_m_source_file>  (21) 
/var/tmp/pbs.5075288.sched01/tmpye5xf5zc/0p3ozm_yu.sdf

>  <i_m_source_file_index>  (21) 
48

>  <i_lp_mmshare_version>  (21) 
48012

>  <i_f3d_flags>  (21) 
0

>  <s_epik_input>  (21) 
Tz1DMVtDQEBdKFtPSF0pKFtDQEhdMltPSF0pW0NAXShbQ0gyXU8zKShbQ0gzXSlbQ0BIXShbQ0BAXTQoW0NIM10pW09IXSlbQ0BASF0zW0NAQF0oT0MoPU8pW0NIM10pKEMyNVtDSDJdW0NAQEhdKFtOSDJdKVtDQEBdMShbQ0BAXTQ2NylbQ0gzXSlbQ0BIXShDKE82KShbQ0gzXSlbQ0gzXSlbQ0BIXThbQ0gyXVtDQEBIXTlbQ0BIXShbQ0BIXThbT0hdKU9bQ0BdOShbQ0gzXSlbQ0BASF01W1MrXShbTy1dKUM3KFtDSDNdKVtDSDNd

>  <s_epik_cmdline>  (21) 
J2VwaWtfcHl0aG9uJywgJy1waHQnLCAnMi4wJywgJy1waCcsICc3LjAnLCAnLXRuJywgJzgnLCAnLW1hJywgJzIwMCcsICctaW1hZScsICc8aW5maWxlLm1hZT4nLCAnLW9tYWUnLCAnPG91dGZpbGUubWFlPic=

>  <r_epik_Ionization_Penalty>  (21) 
0.0151088

>  <r_epik_Ionization_Penalty_Charging>  (21) 
0.0151082

>  <r_epik_Ionization_Penalty_Neutral>  (21) 
5.23371e-07

>  <r_epik_State_Penalty>  (21) 
0.0118548

>  <r_epik_Charging_Adjusted_Penalty>  (21) 
0.026963

>  <i_epik_Tot_Q>  (21) 
1

>  <i_epik_Tot_abs_Q>  (21) 
3

>  <s_epik_Chemistry_Notes>  (21) 
This compound has an ester and may undergo hydrolysis at high or low pH.

>  <s_lp_Force_Field>  (21) 
OPLS3e

>  <r_lp_Energy>  (21) 
969.756

>  <b_lp_Chiralities_Consistent>  (21) 
1

>  <s_lp_Variant>  (21) 
19:0-2

>  <s_i_glide_gridfile>  (21) 
pfpi4k_grid

>  <i_i_glide_lignum>  (21) 
48

>  <i_i_glide_rotatable_bonds>  (21) 
6

>  <r_i_docking_score>  (21) 
-2.45434

>  <r_i_glide_ligand_efficiency>  (21) 
-0.0522201

>  <r_i_glide_ligand_efficiency_sa>  (21) 
-0.188453

>  <r_i_glide_ligand_efficiency_ln>  (21) 
-0.506035

>  <r_i_glide_gscore>  (21) 
-2.45434

>  <r_i_glide_lipo>  (21) 
-0.125916

>  <r_i_glide_hbond>  (21) 
0

>  <r_i_glide_metal>  (21) 
-0

>  <r_i_glide_rewards>  (21) 
-0.0155071

>  <r_i_glide_evdw>  (21) 
-21.8442

>  <r_i_glide_ecoul>  (21) 
-8.21699

>  <r_i_glide_erotb>  (21) 
0.0460866

>  <r_i_glide_esite>  (21) 
-0.0342479

>  <r_i_glide_emodel>  (21) 
-37.3445

>  <r_i_glide_energy>  (21) 
-30.0612

>  <r_i_glide_einternal>  (21) 
2.78689

>  <r_i_glide_intrahb_reward>  (21) 
-0

>  <i_i_glide_confnum>  (21) 
4

>  <i_i_glide_posenum>  (21) 
12

>  <r_i_glide_eff_state_penalty>  (21) 
0

>  <ligand_id>  (21) 
19

>  <original_smiles>  (21) 
CC(=O)OC12C3OCC4(C)C3C(C)(O)C35OC(C)(C)C1C1CC6C(OC6(C)C([S+]([O-])C3(C)C)C23CC(N)C5(C)C(=O)C4(O)C3O)C1O

>  <smiles>  (21) 
[H]OC1([H])C2([H])OC3(C([H])([H])[H])C4([H])S(=O)C(C([H])([H])[H])(C([H])([H])[H])C56OC(C([H])([H])[H])(C([H])([H])[H])C([H])(C1([H])C([H])([H])C23[H])C1(OC(=O)C([H])([H])[H])C2([H])OC([H])([H])C(C([H])([H])[H])(C3(O[H])C(=O)C5(C([H])([H])[H])C([H])([N+]([H])([H])[H])C([H])([H])C41C3([H])O[H])C2([H])C6(O[H])C([H])([H])[H]

$$$$
19:2:0
     RDKit          3D

 97105  0  0  1  0  0  0  0  0999 V2000
    0.3416   -3.5759    5.9775 C   0  0  0  0  0  0  0  0  0  0  0  0
    0.3887   -2.2637    6.7704 C   0  0  0  0  0  0  0  0  0  0  0  0
   -0.0780   -2.2069    7.9010 O   0  0  0  0  0  0  0  0  0  0  0  0
    1.0127   -1.2457    6.0541 O   0  0  0  0  0  0  0  0  0  0  0  0
    1.3170    0.1344    6.4578 C   0  0  1  0  0  0  0  0  0  0  0  0
   -0.1019    0.7089    7.0159 C   0  0  2  0  0  0  0  0  0  0  0  0
   -1.2058   -0.0084    6.4747 O   0  0  0  0  0  0  0  0  0  0  0  0
   -2.1218    0.8576    5.9052 C   0  0  0  0  0  0  0  0  0  0  0  0
   -1.3826    2.1757    5.7355 C   0  0  1  0  0  0  0  0  0  0  0  0
   -2.5490    3.2227    5.6667 C   0  0  0  0  0  0  0  0  0  0  0  0
   -0.5666    2.2417    7.0511 C   0  0  2  0  0  0  0  0  0  0  0  0
    0.3488    3.5544    7.4421 C   0  0  1  0  0  0  0  0  0  0  0  0
   -0.4574    4.8857    7.3221 C   0  0  0  0  0  0  0  0  0  0  0  0
    0.4372    3.7211    8.8386 O   0  0  0  0  0  0  0  0  0  0  0  0
    1.7825    3.5148    6.7454 C   0  0  2  0  0  0  0  0  0  0  0  0
    2.0037    2.1687    7.2952 O   0  0  0  0  0  0  0  0  0  0  0  0
    2.2777    1.3645    8.5657 C   0  0  0  0  0  0  0  0  0  0  0  0
    3.5427    1.5148    9.4802 C   0  0  0  0  0  0  0  0  0  0  0  0
    1.2310    1.2895    9.7486 C   0  0  0  0  0  0  0  0  0  0  0  0
    2.3225    0.0166    7.7295 C   0  0  2  0  0  0  0  0  0  0  0  0
    3.6098   -1.0082    7.7694 C   0  0  1  0  0  0  0  0  0  0  0  0
    3.6914   -2.0855    6.6323 C   0  0  0  0  0  0  0  0  0  0  0  0
    4.7009   -1.6018    5.6586 C   0  0  2  0  0  0  0  0  0  0  0  0
    5.8088   -0.9732    6.4332 C   0  0  1  0  0  0  0  0  0  0  0  0
    5.9019    0.1116    5.5091 O   0  0  0  0  0  0  0  0  0  0  0  0
    4.6392   -0.2316    4.9466 C   0  0  1  0  0  0  0  0  0  0  0  0
    4.8304   -0.3671    3.4228 C   0  0  0  0  0  0  0  0  0  0  0  0
    3.7128    1.0211    5.2617 C   0  0  2  0  0  0  0  0  0  0  0  0
    4.4106    2.3176    6.5572 S   0  0  0  0  0  0  0  0  0  0  0  0
    5.7543    2.8654    6.0769 O   0  0  0  0  0  0  0  0  0  0  0  0
    3.3164    3.8514    7.1019 C   0  0  0  0  0  0  0  0  0  0  0  0
    4.0974    5.0705    6.4952 C   0  0  0  0  0  0  0  0  0  0  0  0
    3.4793    4.2870    8.5889 C   0  0  0  0  0  0  0  0  0  0  0  0
    2.0424    0.7834    5.0765 C   0  0  0  0  0  0  0  0  0  0  0  0
    2.2278    1.9528    3.8818 C   0  0  0  0  0  0  0  0  0  0  0  0
    2.5308    3.4318    4.1413 C   0  0  1  0  0  0  0  0  0  0  0  0
    2.5672    4.1672    2.8766 N   0  0  0  0  0  0  0  0  0  0  0  0
    1.5015    3.9656    5.1718 C   0  0  2  0  0  0  0  0  0  0  0  0
    1.5827    5.5500    5.1213 C   0  0  0  0  0  0  0  0  0  0  0  0
    0.1568    3.5649    4.4505 C   0  0  0  0  0  0  0  0  0  0  0  0
   -0.4096    4.3860    3.7103 O   0  0  0  0  0  0  0  0  0  0  0  0
   -0.4246    2.1276    4.4832 C   0  0  2  0  0  0  0  0  0  0  0  0
   -1.3367    1.9978    3.3968 O   0  0  0  0  0  0  0  0  0  0  0  0
    0.6057    0.8449    4.2709 C   0  0  1  0  0  0  0  0  0  0  0  0
    0.5594    0.1362    3.0141 O   0  0  0  0  0  0  0  0  0  0  0  0
    5.1866   -0.7018    7.7924 C   0  0  1  0  0  0  0  0  0  0  0  0
    5.9026    0.2434    8.5502 O   0  0  0  0  0  0  0  0  0  0  0  0
    0.7923   -3.4585    4.9941 H   0  0  0  0  0  0  0  0  0  0  0  0
   -0.6844   -3.9123    5.8548 H   0  0  0  0  0  0  0  0  0  0  0  0
    0.8884   -4.3452    6.5166 H   0  0  0  0  0  0  0  0  0  0  0  0
   -0.2403    0.2827    7.9985 H   0  0  0  0  0  0  0  0  0  0  0  0
   -2.5506    0.4471    4.9953 H   0  0  0  0  0  0  0  0  0  0  0  0
   -2.9346    0.9591    6.6399 H   0  0  0  0  0  0  0  0  0  0  0  0
   -2.2616    4.2199    5.3668 H   0  0  0  0  0  0  0  0  0  0  0  0
   -3.0612    3.3148    6.6277 H   0  0  0  0  0  0  0  0  0  0  0  0
   -3.3131    2.9378    4.9452 H   0  0  0  0  0  0  0  0  0  0  0  0
   -1.3328    2.2669    7.8299 H   0  0  0  0  0  0  0  0  0  0  0  0
   -0.6857    5.2065    6.3169 H   0  0  0  0  0  0  0  0  0  0  0  0
    0.0611    5.7278    7.7796 H   0  0  0  0  0  0  0  0  0  0  0  0
   -1.4235    4.8099    7.8319 H   0  0  0  0  0  0  0  0  0  0  0  0
    0.8748    2.9790    9.1907 H   0  0  0  0  0  0  0  0  0  0  0  0
    3.8270    0.5573    9.9209 H   0  0  0  0  0  0  0  0  0  0  0  0
    3.4142    2.1488   10.3518 H   0  0  0  0  0  0  0  0  0  0  0  0
    4.4196    1.9543    9.0320 H   0  0  0  0  0  0  0  0  0  0  0  0
    1.3728    0.3701   10.3196 H   0  0  0  0  0  0  0  0  0  0  0  0
    0.1782    1.3608    9.5417 H   0  0  0  0  0  0  0  0  0  0  0  0
    1.3698    2.0813   10.4826 H   0  0  0  0  0  0  0  0  0  0  0  0
    1.7165   -0.6042    8.3855 H   0  0  0  0  0  0  0  0  0  0  0  0
    3.4392   -1.5630    8.6868 H   0  0  0  0  0  0  0  0  0  0  0  0
    4.0763   -2.9957    7.0996 H   0  0  0  0  0  0  0  0  0  0  0  0
    2.8423   -2.4637    6.1134 H   0  0  0  0  0  0  0  0  0  0  0  0
    5.0947   -2.3755    5.0073 H   0  0  0  0  0  0  0  0  0  0  0  0
    6.6969   -1.6029    6.4587 H   0  0  0  0  0  0  0  0  0  0  0  0
    3.8873   -0.6435    2.9349 H   0  0  0  0  0  0  0  0  0  0  0  0
    5.5604   -1.1383    3.1764 H   0  0  0  0  0  0  0  0  0  0  0  0
    5.1990    0.5414    2.9701 H   0  0  0  0  0  0  0  0  0  0  0  0
    4.2393    1.6533    4.5652 H   0  0  0  0  0  0  0  0  0  0  0  0
    3.6273    6.0305    6.7054 H   0  0  0  0  0  0  0  0  0  0  0  0
    4.3374    5.0605    5.4420 H   0  0  0  0  0  0  0  0  0  0  0  0
    5.0786    5.1439    6.9600 H   0  0  0  0  0  0  0  0  0  0  0  0
    3.2433    5.3452    8.7213 H   0  0  0  0  0  0  0  0  0  0  0  0
    4.4971    4.1579    8.9494 H   0  0  0  0  0  0  0  0  0  0  0  0
    2.7938    3.8396    9.2845 H   0  0  0  0  0  0  0  0  0  0  0  0
    2.9517    1.5567    3.1557 H   0  0  0  0  0  0  0  0  0  0  0  0
    1.6227    2.0987    2.9690 H   0  0  0  0  0  0  0  0  0  0  0  0
    3.5437    3.5521    4.4640 H   0  0  0  0  0  0  0  0  0  0  0  0
    1.6823    4.1499    2.3760 H   0  0  0  0  0  0  0  0  0  0  0  0
    3.2805    3.7676    2.2696 H   0  0  0  0  0  0  0  0  0  0  0  0
    2.5016    5.9356    4.6858 H   0  0  0  0  0  0  0  0  0  0  0  0
    1.5267    5.9902    6.1148 H   0  0  0  0  0  0  0  0  0  0  0  0
    0.8202    6.0798    4.5639 H   0  0  0  0  0  0  0  0  0  0  0  0
   -0.8862    2.1564    2.5907 H   0  0  0  0  0  0  0  0  0  0  0  0
   -0.0475    0.0501    4.5828 H   0  0  0  0  0  0  0  0  0  0  0  0
    0.9335    0.6423    2.3253 H   0  0  0  0  0  0  0  0  0  0  0  0
    5.5181   -1.5511    8.3962 H   0  0  0  0  0  0  0  0  0  0  0  0
    6.8119    0.1202    8.3888 H   0  0  0  0  0  0  0  0  0  0  0  0
    2.8093    5.1316    3.0367 H   0  0  0  0  0  0  0  0  0  0  0  0
  1  2  1  0
  1 48  1  0
  1 49  1  0
  1 50  1  0
  2  3  2  0
  2  4  1  0
  5  4  1  6
  5 20  1  0
  5 34  1  0
  5  6  1  0
  6 11  1  0
  6  7  1  0
  6 51  1  1
  7  8  1  0
  8  9  1  0
  8 52  1  0
  8 53  1  0
  9 42  1  0
  9 10  1  6
  9 11  1  0
 10 54  1  0
 10 55  1  0
 10 56  1  0
 11 12  1  0
 11 57  1  1
 12 13  1  0
 12 14  1  1
 12 15  1  0
 13 58  1  0
 13 59  1  0
 13 60  1  0
 14 61  1  0
 15 31  1  0
 15 38  1  0
 15 16  1  6
 16 17  1  0
 17 18  1  0
 17 19  1  0
 17 20  1  0
 18 62  1  0
 18 63  1  0
 18 64  1  0
 19 65  1  0
 19 66  1  0
 19 67  1  0
 20 21  1  0
 20 68  1  1
 21 46  1  0
 21 22  1  0
 21 69  1  1
 22 23  1  0
 22 70  1  0
 22 71  1  0
 23 26  1  0
 23 24  1  0
 23 72  1  6
 24 25  1  0
 24 46  1  0
 24 73  1  1
 25 26  1  0
 26 27  1  6
 26 28  1  0
 27 74  1  0
 27 75  1  0
 27 76  1  0
 28 29  1  0
 28 34  1  0
 28 77  1  6
 29 30  2  0
 29 31  1  6
 31 32  1  0
 31 33  1  0
 32 78  1  0
 32 79  1  0
 32 80  1  0
 33 81  1  0
 33 82  1  0
 33 83  1  0
 34 44  1  0
 34 35  1  0
 35 36  1  0
 35 84  1  0
 35 85  1  0
 36 37  1  0
 36 38  1  0
 36 86  1  1
 37 87  1  0
 37 88  1  0
 37 97  1  0
 38 39  1  1
 38 40  1  0
 39 89  1  0
 39 90  1  0
 39 91  1  0
 40 41  2  0
 40 42  1  0
 42 43  1  6
 42 44  1  0
 43 92  1  0
 44 45  1  0
 44 93  1  1
 45 94  1  0
 46 47  1  0
 46 95  1  1
 47 96  1  0
M  CHG  1  37   1
M  END
>  <i_m_ct_stereo_status>  (22) 
1

>  <s_m_source_file>  (22) 
/var/tmp/pbs.5075288.sched01/tmpye5xf5zc/0p3ozm_yu.sdf

>  <i_m_source_file_index>  (22) 
49

>  <i_lp_mmshare_version>  (22) 
48012

>  <i_f3d_flags>  (22) 
0

>  <s_epik_input>  (22) 
Tz1DMVtDQEBdKFtPSF0pKFtDQEhdMltPSF0pW0NAXShbQ0gyXU8zKShbQ0gzXSlbQ0BIXShbQ0BAXTQoW0NIM10pW09IXSlbQ0BASF0zW0NAQF0oT0MoPU8pW0NIM10pKEMyNVtDSDJdW0NAQEhdKFtOSDJdKVtDQEBdMShbQ0BAXTQ2NylbQ0gzXSlbQ0BIXShDKE82KShbQ0gzXSlbQ0gzXSlbQ0BIXThbQ0gyXVtDQEBIXTlbQ0BIXShbQ0BIXThbT0hdKU9bQ0BdOShbQ0gzXSlbQ0BASF01W1MrXShbTy1dKUM3KFtDSDNdKVtDSDNd

>  <s_epik_cmdline>  (22) 
J2VwaWtfcHl0aG9uJywgJy1waHQnLCAnMi4wJywgJy1waCcsICc3LjAnLCAnLXRuJywgJzgnLCAnLW1hJywgJzIwMCcsICctaW1hZScsICc8aW5maWxlLm1hZT4nLCAnLW9tYWUnLCAnPG91dGZpbGUubWFlPic=

>  <r_epik_Ionization_Penalty>  (22) 
0.0151088

>  <r_epik_Ionization_Penalty_Charging>  (22) 
0.0151082

>  <r_epik_Ionization_Penalty_Neutral>  (22) 
5.23371e-07

>  <r_epik_State_Penalty>  (22) 
0.0118548

>  <r_epik_Charging_Adjusted_Penalty>  (22) 
0.026963

>  <i_epik_Tot_Q>  (22) 
1

>  <i_epik_Tot_abs_Q>  (22) 
3

>  <s_epik_Chemistry_Notes>  (22) 
This compound has an ester and may undergo hydrolysis at high or low pH.

>  <s_lp_Force_Field>  (22) 
OPLS3e

>  <r_lp_Energy>  (22) 
546.316

>  <b_lp_Chiralities_Consistent>  (22) 
1

>  <s_lp_Variant>  (22) 
19:0-3

>  <s_i_glide_gridfile>  (22) 
pfpi4k_grid

>  <i_i_glide_lignum>  (22) 
49

>  <i_i_glide_rotatable_bonds>  (22) 
6

>  <r_i_docking_score>  (22) 
-2.886

>  <r_i_glide_ligand_efficiency>  (22) 
-0.0614042

>  <r_i_glide_ligand_efficiency_sa>  (22) 
-0.221597

>  <r_i_glide_ligand_efficiency_ln>  (22) 
-0.595033

>  <r_i_glide_gscore>  (22) 
-2.886

>  <r_i_glide_lipo>  (22) 
-0.200979

>  <r_i_glide_hbond>  (22) 
-0.317241

>  <r_i_glide_metal>  (22) 
-0

>  <r_i_glide_rewards>  (22) 
-0.00325004

>  <r_i_glide_evdw>  (22) 
-23.1052

>  <r_i_glide_ecoul>  (22) 
-7.74714

>  <r_i_glide_erotb>  (22) 
0.0460866

>  <r_i_glide_esite>  (22) 
-0.0932819

>  <r_i_glide_emodel>  (22) 
-37.0288

>  <r_i_glide_energy>  (22) 
-30.8523

>  <r_i_glide_einternal>  (22) 
2.37103

>  <r_i_glide_intrahb_reward>  (22) 
-0

>  <i_i_glide_confnum>  (22) 
3

>  <i_i_glide_posenum>  (22) 
30

>  <r_i_glide_eff_state_penalty>  (22) 
0

>  <ligand_id>  (22) 
19

>  <original_smiles>  (22) 
CC(=O)OC12C3OCC4(C)C3C(C)(O)C35OC(C)(C)C1C1CC6C(OC6(C)C([S+]([O-])C3(C)C)C23CC(N)C5(C)C(=O)C4(O)C3O)C1O

>  <smiles>  (22) 
[H]OC1([H])C2([H])OC3(C([H])([H])[H])C4([H])S(=O)C(C([H])([H])[H])(C([H])([H])[H])C56OC(C([H])([H])[H])(C([H])([H])[H])C([H])(C1([H])C([H])([H])C23[H])C1(OC(=O)C([H])([H])[H])C2([H])OC([H])([H])C(C([H])([H])[H])(C3(O[H])C(=O)C5(C([H])([H])[H])C([H])([N+]([H])([H])[H])C([H])([H])C41C3([H])O[H])C2([H])C6(O[H])C([H])([H])[H]

$$$$
19:2:1
     RDKit          3D

 97105  0  0  1  0  0  0  0  0999 V2000
    4.0253    0.4751    4.0204 C   0  0  0  0  0  0  0  0  0  0  0  0
    2.5260    0.0040    3.9828 C   0  0  0  0  0  0  0  0  0  0  0  0
    2.1201   -0.8285    3.1739 O   0  0  0  0  0  0  0  0  0  0  0  0
    1.6356    0.6049    4.9096 O   0  0  0  0  0  0  0  0  0  0  0  0
    1.8312    1.5809    5.9749 C   0  0  1  0  0  0  0  0  0  0  0  0
    2.9836    0.8703    6.9213 C   0  0  2  0  0  0  0  0  0  0  0  0
    3.0164   -0.5425    6.7271 O   0  0  0  0  0  0  0  0  0  0  0  0
    2.9814   -1.2223    7.9432 C   0  0  0  0  0  0  0  0  0  0  0  0
    2.4793   -0.1657    8.9369 C   0  0  1  0  0  0  0  0  0  0  0  0
    2.9893   -0.7219   10.3087 C   0  0  0  0  0  0  0  0  0  0  0  0
    3.2398    1.0975    8.4774 C   0  0  2  0  0  0  0  0  0  0  0  0
    3.1872    2.5375    9.2693 C   0  0  1  0  0  0  0  0  0  0  0  0
    3.4875    2.3566   10.7855 C   0  0  0  0  0  0  0  0  0  0  0  0
    4.3804    3.2597    9.1087 O   0  0  0  0  0  0  0  0  0  0  0  0
    1.8946    3.3937    8.8752 C   0  0  2  0  0  0  0  0  0  0  0  0
    2.2509    3.2932    7.4636 O   0  0  0  0  0  0  0  0  0  0  0  0
    3.2120    3.7635    6.3763 C   0  0  0  0  0  0  0  0  0  0  0  0
    3.4461    5.2332    5.8909 C   0  0  0  0  0  0  0  0  0  0  0  0
    4.7537    3.3662    6.4090 C   0  0  0  0  0  0  0  0  0  0  0  0
    2.4248    2.9449    5.2829 C   0  0  2  0  0  0  0  0  0  0  0  0
    1.8422    3.5572    3.8748 C   0  0  1  0  0  0  0  0  0  0  0  0
    0.8169    2.6868    3.0974 C   0  0  0  0  0  0  0  0  0  0  0  0
   -0.5235    3.2852    3.3629 C   0  0  2  0  0  0  0  0  0  0  0  0
   -0.3357    4.7700    3.3656 C   0  0  1  0  0  0  0  0  0  0  0  0
   -1.1854    4.8853    4.5400 O   0  0  0  0  0  0  0  0  0  0  0  0
   -1.0926    3.4601    4.7878 C   0  0  1  0  0  0  0  0  0  0  0  0
   -2.5264    2.9230    4.8963 C   0  0  0  0  0  0  0  0  0  0  0  0
   -0.3533    3.3324    6.1923 C   0  0  2  0  0  0  0  0  0  0  0  0
    0.4600    4.9726    6.8936 S   0  0  0  0  0  0  0  0  0  0  0  0
   -0.5928    6.0617    7.0200 O   0  0  0  0  0  0  0  0  0  0  0  0
    1.4878    4.9226    8.5700 C   0  0  0  0  0  0  0  0  0  0  0  0
    0.6092    5.7830    9.5461 C   0  0  0  0  0  0  0  0  0  0  0  0
    2.7376    5.8658    8.6286 C   0  0  0  0  0  0  0  0  0  0  0  0
    0.2795    1.8098    6.5794 C   0  0  0  0  0  0  0  0  0  0  0  0
   -0.8609    1.9238    7.8239 C   0  0  0  0  0  0  0  0  0  0  0  0
   -0.7280    2.8650    9.0172 C   0  0  1  0  0  0  0  0  0  0  0  0
   -1.9027    2.6464    9.9651 N   0  0  0  0  0  0  0  0  0  0  0  0
    0.6413    2.6688    9.6782 C   0  0  2  0  0  0  0  0  0  0  0  0
    0.5877    3.3370   11.1201 C   0  0  0  0  0  0  0  0  0  0  0  0
    0.6265    1.1027    9.9046 C   0  0  0  0  0  0  0  0  0  0  0  0
    0.2385    0.6522   10.9790 O   0  0  0  0  0  0  0  0  0  0  0  0
    0.9228    0.0695    8.7829 C   0  0  2  0  0  0  0  0  0  0  0  0
    0.3623   -1.1752    9.1867 O   0  0  0  0  0  0  0  0  0  0  0  0
    0.2457    0.3217    7.2834 C   0  0  1  0  0  0  0  0  0  0  0  0
   -0.8740   -0.4785    6.8698 O   0  0  0  0  0  0  0  0  0  0  0  0
    1.1547    4.9625    3.5724 C   0  0  1  0  0  0  0  0  0  0  0  0
    1.4683    6.2160    4.1139 O   0  0  0  0  0  0  0  0  0  0  0  0
    4.2367    1.1951    4.7891 H   0  0  0  0  0  0  0  0  0  0  0  0
    4.2515    0.9574    3.0417 H   0  0  0  0  0  0  0  0  0  0  0  0
    4.6686   -0.4056    4.2349 H   0  0  0  0  0  0  0  0  0  0  0  0
    3.9330    0.9869    6.4960 H   0  0  0  0  0  0  0  0  0  0  0  0
    2.3650   -2.1176    7.8745 H   0  0  0  0  0  0  0  0  0  0  0  0
    3.9978   -1.5546    8.1584 H   0  0  0  0  0  0  0  0  0  0  0  0
    2.6132   -0.2169   11.1896 H   0  0  0  0  0  0  0  0  0  0  0  0
    4.0785   -0.6832   10.3707 H   0  0  0  0  0  0  0  0  0  0  0  0
    2.7223   -1.7702   10.4247 H   0  0  0  0  0  0  0  0  0  0  0  0
    4.2902    0.8272    8.5899 H   0  0  0  0  0  0  0  0  0  0  0  0
    2.7053    1.8648   11.3403 H   0  0  0  0  0  0  0  0  0  0  0  0
    3.6574    3.3072   11.2914 H   0  0  0  0  0  0  0  0  0  0  0  0
    4.3859    1.7575   10.9484 H   0  0  0  0  0  0  0  0  0  0  0  0
    4.4657    3.4969    8.1885 H   0  0  0  0  0  0  0  0  0  0  0  0
    3.6850    5.2460    4.8294 H   0  0  0  0  0  0  0  0  0  0  0  0
    4.3042    5.7350    6.3385 H   0  0  0  0  0  0  0  0  0  0  0  0
    2.6529    5.9316    6.0729 H   0  0  0  0  0  0  0  0  0  0  0  0
    5.1765    3.3610    5.4040 H   0  0  0  0  0  0  0  0  0  0  0  0
    5.1005    2.4588    6.8836 H   0  0  0  0  0  0  0  0  0  0  0  0
    5.3623    4.0963    6.9346 H   0  0  0  0  0  0  0  0  0  0  0  0
    3.2867    2.6285    4.8079 H   0  0  0  0  0  0  0  0  0  0  0  0
    2.7021    3.5915    3.1980 H   0  0  0  0  0  0  0  0  0  0  0  0
    1.0423    2.8184    2.0451 H   0  0  0  0  0  0  0  0  0  0  0  0
    0.7506    1.6182    3.1510 H   0  0  0  0  0  0  0  0  0  0  0  0
   -1.2870    2.9887    2.6377 H   0  0  0  0  0  0  0  0  0  0  0  0
   -0.7501    5.2977    2.5041 H   0  0  0  0  0  0  0  0  0  0  0  0
   -2.5070    1.8481    5.0528 H   0  0  0  0  0  0  0  0  0  0  0  0
   -3.1084    3.0842    3.9927 H   0  0  0  0  0  0  0  0  0  0  0  0
   -3.0969    3.3641    5.7095 H   0  0  0  0  0  0  0  0  0  0  0  0
   -1.2036    3.7358    6.7284 H   0  0  0  0  0  0  0  0  0  0  0  0
    1.0314    5.8670   10.5473 H   0  0  0  0  0  0  0  0  0  0  0  0
   -0.4327    5.5178    9.6593 H   0  0  0  0  0  0  0  0  0  0  0  0
    0.5539    6.8138    9.1887 H   0  0  0  0  0  0  0  0  0  0  0  0
    2.9850    6.1586    9.6515 H   0  0  0  0  0  0  0  0  0  0  0  0
    2.5901    6.8007    8.0838 H   0  0  0  0  0  0  0  0  0  0  0  0
    3.6744    5.4291    8.3179 H   0  0  0  0  0  0  0  0  0  0  0  0
   -1.8401    2.0595    7.3648 H   0  0  0  0  0  0  0  0  0  0  0  0
   -1.3814    1.0967    8.3330 H   0  0  0  0  0  0  0  0  0  0  0  0
   -0.9404    3.8683    8.7306 H   0  0  0  0  0  0  0  0  0  0  0  0
   -1.8781    1.7122   10.3539 H   0  0  0  0  0  0  0  0  0  0  0  0
   -2.7653    2.8100    9.4668 H   0  0  0  0  0  0  0  0  0  0  0  0
   -0.2174    4.0580   11.2462 H   0  0  0  0  0  0  0  0  0  0  0  0
    1.4928    3.8886   11.3553 H   0  0  0  0  0  0  0  0  0  0  0  0
    0.4536    2.6831   11.9816 H   0  0  0  0  0  0  0  0  0  0  0  0
    0.7812   -1.4273   10.0061 H   0  0  0  0  0  0  0  0  0  0  0  0
    0.8075   -0.4071    6.7373 H   0  0  0  0  0  0  0  0  0  0  0  0
   -0.7979   -0.6129    5.9325 H   0  0  0  0  0  0  0  0  0  0  0  0
    1.5356    5.1534    2.5648 H   0  0  0  0  0  0  0  0  0  0  0  0
    1.0766    6.8841    3.5553 H   0  0  0  0  0  0  0  0  0  0  0  0
   -1.8468    3.2955   10.7310 H   0  0  0  0  0  0  0  0  0  0  0  0
  1  2  1  0
  1 48  1  0
  1 49  1  0
  1 50  1  0
  2  3  2  0
  2  4  1  0
  5  4  1  6
  5 20  1  0
  5 34  1  0
  5  6  1  0
  6 11  1  0
  6  7  1  0
  6 51  1  6
  7  8  1  0
  8  9  1  0
  8 52  1  0
  8 53  1  0
  9 42  1  0
  9 10  1  1
  9 11  1  0
 10 54  1  0
 10 55  1  0
 10 56  1  0
 11 12  1  0
 11 57  1  6
 12 13  1  0
 12 14  1  6
 12 15  1  0
 13 58  1  0
 13 59  1  0
 13 60  1  0
 14 61  1  0
 15 31  1  0
 15 38  1  0
 15 16  1  6
 16 17  1  0
 17 18  1  0
 17 19  1  0
 17 20  1  0
 18 62  1  0
 18 63  1  0
 18 64  1  0
 19 65  1  0
 19 66  1  0
 19 67  1  0
 20 21  1  0
 20 68  1  6
 21 46  1  0
 21 22  1  0
 21 69  1  6
 22 23  1  0
 22 70  1  0
 22 71  1  0
 23 26  1  0
 23 24  1  0
 23 72  1  6
 24 25  1  0
 24 46  1  0
 24 73  1  6
 25 26  1  0
 26 27  1  1
 26 28  1  0
 27 74  1  0
 27 75  1  0
 27 76  1  0
 28 29  1  0
 28 34  1  0
 28 77  1  1
 29 30  2  0
 29 31  1  1
 31 32  1  0
 31 33  1  0
 32 78  1  0
 32 79  1  0
 32 80  1  0
 33 81  1  0
 33 82  1  0
 33 83  1  0
 34 44  1  0
 34 35  1  0
 35 36  1  0
 35 84  1  0
 35 85  1  0
 36 37  1  0
 36 38  1  0
 36 86  1  6
 37 87  1  0
 37 88  1  0
 37 97  1  0
 38 39  1  1
 38 40  1  0
 39 89  1  0
 39 90  1  0
 39 91  1  0
 40 41  2  0
 40 42  1  0
 42 43  1  1
 42 44  1  0
 43 92  1  0
 44 45  1  0
 44 93  1  6
 45 94  1  0
 46 47  1  0
 46 95  1  6
 47 96  1  0
M  CHG  1  37   1
M  END
>  <i_m_ct_stereo_status>  (23) 
1

>  <s_m_source_file>  (23) 
/var/tmp/pbs.5075288.sched01/tmpye5xf5zc/0p3ozm_yu.sdf

>  <i_m_source_file_index>  (23) 
49

>  <i_lp_mmshare_version>  (23) 
48012

>  <i_f3d_flags>  (23) 
0

>  <s_epik_input>  (23) 
Tz1DMVtDQEBdKFtPSF0pKFtDQEhdMltPSF0pW0NAXShbQ0gyXU8zKShbQ0gzXSlbQ0BIXShbQ0BAXTQoW0NIM10pW09IXSlbQ0BASF0zW0NAQF0oT0MoPU8pW0NIM10pKEMyNVtDSDJdW0NAQEhdKFtOSDJdKVtDQEBdMShbQ0BAXTQ2NylbQ0gzXSlbQ0BIXShDKE82KShbQ0gzXSlbQ0gzXSlbQ0BIXThbQ0gyXVtDQEBIXTlbQ0BIXShbQ0BIXThbT0hdKU9bQ0BdOShbQ0gzXSlbQ0BASF01W1MrXShbTy1dKUM3KFtDSDNdKVtDSDNd

>  <s_epik_cmdline>  (23) 
J2VwaWtfcHl0aG9uJywgJy1waHQnLCAnMi4wJywgJy1waCcsICc3LjAnLCAnLXRuJywgJzgnLCAnLW1hJywgJzIwMCcsICctaW1hZScsICc8aW5maWxlLm1hZT4nLCAnLW9tYWUnLCAnPG91dGZpbGUubWFlPic=

>  <r_epik_Ionization_Penalty>  (23) 
0.0151088

>  <r_epik_Ionization_Penalty_Charging>  (23) 
0.0151082

>  <r_epik_Ionization_Penalty_Neutral>  (23) 
5.23371e-07

>  <r_epik_State_Penalty>  (23) 
0.0118548

>  <r_epik_Charging_Adjusted_Penalty>  (23) 
0.026963

>  <i_epik_Tot_Q>  (23) 
1

>  <i_epik_Tot_abs_Q>  (23) 
3

>  <s_epik_Chemistry_Notes>  (23) 
This compound has an ester and may undergo hydrolysis at high or low pH.

>  <s_lp_Force_Field>  (23) 
OPLS3e

>  <r_lp_Energy>  (23) 
546.316

>  <b_lp_Chiralities_Consistent>  (23) 
1

>  <s_lp_Variant>  (23) 
19:0-3

>  <s_i_glide_gridfile>  (23) 
pfpi4k_grid

>  <i_i_glide_lignum>  (23) 
49

>  <i_i_glide_rotatable_bonds>  (23) 
6

>  <r_i_docking_score>  (23) 
-2.72541

>  <r_i_glide_ligand_efficiency>  (23) 
-0.0579874

>  <r_i_glide_ligand_efficiency_sa>  (23) 
-0.209267

>  <r_i_glide_ligand_efficiency_ln>  (23) 
-0.561923

>  <r_i_glide_gscore>  (23) 
-2.72541

>  <r_i_glide_lipo>  (23) 
-0.00545447

>  <r_i_glide_hbond>  (23) 
-0.0830098

>  <r_i_glide_metal>  (23) 
-0

>  <r_i_glide_rewards>  (23) 
0

>  <r_i_glide_evdw>  (23) 
-17.0518

>  <r_i_glide_ecoul>  (23) 
-11.6834

>  <r_i_glide_erotb>  (23) 
0.0460866

>  <r_i_glide_esite>  (23) 
-0.0779363

>  <r_i_glide_emodel>  (23) 
-31.0486

>  <r_i_glide_energy>  (23) 
-28.7352

>  <r_i_glide_einternal>  (23) 
6.41185

>  <r_i_glide_intrahb_reward>  (23) 
-0

>  <i_i_glide_confnum>  (23) 
1

>  <i_i_glide_posenum>  (23) 
2

>  <r_i_glide_eff_state_penalty>  (23) 
0

>  <ligand_id>  (23) 
19

>  <original_smiles>  (23) 
CC(=O)OC12C3OCC4(C)C3C(C)(O)C35OC(C)(C)C1C1CC6C(OC6(C)C([S+]([O-])C3(C)C)C23CC(N)C5(C)C(=O)C4(O)C3O)C1O

>  <smiles>  (23) 
[H]OC1([H])C2([H])OC3(C([H])([H])[H])C4([H])S(=O)C(C([H])([H])[H])(C([H])([H])[H])C56OC(C([H])([H])[H])(C([H])([H])[H])C([H])(C1([H])C([H])([H])C23[H])C1(OC(=O)C([H])([H])[H])C2([H])OC([H])([H])C(C([H])([H])[H])(C3(O[H])C(=O)C5(C([H])([H])[H])C([H])([N+]([H])([H])[H])C([H])([H])C41C3([H])O[H])C2([H])C6(O[H])C([H])([H])[H]

$$$$
19:2:2
     RDKit          3D

 97105  0  0  1  0  0  0  0  0999 V2000
    3.9785    0.3740    3.9186 C   0  0  0  0  0  0  0  0  0  0  0  0
    2.4624   -0.0196    3.8901 C   0  0  0  0  0  0  0  0  0  0  0  0
    2.0109   -0.8396    3.0392 O   0  0  0  0  0  0  0  0  0  0  0  0
    1.5820    0.5681    4.8079 O   0  0  0  0  0  0  0  0  0  0  0  0
    1.7819    1.5200    5.9075 C   0  0  1  0  0  0  0  0  0  0  0  0
    2.9082    0.7634    6.8464 C   0  0  2  0  0  0  0  0  0  0  0  0
    2.9181   -0.6446    6.6147 O   0  0  0  0  0  0  0  0  0  0  0  0
    2.8743   -1.3533    7.8108 C   0  0  0  0  0  0  0  0  0  0  0  0
    2.3772   -0.3198    8.8289 C   0  0  1  0  0  0  0  0  0  0  0  0
    2.8706   -0.9140   10.1849 C   0  0  0  0  0  0  0  0  0  0  0  0
    3.1524    0.9475    8.4082 C   0  0  2  0  0  0  0  0  0  0  0  0
    3.1129    2.3636    9.2319 C   0  0  1  0  0  0  0  0  0  0  0  0
    3.4047    2.1462   10.7399 C   0  0  0  0  0  0  0  0  0  0  0  0
    4.3190    3.0816    9.0815 O   0  0  0  0  0  0  0  0  0  0  0  0
    1.8384    3.2498    8.8470 C   0  0  2  0  0  0  0  0  0  0  0  0
    2.2054    3.1851    7.4355 O   0  0  0  0  0  0  0  0  0  0  0  0
    3.1819    3.6653    6.3688 C   0  0  0  0  0  0  0  0  0  0  0  0
    3.4379    5.1400    5.9179 C   0  0  0  0  0  0  0  0  0  0  0  0
    4.7157    3.2447    6.4008 C   0  0  0  0  0  0  0  0  0  0  0  0
    2.3935    2.8789    5.2453 C   0  0  2  0  0  0  0  0  0  0  0  0
    1.8269    3.5386    3.8543 C   0  0  1  0  0  0  0  0  0  0  0  0
    0.7945    2.6955    3.0526 C   0  0  0  0  0  0  0  0  0  0  0  0
   -0.5392    3.3017    3.3215 C   0  0  2  0  0  0  0  0  0  0  0  0
   -0.3353    4.7836    3.3657 C   0  0  1  0  0  0  0  0  0  0  0  0
   -1.1882    4.8805    4.5317 O   0  0  0  0  0  0  0  0  0  0  0  0
   -1.1214    3.4509    4.7505 C   0  0  1  0  0  0  0  0  0  0  0  0
   -2.5590    2.9327    4.8332 C   0  0  0  0  0  0  0  0  0  0  0  0
   -0.3896    3.2825    6.1516 C   0  0  2  0  0  0  0  0  0  0  0  0
    0.4406    4.8908    6.8927 S   0  0  0  0  0  0  0  0  0  0  0  0
   -0.6079    5.9987    7.0470 O   0  0  0  0  0  0  0  0  0  0  0  0
    1.4535    4.7922    8.5723 C   0  0  0  0  0  0  0  0  0  0  0  0
    0.5833    5.6376    9.5660 C   0  0  0  0  0  0  0  0  0  0  0  0
    2.7147    5.7156    8.6658 C   0  0  0  0  0  0  0  0  0  0  0  0
    0.2225    1.7480    6.5068 C   0  0  0  0  0  0  0  0  0  0  0  0
   -0.9172    1.8386    7.7392 C   0  0  0  0  0  0  0  0  0  0  0  0
   -0.8043    2.7500    8.9677 C   0  0  1  0  0  0  0  0  0  0  0  0
   -1.9481    2.5353    9.8807 N   0  0  0  0  0  0  0  0  0  0  0  0
    0.5809    2.5222    9.6182 C   0  0  2  0  0  0  0  0  0  0  0  0
    0.5154    3.1551   11.0781 C   0  0  0  0  0  0  0  0  0  0  0  0
    0.5366    0.9573    9.7963 C   0  0  0  0  0  0  0  0  0  0  0  0
    0.1190    0.4900   10.8690 O   0  0  0  0  0  0  0  0  0  0  0  0
    0.8242   -0.0559    8.6630 C   0  0  2  0  0  0  0  0  0  0  0  0
    0.2359   -1.3131    9.0116 O   0  0  0  0  0  0  0  0  0  0  0  0
    0.1648    0.2419    7.1634 C   0  0  1  0  0  0  0  0  0  0  0  0
   -0.9617   -0.5391    6.7110 O   0  0  0  0  0  0  0  0  0  0  0  0
    1.1613    4.9531    3.5791 C   0  0  1  0  0  0  0  0  0  0  0  0
    1.4856    6.2013    4.1437 O   0  0  0  0  0  0  0  0  0  0  0  0
    4.2347    1.0720    4.6821 H   0  0  0  0  0  0  0  0  0  0  0  0
    4.2382    0.8616    2.9419 H   0  0  0  0  0  0  0  0  0  0  0  0
    4.5887   -0.5437    4.1111 H   0  0  0  0  0  0  0  0  0  0  0  0
    3.8638    0.8721    6.4623 H   0  0  0  0  0  0  0  0  0  0  0  0
    2.2502   -2.2437    7.7132 H   0  0  0  0  0  0  0  0  0  0  0  0
    3.8866   -1.7011    8.0200 H   0  0  0  0  0  0  0  0  0  0  0  0
    2.4941   -0.4250   11.0744 H   0  0  0  0  0  0  0  0  0  0  0  0
    3.9617   -0.8919   10.2509 H   0  0  0  0  0  0  0  0  0  0  0  0
    2.5825   -1.9612   10.2722 H   0  0  0  0  0  0  0  0  0  0  0  0
    4.1964    0.6606    8.5237 H   0  0  0  0  0  0  0  0  0  0  0  0
    2.6131    1.6500   11.2799 H   0  0  0  0  0  0  0  0  0  0  0  0
    3.5854    3.0835   11.2697 H   0  0  0  0  0  0  0  0  0  0  0  0
    4.2954    1.5303   10.8897 H   0  0  0  0  0  0  0  0  0  0  0  0
    4.4151    3.3311    8.1924 H   0  0  0  0  0  0  0  0  0  0  0  0
    3.6847    5.1766    4.8567 H   0  0  0  0  0  0  0  0  0  0  0  0
    4.2991    5.6182    6.3842 H   0  0  0  0  0  0  0  0  0  0  0  0
    2.6509    5.8405    6.1117 H   0  0  0  0  0  0  0  0  0  0  0  0
    5.1419    3.2509    5.3938 H   0  0  0  0  0  0  0  0  0  0  0  0
    5.0553    2.3230    6.8531 H   0  0  0  0  0  0  0  0  0  0  0  0
    5.3303    3.9545    6.9432 H   0  0  0  0  0  0  0  0  0  0  0  0
    3.2452    2.5795    4.7702 H   0  0  0  0  0  0  0  0  0  0  0  0
    2.6856    3.5783    3.1817 H   0  0  0  0  0  0  0  0  0  0  0  0
    1.0368    2.8461    2.0047 H   0  0  0  0  0  0  0  0  0  0  0  0
    0.7147    1.6271    3.0739 H   0  0  0  0  0  0  0  0  0  0  0  0
   -1.3072    3.0440    2.5805 H   0  0  0  0  0  0  0  0  0  0  0  0
   -0.7426    5.3222    2.5020 H   0  0  0  0  0  0  0  0  0  0  0  0
   -2.5512    1.8608    4.9619 H   0  0  0  0  0  0  0  0  0  0  0  0
   -3.1294    3.1285    3.9274 H   0  0  0  0  0  0  0  0  0  0  0  0
   -3.1238    3.3709    5.6494 H   0  0  0  0  0  0  0  0  0  0  0  0
   -1.2399    3.6795    6.6925 H   0  0  0  0  0  0  0  0  0  0  0  0
    0.9968    5.6928   10.5733 H   0  0  0  0  0  0  0  0  0  0  0  0
   -0.4625    5.3841    9.6680 H   0  0  0  0  0  0  0  0  0  0  0  0
    0.5469    6.6775    9.2340 H   0  0  0  0  0  0  0  0  0  0  0  0
    2.9625    5.9779    9.6970 H   0  0  0  0  0  0  0  0  0  0  0  0
    2.5816    6.6643    8.1438 H   0  0  0  0  0  0  0  0  0  0  0  0
    3.6485    5.2758    8.3521 H   0  0  0  0  0  0  0  0  0  0  0  0
   -1.8984    1.9919    7.2818 H   0  0  0  0  0  0  0  0  0  0  0  0
   -1.4575    1.0054    8.2340 H   0  0  0  0  0  0  0  0  0  0  0  0
   -0.9790    3.7668    8.6956 H   0  0  0  0  0  0  0  0  0  0  0  0
   -1.9553    1.5861   10.2674 H   0  0  0  0  0  0  0  0  0  0  0  0
   -2.8366    2.7191    9.3921 H   0  0  0  0  0  0  0  0  0  0  0  0
   -0.2804    3.8792   11.2186 H   0  0  0  0  0  0  0  0  0  0  0  0
    1.4293    3.6871   11.3326 H   0  0  0  0  0  0  0  0  0  0  0  0
    0.3723    2.4821   11.9250 H   0  0  0  0  0  0  0  0  0  0  0  0
    0.5980   -1.9788    8.4735 H   0  0  0  0  0  0  0  0  0  0  0  0
    0.7215   -0.4794    6.6002 H   0  0  0  0  0  0  0  0  0  0  0  0
   -0.8967   -0.6268    5.7800 H   0  0  0  0  0  0  0  0  0  0  0  0
    1.5407    5.1672    2.5800 H   0  0  0  0  0  0  0  0  0  0  0  0
    1.1089    6.8730    3.6085 H   0  0  0  0  0  0  0  0  0  0  0  0
   -1.9082    3.1614   10.6870 H   0  0  0  0  0  0  0  0  0  0  0  0
  1  2  1  0
  1 48  1  0
  1 49  1  0
  1 50  1  0
  2  3  2  0
  2  4  1  0
  5  4  1  6
  5 20  1  0
  5 34  1  0
  5  6  1  0
  6 11  1  0
  6  7  1  0
  6 51  1  6
  7  8  1  0
  8  9  1  0
  8 52  1  0
  8 53  1  0
  9 42  1  0
  9 10  1  1
  9 11  1  0
 10 54  1  0
 10 55  1  0
 10 56  1  0
 11 12  1  0
 11 57  1  6
 12 13  1  0
 12 14  1  6
 12 15  1  0
 13 58  1  0
 13 59  1  0
 13 60  1  0
 14 61  1  0
 15 31  1  0
 15 38  1  0
 15 16  1  6
 16 17  1  0
 17 18  1  0
 17 19  1  0
 17 20  1  0
 18 62  1  0
 18 63  1  0
 18 64  1  0
 19 65  1  0
 19 66  1  0
 19 67  1  0
 20 21  1  0
 20 68  1  6
 21 46  1  0
 21 22  1  0
 21 69  1  6
 22 23  1  0
 22 70  1  0
 22 71  1  0
 23 26  1  0
 23 24  1  0
 23 72  1  6
 24 25  1  0
 24 46  1  0
 24 73  1  6
 25 26  1  0
 26 27  1  1
 26 28  1  0
 27 74  1  0
 27 75  1  0
 27 76  1  0
 28 29  1  0
 28 34  1  0
 28 77  1  1
 29 30  2  0
 29 31  1  1
 31 32  1  0
 31 33  1  0
 32 78  1  0
 32 79  1  0
 32 80  1  0
 33 81  1  0
 33 82  1  0
 33 83  1  0
 34 44  1  0
 34 35  1  0
 35 36  1  0
 35 84  1  0
 35 85  1  0
 36 37  1  0
 36 38  1  0
 36 86  1  6
 37 87  1  0
 37 88  1  0
 37 97  1  0
 38 39  1  1
 38 40  1  0
 39 89  1  0
 39 90  1  0
 39 91  1  0
 40 41  2  0
 40 42  1  0
 42 43  1  1
 42 44  1  0
 43 92  1  0
 44 45  1  0
 44 93  1  6
 45 94  1  0
 46 47  1  0
 46 95  1  6
 47 96  1  0
M  CHG  1  37   1
M  END
>  <i_m_ct_stereo_status>  (24) 
1

>  <s_m_source_file>  (24) 
/var/tmp/pbs.5075288.sched01/tmpye5xf5zc/0p3ozm_yu.sdf

>  <i_m_source_file_index>  (24) 
49

>  <i_lp_mmshare_version>  (24) 
48012

>  <i_f3d_flags>  (24) 
0

>  <s_epik_input>  (24) 
Tz1DMVtDQEBdKFtPSF0pKFtDQEhdMltPSF0pW0NAXShbQ0gyXU8zKShbQ0gzXSlbQ0BIXShbQ0BAXTQoW0NIM10pW09IXSlbQ0BASF0zW0NAQF0oT0MoPU8pW0NIM10pKEMyNVtDSDJdW0NAQEhdKFtOSDJdKVtDQEBdMShbQ0BAXTQ2NylbQ0gzXSlbQ0BIXShDKE82KShbQ0gzXSlbQ0gzXSlbQ0BIXThbQ0gyXVtDQEBIXTlbQ0BIXShbQ0BIXThbT0hdKU9bQ0BdOShbQ0gzXSlbQ0BASF01W1MrXShbTy1dKUM3KFtDSDNdKVtDSDNd

>  <s_epik_cmdline>  (24) 
J2VwaWtfcHl0aG9uJywgJy1waHQnLCAnMi4wJywgJy1waCcsICc3LjAnLCAnLXRuJywgJzgnLCAnLW1hJywgJzIwMCcsICctaW1hZScsICc8aW5maWxlLm1hZT4nLCAnLW9tYWUnLCAnPG91dGZpbGUubWFlPic=

>  <r_epik_Ionization_Penalty>  (24) 
0.0151088

>  <r_epik_Ionization_Penalty_Charging>  (24) 
0.0151082

>  <r_epik_Ionization_Penalty_Neutral>  (24) 
5.23371e-07

>  <r_epik_State_Penalty>  (24) 
0.0118548

>  <r_epik_Charging_Adjusted_Penalty>  (24) 
0.026963

>  <i_epik_Tot_Q>  (24) 
1

>  <i_epik_Tot_abs_Q>  (24) 
3

>  <s_epik_Chemistry_Notes>  (24) 
This compound has an ester and may undergo hydrolysis at high or low pH.

>  <s_lp_Force_Field>  (24) 
OPLS3e

>  <r_lp_Energy>  (24) 
546.316

>  <b_lp_Chiralities_Consistent>  (24) 
1

>  <s_lp_Variant>  (24) 
19:0-3

>  <s_i_glide_gridfile>  (24) 
pfpi4k_grid

>  <i_i_glide_lignum>  (24) 
49

>  <i_i_glide_rotatable_bonds>  (24) 
6

>  <r_i_docking_score>  (24) 
-2.61617

>  <r_i_glide_ligand_efficiency>  (24) 
-0.0556632

>  <r_i_glide_ligand_efficiency_sa>  (24) 
-0.200879

>  <r_i_glide_ligand_efficiency_ln>  (24) 
-0.5394

>  <r_i_glide_gscore>  (24) 
-2.61617

>  <r_i_glide_lipo>  (24) 
-0.00545439

>  <r_i_glide_hbond>  (24) 
-0.0838675

>  <r_i_glide_metal>  (24) 
-0

>  <r_i_glide_rewards>  (24) 
0

>  <r_i_glide_evdw>  (24) 
-17.4757

>  <r_i_glide_ecoul>  (24) 
-10.8057

>  <r_i_glide_erotb>  (24) 
0.0460866

>  <r_i_glide_esite>  (24) 
-0.0783006

>  <r_i_glide_emodel>  (24) 
-30.9955

>  <r_i_glide_energy>  (24) 
-28.2814

>  <r_i_glide_einternal>  (24) 
4.82938

>  <r_i_glide_intrahb_reward>  (24) 
-0

>  <i_i_glide_confnum>  (24) 
3

>  <i_i_glide_posenum>  (24) 
16

>  <r_i_glide_eff_state_penalty>  (24) 
0

>  <ligand_id>  (24) 
19

>  <original_smiles>  (24) 
CC(=O)OC12C3OCC4(C)C3C(C)(O)C35OC(C)(C)C1C1CC6C(OC6(C)C([S+]([O-])C3(C)C)C23CC(N)C5(C)C(=O)C4(O)C3O)C1O

>  <smiles>  (24) 
[H]OC1([H])C2([H])OC3(C([H])([H])[H])C4([H])S(=O)C(C([H])([H])[H])(C([H])([H])[H])C56OC(C([H])([H])[H])(C([H])([H])[H])C([H])(C1([H])C([H])([H])C23[H])C1(OC(=O)C([H])([H])[H])C2([H])OC([H])([H])C(C([H])([H])[H])(C3(O[H])C(=O)C5(C([H])([H])[H])C([H])([N+]([H])([H])[H])C([H])([H])C41C3([H])O[H])C2([H])C6(O[H])C([H])([H])[H]

$$$$
19:3:0
     RDKit          3D

 96104  0  0  1  0  0  0  0  0999 V2000
    6.1809    4.4301    6.6200 C   0  0  0  0  0  0  0  0  0  0  0  0
    4.7595    4.0191    6.2563 C   0  0  0  0  0  0  0  0  0  0  0  0
    4.1939    4.5049    5.2806 O   0  0  0  0  0  0  0  0  0  0  0  0
    4.2616    3.1069    7.1303 O   0  0  0  0  0  0  0  0  0  0  0  0
    2.9724    2.4550    7.0640 C   0  0  1  0  0  0  0  0  0  0  0  0
    3.0859    1.0543    8.1994 C   0  0  2  0  0  0  0  0  0  0  0  0
    4.4012    0.8548    8.7379 O   0  0  0  0  0  0  0  0  0  0  0  0
    4.8678   -0.4909    8.5192 C   0  0  0  0  0  0  0  0  0  0  0  0
    3.9391   -1.2452    7.5029 C   0  0  1  0  0  0  0  0  0  0  0  0
    4.1212   -2.7504    7.8672 C   0  0  0  0  0  0  0  0  0  0  0  0
    2.6410   -0.5552    7.8540 C   0  0  2  0  0  0  0  0  0  0  0  0
    1.3878   -1.1041    6.9134 C   0  0  1  0  0  0  0  0  0  0  0  0
    1.3589   -2.7003    6.7606 C   0  0  0  0  0  0  0  0  0  0  0  0
    0.5283   -1.3908    8.0360 O   0  0  0  0  0  0  0  0  0  0  0  0
    0.8349   -0.2519    5.4182 C   0  0  2  0  0  0  0  0  0  0  0  0
    0.4921    1.2857    4.8727 O   0  0  0  0  0  0  0  0  0  0  0  0
    0.6813    2.8749    5.0787 C   0  0  0  0  0  0  0  0  0  0  0  0
    0.9868    3.6820    3.7303 C   0  0  0  0  0  0  0  0  0  0  0  0
   -0.8245    3.3004    5.0064 C   0  0  0  0  0  0  0  0  0  0  0  0
    1.7685    3.4976    6.3443 C   0  0  2  0  0  0  0  0  0  0  0  0
    1.1171    4.7807    7.1050 C   0  0  1  0  0  0  0  0  0  0  0  0
   -0.3356    4.5395    7.7023 C   0  0  0  0  0  0  0  0  0  0  0  0
   -0.1883    3.5999    8.8901 C   0  0  2  0  0  0  0  0  0  0  0  0
    1.0451    4.1776    9.5405 C   0  0  1  0  0  0  0  0  0  0  0  0
    1.6708    2.8834    9.5445 O   0  0  0  0  0  0  0  0  0  0  0  0
    0.5575    2.2015    8.8431 C   0  0  1  0  0  0  0  0  0  0  0  0
    0.0503    1.2041    9.9031 C   0  0  0  0  0  0  0  0  0  0  0  0
    0.8492    1.4142    7.3502 C   0  0  2  0  0  0  0  0  0  0  0  0
   -0.8750    0.5948    6.9125 S   0  0  0  0  0  0  0  0  0  0  0  0
   -2.1908    1.3312    7.1784 O   0  0  0  0  0  0  0  0  0  0  0  0
   -0.7245   -0.4518    5.3802 C   0  0  0  0  0  0  0  0  0  0  0  0
   -1.5813    0.1303    4.1995 C   0  0  0  0  0  0  0  0  0  0  0  0
   -1.4268   -1.7984    5.7032 C   0  0  0  0  0  0  0  0  0  0  0  0
    2.6240    1.4209    6.1991 C   0  0  1  0  0  0  0  0  0  0  0  0
    2.9273    1.6251    4.5696 C   0  0  0  0  0  0  0  0  0  0  0  0
    2.4229    0.5417    3.5573 C   0  0  1  0  0  0  0  0  0  0  0  0
    3.4483    0.2784    2.5500 N   0  0  0  0  0  0  0  0  0  0  0  0
    1.9037   -0.7247    4.3032 C   0  0  2  0  0  0  0  0  0  0  0  0
    1.1823   -1.6326    3.2675 C   0  0  0  0  0  0  0  0  0  0  0  0
    3.2266   -1.4638    4.8259 C   0  0  0  0  0  0  0  0  0  0  0  0
    3.5697   -2.5044    4.2593 O   0  0  0  0  0  0  0  0  0  0  0  0
    4.1572   -0.9280    5.9910 C   0  0  2  0  0  0  0  0  0  0  0  0
    5.4525   -1.4822    5.7703 O   0  0  0  0  0  0  0  0  0  0  0  0
    4.1456    0.5852    5.9996 C   0  0  1  0  0  0  0  0  0  0  0  0
    5.3271    0.9652    5.2517 O   0  0  0  0  0  0  0  0  0  0  0  0
    1.6994    5.1667    8.5321 C   0  0  1  0  0  0  0  0  0  0  0  0
    3.0976    5.2839    8.6635 O   0  0  0  0  0  0  0  0  0  0  0  0
    6.2190    4.8034    7.6420 H   0  0  0  0  0  0  0  0  0  0  0  0
    6.5382    5.2151    5.9538 H   0  0  0  0  0  0  0  0  0  0  0  0
    6.8531    3.5760    6.5386 H   0  0  0  0  0  0  0  0  0  0  0  0
    2.7363    1.1482    9.2065 H   0  0  0  0  0  0  0  0  0  0  0  0
    5.9094   -0.4800    8.1926 H   0  0  0  0  0  0  0  0  0  0  0  0
    4.8649   -0.9849    9.4924 H   0  0  0  0  0  0  0  0  0  0  0  0
    3.8346   -3.4367    7.0715 H   0  0  0  0  0  0  0  0  0  0  0  0
    3.5856   -3.0186    8.7782 H   0  0  0  0  0  0  0  0  0  0  0  0
    5.1714   -2.9779    8.0575 H   0  0  0  0  0  0  0  0  0  0  0  0
    2.4846   -0.9468    8.8645 H   0  0  0  0  0  0  0  0  0  0  0  0
    1.9591   -3.1648    5.9937 H   0  0  0  0  0  0  0  0  0  0  0  0
    0.4020   -3.1483    6.5364 H   0  0  0  0  0  0  0  0  0  0  0  0
    1.6512   -3.2364    7.6697 H   0  0  0  0  0  0  0  0  0  0  0  0
    0.6144   -0.6883    8.6618 H   0  0  0  0  0  0  0  0  0  0  0  0
    1.8262    4.3651    3.8672 H   0  0  0  0  0  0  0  0  0  0  0  0
    0.2276    4.3464    3.3146 H   0  0  0  0  0  0  0  0  0  0  0  0
    1.2159    3.0200    2.8983 H   0  0  0  0  0  0  0  0  0  0  0  0
   -0.9617    4.3829    5.0435 H   0  0  0  0  0  0  0  0  0  0  0  0
   -1.4958    2.8668    5.7195 H   0  0  0  0  0  0  0  0  0  0  0  0
   -1.2700    2.9760    4.0636 H   0  0  0  0  0  0  0  0  0  0  0  0
    1.6692    3.3910    7.3367 H   0  0  0  0  0  0  0  0  0  0  0  0
    1.1208    5.6391    6.4293 H   0  0  0  0  0  0  0  0  0  0  0  0
   -0.6962    5.5007    8.0724 H   0  0  0  0  0  0  0  0  0  0  0  0
   -1.1783    4.2648    7.1081 H   0  0  0  0  0  0  0  0  0  0  0  0
   -1.0387    3.5966    9.5728 H   0  0  0  0  0  0  0  0  0  0  0  0
    0.8850    4.5596   10.5498 H   0  0  0  0  0  0  0  0  0  0  0  0
   -0.9299    0.8040    9.6541 H   0  0  0  0  0  0  0  0  0  0  0  0
   -0.0702    1.6866   10.8749 H   0  0  0  0  0  0  0  0  0  0  0  0
    0.7387    0.3780   10.0577 H   0  0  0  0  0  0  0  0  0  0  0  0
    0.1092    2.1004    7.0189 H   0  0  0  0  0  0  0  0  0  0  0  0
   -2.1517   -0.6543    3.7038 H   0  0  0  0  0  0  0  0  0  0  0  0
   -1.0286    0.5907    3.3807 H   0  0  0  0  0  0  0  0  0  0  0  0
   -2.3132    0.8518    4.5565 H   0  0  0  0  0  0  0  0  0  0  0  0
   -1.0794   -2.5995    5.0513 H   0  0  0  0  0  0  0  0  0  0  0  0
   -2.5046   -1.7296    5.5539 H   0  0  0  0  0  0  0  0  0  0  0  0
   -1.3599   -2.1196    6.7353 H   0  0  0  0  0  0  0  0  0  0  0  0
    2.8406    2.6243    4.2642 H   0  0  0  0  0  0  0  0  0  0  0  0
    3.8566    1.9837    4.1559 H   0  0  0  0  0  0  0  0  0  0  0  0
    1.6043    0.9376    2.9569 H   0  0  0  0  0  0  0  0  0  0  0  0
    3.0873   -0.3799    1.8698 H   0  0  0  0  0  0  0  0  0  0  0  0
    3.6331    1.1336    2.0422 H   0  0  0  0  0  0  0  0  0  0  0  0
    0.3920   -1.0954    2.7473 H   0  0  0  0  0  0  0  0  0  0  0  0
    0.7422   -2.5143    3.7340 H   0  0  0  0  0  0  0  0  0  0  0  0
    1.8552   -1.9955    2.4884 H   0  0  0  0  0  0  0  0  0  0  0  0
    5.7613   -1.1338    4.9489 H   0  0  0  0  0  0  0  0  0  0  0  0
    4.8861    0.9445    6.6800 H   0  0  0  0  0  0  0  0  0  0  0  0
    5.1056    0.9624    4.3308 H   0  0  0  0  0  0  0  0  0  0  0  0
    1.3370    6.1721    8.7653 H   0  0  0  0  0  0  0  0  0  0  0  0
    3.4804    4.4269    8.5292 H   0  0  0  0  0  0  0  0  0  0  0  0
  1  2  1  0
  1 48  1  0
  1 49  1  0
  1 50  1  0
  2  3  2  0
  2  4  1  0
  5  4  1  6
  5 20  1  0
  5 34  1  0
  5  6  1  0
  6 11  1  0
  6  7  1  0
  6 51  1  1
  7  8  1  0
  8  9  1  0
  8 52  1  0
  8 53  1  0
  9 42  1  0
  9 10  1  6
  9 11  1  0
 10 54  1  0
 10 55  1  0
 10 56  1  0
 11 12  1  0
 11 57  1  1
 12 13  1  0
 12 14  1  1
 12 15  1  0
 13 58  1  0
 13 59  1  0
 13 60  1  0
 14 61  1  0
 15 31  1  0
 15 38  1  0
 15 16  1  1
 16 17  1  0
 17 18  1  0
 17 19  1  0
 17 20  1  0
 18 62  1  0
 18 63  1  0
 18 64  1  0
 19 65  1  0
 19 66  1  0
 19 67  1  0
 20 21  1  0
 20 68  1  6
 21 46  1  0
 21 22  1  0
 21 69  1  6
 22 23  1  0
 22 70  1  0
 22 71  1  0
 23 26  1  0
 23 24  1  0
 23 72  1  1
 24 25  1  0
 24 46  1  0
 24 73  1  1
 25 26  1  0
 26 27  1  1
 26 28  1  0
 27 74  1  0
 27 75  1  0
 27 76  1  0
 28 29  1  0
 28 34  1  0
 28 77  1  1
 29 30  2  0
 29 31  1  6
 31 32  1  0
 31 33  1  0
 32 78  1  0
 32 79  1  0
 32 80  1  0
 33 81  1  0
 33 82  1  0
 33 83  1  0
 34 44  1  0
 34 35  1  6
 35 36  1  0
 35 84  1  0
 35 85  1  0
 36 37  1  0
 36 38  1  0
 36 86  1  6
 37 87  1  0
 37 88  1  0
 38 39  1  6
 38 40  1  0
 39 89  1  0
 39 90  1  0
 39 91  1  0
 40 41  2  0
 40 42  1  0
 42 43  1  6
 42 44  1  0
 43 92  1  0
 44 45  1  0
 44 93  1  1
 45 94  1  0
 46 47  1  0
 46 95  1  1
 47 96  1  0
M  END
>  <i_m_ct_stereo_status>  (25) 
1

>  <s_m_source_file>  (25) 
/var/tmp/pbs.5075288.sched01/tmpye5xf5zc/0p3ozm_yu.sdf

>  <i_m_source_file_index>  (25) 
50

>  <i_lp_mmshare_version>  (25) 
48012

>  <i_f3d_flags>  (25) 
0

>  <s_epik_input>  (25) 
Tz1DMVtDQEBdKFtPSF0pKFtDQEhdMltPSF0pW0NAXShbQ0gyXU8zKShbQ0gzXSlbQ0BIXShbQ0BAXTQoW0NIM10pW09IXSlbQ0BASF0zW0NAQF0oT0MoPU8pW0NIM10pKEMyNVtDSDJdW0NAQEhdKFtOSDJdKVtDQEBdMShbQ0BAXTQ2NylbQ0gzXSlbQ0BIXShDKE82KShbQ0gzXSlbQ0gzXSlbQ0BIXThbQ0gyXVtDQEBIXTlbQ0BIXShbQ0BIXThbT0hdKU9bQ0BdOShbQ0gzXSlbQ0BASF01W1MrXShbTy1dKUM3KFtDSDNdKVtDSDNd

>  <s_epik_cmdline>  (25) 
J2VwaWtfcHl0aG9uJywgJy1waHQnLCAnMi4wJywgJy1waCcsICc3LjAnLCAnLXRuJywgJzgnLCAnLW1hJywgJzIwMCcsICctaW1hZScsICc8aW5maWxlLm1hZT4nLCAnLW9tYWUnLCAnPG91dGZpbGUubWFlPic=

>  <r_epik_Ionization_Penalty>  (25) 
2.18142

>  <r_epik_Ionization_Penalty_Charging>  (25) 
0

>  <r_epik_Ionization_Penalty_Neutral>  (25) 
2.18142

>  <r_epik_State_Penalty>  (25) 
2.32348

>  <r_epik_Charging_Adjusted_Penalty>  (25) 
2.32348

>  <i_epik_Tot_Q>  (25) 
0

>  <i_epik_Tot_abs_Q>  (25) 
2

>  <s_epik_Chemistry_Notes>  (25) 
This compound has an ester and may undergo hydrolysis at high or low pH.

>  <s_lp_Force_Field>  (25) 
OPLS3e

>  <r_lp_Energy>  (25) 
965.791

>  <b_lp_Chiralities_Consistent>  (25) 
1

>  <s_lp_Variant>  (25) 
19:0-4

>  <s_i_glide_gridfile>  (25) 
pfpi4k_grid

>  <i_i_glide_lignum>  (25) 
50

>  <i_i_glide_rotatable_bonds>  (25) 
6

>  <r_i_docking_score>  (25) 
-1.98202

>  <r_i_glide_ligand_efficiency>  (25) 
-0.0421707

>  <r_i_glide_ligand_efficiency_sa>  (25) 
-0.152187

>  <r_i_glide_ligand_efficiency_ln>  (25) 
-0.408652

>  <r_i_glide_gscore>  (25) 
-1.98202

>  <r_i_glide_lipo>  (25) 
-0.031993

>  <r_i_glide_hbond>  (25) 
-0.167205

>  <r_i_glide_metal>  (25) 
-0

>  <r_i_glide_rewards>  (25) 
-0.00371056

>  <r_i_glide_evdw>  (25) 
-21.7644

>  <r_i_glide_ecoul>  (25) 
-4.51258

>  <r_i_glide_erotb>  (25) 
0.0462146

>  <r_i_glide_esite>  (25) 
-0.0602212

>  <r_i_glide_emodel>  (25) 
-27.1145

>  <r_i_glide_energy>  (25) 
-26.277

>  <r_i_glide_einternal>  (25) 
4.15967

>  <r_i_glide_intrahb_reward>  (25) 
-0

>  <i_i_glide_confnum>  (25) 
4

>  <i_i_glide_posenum>  (25) 
3

>  <r_i_glide_eff_state_penalty>  (25) 
0

>  <ligand_id>  (25) 
19

>  <original_smiles>  (25) 
CC(=O)OC12C3OCC4(C)C3C(C)(O)C35OC(C)(C)C1C1CC6C(OC6(C)C([S+]([O-])C3(C)C)C23CC(N)C5(C)C(=O)C4(O)C3O)C1O

>  <smiles>  (25) 
[H]OC1([H])C2([H])OC3(C([H])([H])[H])C4([H])S(=O)C(C([H])([H])[H])(C([H])([H])[H])C56OC(C([H])([H])[H])(C([H])([H])[H])C([H])(C1([H])C([H])([H])C23[H])C1(OC(=O)C([H])([H])[H])C2([H])OC([H])([H])C(C([H])([H])[H])(C3(O[H])C(=O)C5(C([H])([H])[H])C([H])(N([H])[H])C([H])([H])C41C3([H])O[H])C2([H])C6(O[H])C([H])([H])[H]

$$$$
19:3:1
     RDKit          3D

 96104  0  0  1  0  0  0  0  0999 V2000
    4.0129    6.7985    5.7601 C   0  0  0  0  0  0  0  0  0  0  0  0
    2.8129    5.8653    5.6723 C   0  0  0  0  0  0  0  0  0  0  0  0
    1.9348    6.0399    4.8324 O   0  0  0  0  0  0  0  0  0  0  0  0
    2.8612    4.8933    6.6211 O   0  0  0  0  0  0  0  0  0  0  0  0
    1.9225    3.8054    6.7941 C   0  0  1  0  0  0  0  0  0  0  0  0
    2.7785    2.5917    7.8206 C   0  0  2  0  0  0  0  0  0  0  0  0
    4.1509    2.9026    8.0602 O   0  0  0  0  0  0  0  0  0  0  0  0
    5.0177    1.8147    7.6759 C   0  0  0  0  0  0  0  0  0  0  0  0
    4.2329    0.7309    6.8525 C   0  0  1  0  0  0  0  0  0  0  0  0
    5.0258   -0.5861    7.1089 C   0  0  0  0  0  0  0  0  0  0  0  0
    2.8863    0.9172    7.5019 C   0  0  2  0  0  0  0  0  0  0  0  0
    1.7558   -0.0799    6.8280 C   0  0  1  0  0  0  0  0  0  0  0  0
    2.2693   -1.5842    6.6191 C   0  0  0  0  0  0  0  0  0  0  0  0
    1.3385   -0.6296    8.0888 O   0  0  0  0  0  0  0  0  0  0  0  0
    0.6228    0.4482    5.5273 C   0  0  2  0  0  0  0  0  0  0  0  0
   -0.3763    1.7320    5.1383 O   0  0  0  0  0  0  0  0  0  0  0  0
   -0.7295    3.2896    5.3618 C   0  0  0  0  0  0  0  0  0  0  0  0
   -1.0458    4.1038    4.0212 C   0  0  0  0  0  0  0  0  0  0  0  0
   -2.2698    3.1573    5.6100 C   0  0  0  0  0  0  0  0  0  0  0  0
    0.3017    4.3113    6.3970 C   0  0  2  0  0  0  0  0  0  0  0  0
   -0.5832    5.2994    7.3312 C   0  0  1  0  0  0  0  0  0  0  0  0
   -1.6963    4.5735    8.2047 C   0  0  0  0  0  0  0  0  0  0  0  0
   -0.9699    3.7995    9.2982 C   0  0  2  0  0  0  0  0  0  0  0  0
    0.0776    4.7985    9.7021 C   0  0  1  0  0  0  0  0  0  0  0  0
    1.1124    3.8243    9.5034 O   0  0  0  0  0  0  0  0  0  0  0  0
    0.1973    2.7718    9.0299 C   0  0  1  0  0  0  0  0  0  0  0  0
    0.3360    1.6971   10.1267 C   0  0  0  0  0  0  0  0  0  0  0  0
    0.4557    2.0948    7.4814 C   0  0  2  0  0  0  0  0  0  0  0  0
   -0.8682    0.6984    7.3591 S   0  0  0  0  0  0  0  0  0  0  0  0
   -2.2841    1.0310    7.7906 O   0  0  0  0  0  0  0  0  0  0  0  0
   -0.7007   -0.3162    5.8040 C   0  0  0  0  0  0  0  0  0  0  0  0
   -1.9418   -0.1522    4.8754 C   0  0  0  0  0  0  0  0  0  0  0  0
   -0.8028   -1.8047    6.2289 C   0  0  0  0  0  0  0  0  0  0  0  0
    1.7922    2.6891    5.9855 C   0  0  1  0  0  0  0  0  0  0  0  0
    1.6446    2.9188    4.3332 C   0  0  0  0  0  0  0  0  0  0  0  0
    1.3567    1.6927    3.4115 C   0  0  1  0  0  0  0  0  0  0  0  0
    2.1635    1.7787    2.1976 N   0  0  0  0  0  0  0  0  0  0  0  0
    1.5067    0.3575    4.1931 C   0  0  2  0  0  0  0  0  0  0  0  0
    0.9669   -0.7902    3.2947 C   0  0  0  0  0  0  0  0  0  0  0  0
    3.0835    0.1656    4.3865 C   0  0  0  0  0  0  0  0  0  0  0  0
    3.6517   -0.6965    3.7116 O   0  0  0  0  0  0  0  0  0  0  0  0
    3.9753    1.0363    5.3508 C   0  0  2  0  0  0  0  0  0  0  0  0
    5.3069    0.9579    4.8526 O   0  0  0  0  0  0  0  0  0  0  0  0
    3.4043    2.4293    5.4483 C   0  0  1  0  0  0  0  0  0  0  0  0
    4.1967    3.2092    4.5196 O   0  0  0  0  0  0  0  0  0  0  0  0
    0.1027    5.9135    8.6260 C   0  0  1  0  0  0  0  0  0  0  0  0
    1.3437    6.5459    8.4540 O   0  0  0  0  0  0  0  0  0  0  0  0
    4.0776    7.2322    6.7570 H   0  0  0  0  0  0  0  0  0  0  0  0
    3.9268    7.6100    5.0378 H   0  0  0  0  0  0  0  0  0  0  0  0
    4.9337    6.2526    5.5577 H   0  0  0  0  0  0  0  0  0  0  0  0
    2.6425    2.5960    8.8767 H   0  0  0  0  0  0  0  0  0  0  0  0
    5.8941    2.1879    7.1419 H   0  0  0  0  0  0  0  0  0  0  0  0
    5.4009    1.3972    8.6052 H   0  0  0  0  0  0  0  0  0  0  0  0
    4.8439   -1.3571    6.3639 H   0  0  0  0  0  0  0  0  0  0  0  0
    4.8357   -0.9943    8.1000 H   0  0  0  0  0  0  0  0  0  0  0  0
    6.0998   -0.4037    7.0559 H   0  0  0  0  0  0  0  0  0  0  0  0
    3.0967    0.5384    8.5036 H   0  0  0  0  0  0  0  0  0  0  0  0
    2.8132   -1.8358    5.7230 H   0  0  0  0  0  0  0  0  0  0  0  0
    1.5115   -2.3529    6.5938 H   0  0  0  0  0  0  0  0  0  0  0  0
    2.9218   -1.9449    7.4210 H   0  0  0  0  0  0  0  0  0  0  0  0
    1.0619    0.0717    8.6569 H   0  0  0  0  0  0  0  0  0  0  0  0
   -0.5013    5.0472    4.0011 H   0  0  0  0  0  0  0  0  0  0  0  0
   -2.0700    4.4227    3.8043 H   0  0  0  0  0  0  0  0  0  0  0  0
   -0.7754    3.5402    3.1323 H   0  0  0  0  0  0  0  0  0  0  0  0
   -2.7868    4.1095    5.7325 H   0  0  0  0  0  0  0  0  0  0  0  0
   -2.6013    2.5672    6.4198 H   0  0  0  0  0  0  0  0  0  0  0  0
   -2.7575    2.6362    4.7810 H   0  0  0  0  0  0  0  0  0  0  0  0
    0.4563    4.2326    7.3881 H   0  0  0  0  0  0  0  0  0  0  0  0
   -0.9879    6.1052    6.7129 H   0  0  0  0  0  0  0  0  0  0  0  0
   -2.2910    5.3423    8.6921 H   0  0  0  0  0  0  0  0  0  0  0  0
   -2.4908    3.9864    7.8008 H   0  0  0  0  0  0  0  0  0  0  0  0
   -1.5791    3.5056   10.1523 H   0  0  0  0  0  0  0  0  0  0  0  0
   -0.0013    5.1273   10.7365 H   0  0  0  0  0  0  0  0  0  0  0  0
   -0.4600    0.9538   10.0822 H   0  0  0  0  0  0  0  0  0  0  0  0
    0.2541    2.1317   11.1219 H   0  0  0  0  0  0  0  0  0  0  0  0
    1.2953    1.1811   10.1061 H   0  0  0  0  0  0  0  0  0  0  0  0
   -0.5377    2.4310    7.3337 H   0  0  0  0  0  0  0  0  0  0  0  0
   -2.2818   -1.0890    4.4513 H   0  0  0  0  0  0  0  0  0  0  0  0
   -1.8396    0.4968    4.0061 H   0  0  0  0  0  0  0  0  0  0  0  0
   -2.7695    0.1456    5.4965 H   0  0  0  0  0  0  0  0  0  0  0  0
   -0.3458   -2.4618    5.4905 H   0  0  0  0  0  0  0  0  0  0  0  0
   -1.8396   -2.1372    6.2929 H   0  0  0  0  0  0  0  0  0  0  0  0
   -0.4240   -2.0279    7.2210 H   0  0  0  0  0  0  0  0  0  0  0  0
    1.1324    3.7942    4.0896 H   0  0  0  0  0  0  0  0  0  0  0  0
    2.2604    3.5724    3.7255 H   0  0  0  0  0  0  0  0  0  0  0  0
    0.3425    1.7393    3.0086 H   0  0  0  0  0  0  0  0  0  0  0  0
    1.9299    1.0114    1.5768 H   0  0  0  0  0  0  0  0  0  0  0  0
    1.8866    2.6187    1.7028 H   0  0  0  0  0  0  0  0  0  0  0  0
   -0.0596   -0.6031    2.9797 H   0  0  0  0  0  0  0  0  0  0  0  0
    0.9908   -1.7554    3.8044 H   0  0  0  0  0  0  0  0  0  0  0  0
    1.5385   -0.9136    2.3708 H   0  0  0  0  0  0  0  0  0  0  0  0
    5.3031    1.3673    4.0019 H   0  0  0  0  0  0  0  0  0  0  0  0
    4.1039    3.0770    5.9548 H   0  0  0  0  0  0  0  0  0  0  0  0
    3.9939    2.9410    3.6240 H   0  0  0  0  0  0  0  0  0  0  0  0
   -0.5422    6.7253    8.9672 H   0  0  0  0  0  0  0  0  0  0  0  0
    1.9789    5.8845    8.2019 H   0  0  0  0  0  0  0  0  0  0  0  0
  1  2  1  0
  1 48  1  0
  1 49  1  0
  1 50  1  0
  2  3  2  0
  2  4  1  0
  5  4  1  6
  5 20  1  0
  5 34  1  0
  5  6  1  0
  6 11  1  0
  6  7  1  0
  6 51  1  1
  7  8  1  0
  8  9  1  0
  8 52  1  0
  8 53  1  0
  9 42  1  0
  9 10  1  6
  9 11  1  0
 10 54  1  0
 10 55  1  0
 10 56  1  0
 11 12  1  0
 11 57  1  1
 12 13  1  0
 12 14  1  1
 12 15  1  0
 13 58  1  0
 13 59  1  0
 13 60  1  0
 14 61  1  0
 15 31  1  0
 15 38  1  0
 15 16  1  1
 16 17  1  0
 17 18  1  0
 17 19  1  0
 17 20  1  0
 18 62  1  0
 18 63  1  0
 18 64  1  0
 19 65  1  0
 19 66  1  0
 19 67  1  0
 20 21  1  0
 20 68  1  6
 21 46  1  0
 21 22  1  0
 21 69  1  6
 22 23  1  0
 22 70  1  0
 22 71  1  0
 23 26  1  0
 23 24  1  0
 23 72  1  1
 24 25  1  0
 24 46  1  0
 24 73  1  1
 25 26  1  0
 26 27  1  1
 26 28  1  0
 27 74  1  0
 27 75  1  0
 27 76  1  0
 28 29  1  0
 28 34  1  0
 28 77  1  1
 29 30  2  0
 29 31  1  6
 31 32  1  0
 31 33  1  0
 32 78  1  0
 32 79  1  0
 32 80  1  0
 33 81  1  0
 33 82  1  0
 33 83  1  0
 34 44  1  0
 34 35  1  6
 35 36  1  0
 35 84  1  0
 35 85  1  0
 36 37  1  0
 36 38  1  0
 36 86  1  6
 37 87  1  0
 37 88  1  0
 38 39  1  6
 38 40  1  0
 39 89  1  0
 39 90  1  0
 39 91  1  0
 40 41  2  0
 40 42  1  0
 42 43  1  6
 42 44  1  0
 43 92  1  0
 44 45  1  0
 44 93  1  1
 45 94  1  0
 46 47  1  0
 46 95  1  1
 47 96  1  0
M  END
>  <i_m_ct_stereo_status>  (26) 
1

>  <s_m_source_file>  (26) 
/var/tmp/pbs.5075288.sched01/tmpye5xf5zc/0p3ozm_yu.sdf

>  <i_m_source_file_index>  (26) 
50

>  <i_lp_mmshare_version>  (26) 
48012

>  <i_f3d_flags>  (26) 
0

>  <s_epik_input>  (26) 
Tz1DMVtDQEBdKFtPSF0pKFtDQEhdMltPSF0pW0NAXShbQ0gyXU8zKShbQ0gzXSlbQ0BIXShbQ0BAXTQoW0NIM10pW09IXSlbQ0BASF0zW0NAQF0oT0MoPU8pW0NIM10pKEMyNVtDSDJdW0NAQEhdKFtOSDJdKVtDQEBdMShbQ0BAXTQ2NylbQ0gzXSlbQ0BIXShDKE82KShbQ0gzXSlbQ0gzXSlbQ0BIXThbQ0gyXVtDQEBIXTlbQ0BIXShbQ0BIXThbT0hdKU9bQ0BdOShbQ0gzXSlbQ0BASF01W1MrXShbTy1dKUM3KFtDSDNdKVtDSDNd

>  <s_epik_cmdline>  (26) 
J2VwaWtfcHl0aG9uJywgJy1waHQnLCAnMi4wJywgJy1waCcsICc3LjAnLCAnLXRuJywgJzgnLCAnLW1hJywgJzIwMCcsICctaW1hZScsICc8aW5maWxlLm1hZT4nLCAnLW9tYWUnLCAnPG91dGZpbGUubWFlPic=

>  <r_epik_Ionization_Penalty>  (26) 
2.18142

>  <r_epik_Ionization_Penalty_Charging>  (26) 
0

>  <r_epik_Ionization_Penalty_Neutral>  (26) 
2.18142

>  <r_epik_State_Penalty>  (26) 
2.32348

>  <r_epik_Charging_Adjusted_Penalty>  (26) 
2.32348

>  <i_epik_Tot_Q>  (26) 
0

>  <i_epik_Tot_abs_Q>  (26) 
2

>  <s_epik_Chemistry_Notes>  (26) 
This compound has an ester and may undergo hydrolysis at high or low pH.

>  <s_lp_Force_Field>  (26) 
OPLS3e

>  <r_lp_Energy>  (26) 
965.791

>  <b_lp_Chiralities_Consistent>  (26) 
1

>  <s_lp_Variant>  (26) 
19:0-4

>  <s_i_glide_gridfile>  (26) 
pfpi4k_grid

>  <i_i_glide_lignum>  (26) 
50

>  <i_i_glide_rotatable_bonds>  (26) 
6

>  <r_i_docking_score>  (26) 
-1.77053

>  <r_i_glide_ligand_efficiency>  (26) 
-0.0376709

>  <r_i_glide_ligand_efficiency_sa>  (26) 
-0.135948

>  <r_i_glide_ligand_efficiency_ln>  (26) 
-0.365047

>  <r_i_glide_gscore>  (26) 
-1.77053

>  <r_i_glide_lipo>  (26) 
-0.00743341

>  <r_i_glide_hbond>  (26) 
-0.130473

>  <r_i_glide_metal>  (26) 
-0

>  <r_i_glide_rewards>  (26) 
0

>  <r_i_glide_evdw>  (26) 
-13.2235

>  <r_i_glide_ecoul>  (26) 
-6.32564

>  <r_i_glide_erotb>  (26) 
0.0462146

>  <r_i_glide_esite>  (26) 
-0.0688171

>  <r_i_glide_emodel>  (26) 
-20.1261

>  <r_i_glide_energy>  (26) 
-19.5491

>  <r_i_glide_einternal>  (26) 
3.74112

>  <r_i_glide_intrahb_reward>  (26) 
-0

>  <i_i_glide_confnum>  (26) 
2

>  <i_i_glide_posenum>  (26) 
14

>  <r_i_glide_eff_state_penalty>  (26) 
0

>  <ligand_id>  (26) 
19

>  <original_smiles>  (26) 
CC(=O)OC12C3OCC4(C)C3C(C)(O)C35OC(C)(C)C1C1CC6C(OC6(C)C([S+]([O-])C3(C)C)C23CC(N)C5(C)C(=O)C4(O)C3O)C1O

>  <smiles>  (26) 
[H]OC1([H])C2([H])OC3(C([H])([H])[H])C4([H])S(=O)C(C([H])([H])[H])(C([H])([H])[H])C56OC(C([H])([H])[H])(C([H])([H])[H])C([H])(C1([H])C([H])([H])C23[H])C1(OC(=O)C([H])([H])[H])C2([H])OC([H])([H])C(C([H])([H])[H])(C3(O[H])C(=O)C5(C([H])([H])[H])C([H])(N([H])[H])C([H])([H])C41C3([H])O[H])C2([H])C6(O[H])C([H])([H])[H]

$$$$
19:3:2
     RDKit          3D

 96104  0  0  1  0  0  0  0  0999 V2000
    0.7961    8.0402    6.1144 C   0  0  0  0  0  0  0  0  0  0  0  0
    0.4676    6.5721    6.3353 C   0  0  0  0  0  0  0  0  0  0  0  0
   -0.2019    5.9509    5.5137 O   0  0  0  0  0  0  0  0  0  0  0  0
    0.9886    6.0971    7.4932 O   0  0  0  0  0  0  0  0  0  0  0  0
    0.9497    4.7285    7.9676 C   0  0  1  0  0  0  0  0  0  0  0  0
    2.3130    4.5996    9.1425 C   0  0  2  0  0  0  0  0  0  0  0  0
    3.1469    5.7665    9.1881 O   0  0  0  0  0  0  0  0  0  0  0  0
    4.5339    5.4378    8.9792 C   0  0  0  0  0  0  0  0  0  0  0  0
    4.6881    3.9626    8.4658 C   0  0  1  0  0  0  0  0  0  0  0  0
    6.1228    3.5499    8.9161 C   0  0  0  0  0  0  0  0  0  0  0  0
    3.4932    3.3712    9.1794 C   0  0  2  0  0  0  0  0  0  0  0  0
    3.3174    1.7591    8.8313 C   0  0  1  0  0  0  0  0  0  0  0  0
    4.6950    0.9387    8.8927 C   0  0  0  0  0  0  0  0  0  0  0  0
    3.2573    1.3605   10.2127 O   0  0  0  0  0  0  0  0  0  0  0  0
    2.1973    1.1424    7.5549 C   0  0  2  0  0  0  0  0  0  0  0  0
    0.6392    1.3701    7.0007 O   0  0  0  0  0  0  0  0  0  0  0  0
   -0.6461    2.3442    6.9183 C   0  0  0  0  0  0  0  0  0  0  0  0
   -1.3114    2.4526    5.4668 C   0  0  0  0  0  0  0  0  0  0  0  0
   -1.7400    1.3128    7.3394 C   0  0  0  0  0  0  0  0  0  0  0  0
   -0.5889    3.9777    7.6177 C   0  0  2  0  0  0  0  0  0  0  0  0
   -1.9713    4.3256    8.4085 C   0  0  1  0  0  0  0  0  0  0  0  0
   -2.3984    3.2735    9.5192 C   0  0  0  0  0  0  0  0  0  0  0  0
   -1.4176    3.4079   10.6735 C   0  0  2  0  0  0  0  0  0  0  0  0
   -1.2969    4.9089   10.7535 C   0  0  1  0  0  0  0  0  0  0  0  0
    0.1346    4.8152   10.6818 O   0  0  0  0  0  0  0  0  0  0  0  0
    0.1587    3.3415   10.5248 C   0  0  1  0  0  0  0  0  0  0  0  0
    0.8735    2.8699   11.8059 C   0  0  0  0  0  0  0  0  0  0  0  0
    0.8807    2.6464    9.1358 C   0  0  2  0  0  0  0  0  0  0  0  0
    0.7645    0.7153    9.4774 S   0  0  0  0  0  0  0  0  0  0  0  0
   -0.5402    0.1111   10.0026 O   0  0  0  0  0  0  0  0  0  0  0  0
    1.6352   -0.2140    8.1152 C   0  0  0  0  0  0  0  0  0  0  0  0
    0.6348   -1.0811    7.2609 C   0  0  0  0  0  0  0  0  0  0  0  0
    2.5083   -1.2803    8.8290 C   0  0  0  0  0  0  0  0  0  0  0  0
    1.6328    3.6420    7.4235 C   0  0  1  0  0  0  0  0  0  0  0  0
    1.4822    3.3605    5.7870 C   0  0  0  0  0  0  0  0  0  0  0  0
    2.1124    2.0789    5.1624 C   0  0  1  0  0  0  0  0  0  0  0  0
    2.7477    2.4143    3.8902 N   0  0  0  0  0  0  0  0  0  0  0  0
    3.0355    1.3619    6.1905 C   0  0  2  0  0  0  0  0  0  0  0  0
    3.4183   -0.0252    5.6033 C   0  0  0  0  0  0  0  0  0  0  0  0
    4.3502    2.2776    6.2820 C   0  0  0  0  0  0  0  0  0  0  0  0
    5.3885    1.8426    5.7784 O   0  0  0  0  0  0  0  0  0  0  0  0
    4.4069    3.7138    6.9499 C   0  0  2  0  0  0  0  0  0  0  0  0
    5.4851    4.4203    6.3364 O   0  0  0  0  0  0  0  0  0  0  0  0
    3.0712    4.4066    6.7815 C   0  0  1  0  0  0  0  0  0  0  0  0
    3.2491    5.2422    5.6091 O   0  0  0  0  0  0  0  0  0  0  0  0
   -1.9336    5.5085    9.4660 C   0  0  1  0  0  0  0  0  0  0  0  0
   -1.3699    6.7282    9.0410 O   0  0  0  0  0  0  0  0  0  0  0  0
    0.4267    8.6362    6.9483 H   0  0  0  0  0  0  0  0  0  0  0  0
    0.3416    8.4079    5.1930 H   0  0  0  0  0  0  0  0  0  0  0  0
    1.8751    8.1769    6.0366 H   0  0  0  0  0  0  0  0  0  0  0  0
    2.1390    4.7397   10.1897 H   0  0  0  0  0  0  0  0  0  0  0  0
    4.9941    6.1589    8.2998 H   0  0  0  0  0  0  0  0  0  0  0  0
    5.0352    5.5708    9.9406 H   0  0  0  0  0  0  0  0  0  0  0  0
    6.5311    2.7033    8.3677 H   0  0  0  0  0  0  0  0  0  0  0  0
    6.1702    3.3383    9.9847 H   0  0  0  0  0  0  0  0  0  0  0  0
    6.8311    4.3597    8.7357 H   0  0  0  0  0  0  0  0  0  0  0  0
    3.8328    3.4478   10.2182 H   0  0  0  0  0  0  0  0  0  0  0  0
    5.3326    0.9130    8.0241 H   0  0  0  0  0  0  0  0  0  0  0  0
    4.6138   -0.1205    9.0903 H   0  0  0  0  0  0  0  0  0  0  0  0
    5.3729    1.2669    9.6879 H   0  0  0  0  0  0  0  0  0  0  0  0
    2.4742    1.7107   10.6051 H   0  0  0  0  0  0  0  0  0  0  0  0
   -1.5019    3.4953    5.2103 H   0  0  0  0  0  0  0  0  0  0  0  0
   -2.2854    1.9955    5.2798 H   0  0  0  0  0  0  0  0  0  0  0  0
   -0.6800    2.0176    4.6958 H   0  0  0  0  0  0  0  0  0  0  0  0
   -2.7562    1.7110    7.3027 H   0  0  0  0  0  0  0  0  0  0  0  0
   -1.6176    0.8644    8.2950 H   0  0  0  0  0  0  0  0  0  0  0  0
   -1.7232    0.4440    6.6779 H   0  0  0  0  0  0  0  0  0  0  0  0
   -0.4670    4.2165    8.5839 H   0  0  0  0  0  0  0  0  0  0  0  0
   -2.7756    4.4680    7.6851 H   0  0  0  0  0  0  0  0  0  0  0  0
   -3.3855    3.5670    9.8800 H   0  0  0  0  0  0  0  0  0  0  0  0
   -2.6042    2.2475    9.3131 H   0  0  0  0  0  0  0  0  0  0  0  0
   -1.7659    2.9788   11.6145 H   0  0  0  0  0  0  0  0  0  0  0  0
   -1.6367    5.3313   11.6983 H   0  0  0  0  0  0  0  0  0  0  0  0
    0.7459    1.8036   11.9813 H   0  0  0  0  0  0  0  0  0  0  0  0
    0.4587    3.3592   12.6882 H   0  0  0  0  0  0  0  0  0  0  0  0
    1.9358    3.0982   11.7965 H   0  0  0  0  0  0  0  0  0  0  0  0
   -0.0954    2.2481    9.0122 H   0  0  0  0  0  0  0  0  0  0  0  0
    1.0196   -2.0873    7.0891 H   0  0  0  0  0  0  0  0  0  0  0  0
    0.4303   -0.7265    6.2505 H   0  0  0  0  0  0  0  0  0  0  0  0
   -0.3133   -1.2103    7.7750 H   0  0  0  0  0  0  0  0  0  0  0  0
    3.3323   -1.6211    8.2025 H   0  0  0  0  0  0  0  0  0  0  0  0
    1.9284   -2.1722    9.0676 H   0  0  0  0  0  0  0  0  0  0  0  0
    2.8786   -0.9881    9.8064 H   0  0  0  0  0  0  0  0  0  0  0  0
    0.5460    3.6238    5.4075 H   0  0  0  0  0  0  0  0  0  0  0  0
    1.5775    4.1174    5.0256 H   0  0  0  0  0  0  0  0  0  0  0  0
    1.3321    1.3797    4.8625 H   0  0  0  0  0  0  0  0  0  0  0  0
    3.1451    1.5845    3.4680 H   0  0  0  0  0  0  0  0  0  0  0  0
    2.0566    2.7583    3.2352 H   0  0  0  0  0  0  0  0  0  0  0  0
    2.5392   -0.6159    5.3460 H   0  0  0  0  0  0  0  0  0  0  0  0
    4.0221   -0.6069    6.2996 H   0  0  0  0  0  0  0  0  0  0  0  0
    3.9986    0.0602    4.6822 H   0  0  0  0  0  0  0  0  0  0  0  0
    5.1900    4.6506    5.4674 H   0  0  0  0  0  0  0  0  0  0  0  0
    3.1489    5.4259    7.0979 H   0  0  0  0  0  0  0  0  0  0  0  0
    3.0800    4.7179    4.8343 H   0  0  0  0  0  0  0  0  0  0  0  0
   -2.9714    5.7676    9.6963 H   0  0  0  0  0  0  0  0  0  0  0  0
   -0.4305    6.6103    8.9622 H   0  0  0  0  0  0  0  0  0  0  0  0
  1  2  1  0
  1 48  1  0
  1 49  1  0
  1 50  1  0
  2  3  2  0
  2  4  1  0
  5  4  1  6
  5 20  1  0
  5 34  1  0
  5  6  1  0
  6 11  1  0
  6  7  1  0
  6 51  1  1
  7  8  1  0
  8  9  1  0
  8 52  1  0
  8 53  1  0
  9 42  1  0
  9 10  1  1
  9 11  1  0
 10 54  1  0
 10 55  1  0
 10 56  1  0
 11 12  1  0
 11 57  1  1
 12 13  1  0
 12 14  1  1
 12 15  1  0
 13 58  1  0
 13 59  1  0
 13 60  1  0
 14 61  1  0
 15 31  1  0
 15 38  1  0
 15 16  1  6
 16 17  1  0
 17 18  1  0
 17 19  1  0
 17 20  1  0
 18 62  1  0
 18 63  1  0
 18 64  1  0
 19 65  1  0
 19 66  1  0
 19 67  1  0
 20 21  1  0
 20 68  1  6
 21 46  1  0
 21 22  1  0
 21 69  1  6
 22 23  1  0
 22 70  1  0
 22 71  1  0
 23 26  1  0
 23 24  1  0
 23 72  1  1
 24 25  1  0
 24 46  1  0
 24 73  1  1
 25 26  1  0
 26 27  1  1
 26 28  1  0
 27 74  1  0
 27 75  1  0
 27 76  1  0
 28 29  1  0
 28 34  1  0
 28 77  1  1
 29 30  2  0
 29 31  1  6
 31 32  1  0
 31 33  1  0
 32 78  1  0
 32 79  1  0
 32 80  1  0
 33 81  1  0
 33 82  1  0
 33 83  1  0
 34 44  1  0
 34 35  1  6
 35 36  1  0
 35 84  1  0
 35 85  1  0
 36 37  1  0
 36 38  1  0
 36 86  1  6
 37 87  1  0
 37 88  1  0
 38 39  1  6
 38 40  1  0
 39 89  1  0
 39 90  1  0
 39 91  1  0
 40 41  2  0
 40 42  1  0
 42 43  1  6
 42 44  1  0
 43 92  1  0
 44 45  1  0
 44 93  1  1
 45 94  1  0
 46 47  1  0
 46 95  1  1
 47 96  1  0
M  END
>  <i_m_ct_stereo_status>  (27) 
1

>  <s_m_source_file>  (27) 
/var/tmp/pbs.5075288.sched01/tmpye5xf5zc/0p3ozm_yu.sdf

>  <i_m_source_file_index>  (27) 
50

>  <i_lp_mmshare_version>  (27) 
48012

>  <i_f3d_flags>  (27) 
0

>  <s_epik_input>  (27) 
Tz1DMVtDQEBdKFtPSF0pKFtDQEhdMltPSF0pW0NAXShbQ0gyXU8zKShbQ0gzXSlbQ0BIXShbQ0BAXTQoW0NIM10pW09IXSlbQ0BASF0zW0NAQF0oT0MoPU8pW0NIM10pKEMyNVtDSDJdW0NAQEhdKFtOSDJdKVtDQEBdMShbQ0BAXTQ2NylbQ0gzXSlbQ0BIXShDKE82KShbQ0gzXSlbQ0gzXSlbQ0BIXThbQ0gyXVtDQEBIXTlbQ0BIXShbQ0BIXThbT0hdKU9bQ0BdOShbQ0gzXSlbQ0BASF01W1MrXShbTy1dKUM3KFtDSDNdKVtDSDNd

>  <s_epik_cmdline>  (27) 
J2VwaWtfcHl0aG9uJywgJy1waHQnLCAnMi4wJywgJy1waCcsICc3LjAnLCAnLXRuJywgJzgnLCAnLW1hJywgJzIwMCcsICctaW1hZScsICc8aW5maWxlLm1hZT4nLCAnLW9tYWUnLCAnPG91dGZpbGUubWFlPic=

>  <r_epik_Ionization_Penalty>  (27) 
2.18142

>  <r_epik_Ionization_Penalty_Charging>  (27) 
0

>  <r_epik_Ionization_Penalty_Neutral>  (27) 
2.18142

>  <r_epik_State_Penalty>  (27) 
2.32348

>  <r_epik_Charging_Adjusted_Penalty>  (27) 
2.32348

>  <i_epik_Tot_Q>  (27) 
0

>  <i_epik_Tot_abs_Q>  (27) 
2

>  <s_epik_Chemistry_Notes>  (27) 
This compound has an ester and may undergo hydrolysis at high or low pH.

>  <s_lp_Force_Field>  (27) 
OPLS3e

>  <r_lp_Energy>  (27) 
965.791

>  <b_lp_Chiralities_Consistent>  (27) 
1

>  <s_lp_Variant>  (27) 
19:0-4

>  <s_i_glide_gridfile>  (27) 
pfpi4k_grid

>  <i_i_glide_lignum>  (27) 
50

>  <i_i_glide_rotatable_bonds>  (27) 
6

>  <r_i_docking_score>  (27) 
-1.30122

>  <r_i_glide_ligand_efficiency>  (27) 
-0.0276855

>  <r_i_glide_ligand_efficiency_sa>  (27) 
-0.099912

>  <r_i_glide_ligand_efficiency_ln>  (27) 
-0.268284

>  <r_i_glide_gscore>  (27) 
-1.30122

>  <r_i_glide_lipo>  (27) 
-0.00491365

>  <r_i_glide_hbond>  (27) 
0

>  <r_i_glide_metal>  (27) 
-0

>  <r_i_glide_rewards>  (27) 
-0.00277318

>  <r_i_glide_evdw>  (27) 
-19.2072

>  <r_i_glide_ecoul>  (27) 
-2.37109

>  <r_i_glide_erotb>  (27) 
0.0462146

>  <r_i_glide_esite>  (27) 
-0.0237197

>  <r_i_glide_emodel>  (27) 
-21.5086

>  <r_i_glide_energy>  (27) 
-21.5783

>  <r_i_glide_einternal>  (27) 
3.64903

>  <r_i_glide_intrahb_reward>  (27) 
-0

>  <i_i_glide_confnum>  (27) 
2

>  <i_i_glide_posenum>  (27) 
5

>  <r_i_glide_eff_state_penalty>  (27) 
0

>  <ligand_id>  (27) 
19

>  <original_smiles>  (27) 
CC(=O)OC12C3OCC4(C)C3C(C)(O)C35OC(C)(C)C1C1CC6C(OC6(C)C([S+]([O-])C3(C)C)C23CC(N)C5(C)C(=O)C4(O)C3O)C1O

>  <smiles>  (27) 
[H]OC1([H])C2([H])OC3(C([H])([H])[H])C4([H])S(=O)C(C([H])([H])[H])(C([H])([H])[H])C56OC(C([H])([H])[H])(C([H])([H])[H])C([H])(C1([H])C([H])([H])C23[H])C1(OC(=O)C([H])([H])[H])C2([H])OC([H])([H])C(C([H])([H])[H])(C3(O[H])C(=O)C5(C([H])([H])[H])C([H])(N([H])[H])C([H])([H])C41C3([H])O[H])C2([H])C6(O[H])C([H])([H])[H]

$$$$
19:4:0
     RDKit          3D

 96104  0  0  1  0  0  0  0  0999 V2000
   -0.0747   -2.2063    4.2408 C   0  0  0  0  0  0  0  0  0  0  0  0
    0.9592   -3.2536    4.6156 C   0  0  0  0  0  0  0  0  0  0  0  0
    1.5741   -3.1602    5.6762 O   0  0  0  0  0  0  0  0  0  0  0  0
    1.0992   -4.1951    3.6529 O   0  0  0  0  0  0  0  0  0  0  0  0
    2.1594   -5.1823    3.5502 C   0  0  1  0  0  0  0  0  0  0  0  0
    1.5658   -6.4250    2.3832 C   0  0  2  0  0  0  0  0  0  0  0  0
    0.1974   -6.2616    1.9874 O   0  0  0  0  0  0  0  0  0  0  0  0
   -0.5724   -7.4577    2.2120 C   0  0  0  0  0  0  0  0  0  0  0  0
    0.2381   -8.4798    3.0735 C   0  0  1  0  0  0  0  0  0  0  0  0
   -0.3629   -9.8694    2.6844 C   0  0  0  0  0  0  0  0  0  0  0  0
    1.6256   -8.1136    2.6089 C   0  0  2  0  0  0  0  0  0  0  0  0
    2.7925   -9.0040    3.3703 C   0  0  1  0  0  0  0  0  0  0  0  0
    2.4362  -10.5644    3.4232 C   0  0  0  0  0  0  0  0  0  0  0  0
    3.4808   -9.3548    2.1767 O   0  0  0  0  0  0  0  0  0  0  0  0
    3.6843   -8.4307    4.8167 C   0  0  2  0  0  0  0  0  0  0  0  0
    4.4421   -7.0668    5.4051 O   0  0  0  0  0  0  0  0  0  0  0  0
    4.6983   -5.4942    5.2355 C   0  0  0  0  0  0  0  0  0  0  0  0
    4.7976   -4.7222    6.6320 C   0  0  0  0  0  0  0  0  0  0  0  0
    6.2685   -5.4702    5.1088 C   0  0  0  0  0  0  0  0  0  0  0  0
    3.6588   -4.5276    4.1535 C   0  0  2  0  0  0  0  0  0  0  0  0
    4.5128   -3.3836    3.3725 C   0  0  1  0  0  0  0  0  0  0  0  0
    5.7714   -3.9263    2.5686 C   0  0  0  0  0  0  0  0  0  0  0  0
    5.2556   -4.6951    1.3780 C   0  0  2  0  0  0  0  0  0  0  0  0
    4.1379   -3.8081    0.9233 C   0  0  1  0  0  0  0  0  0  0  0  0
    3.2253   -4.9026    0.9682 O   0  0  0  0  0  0  0  0  0  0  0  0
    4.2114   -5.8630    1.4791 C   0  0  1  0  0  0  0  0  0  0  0  0
    4.2896   -6.8411    0.3153 C   0  0  0  0  0  0  0  0  0  0  0  0
    3.8960   -6.6931    2.9513 C   0  0  2  0  0  0  0  0  0  0  0  0
    5.4667   -7.8394    3.2488 S   0  0  0  0  0  0  0  0  0  0  0  0
    6.0556   -8.5428    2.0354 O   0  0  0  0  0  0  0  0  0  0  0  0
    5.1195   -9.0151    4.6658 C   0  0  0  0  0  0  0  0  0  0  0  0
    6.1697   -8.8124    5.8171 C   0  0  0  0  0  0  0  0  0  0  0  0
    5.4383  -10.4520    4.1720 C   0  0  0  0  0  0  0  0  0  0  0  0
    2.3148   -6.3134    4.3171 C   0  0  1  0  0  0  0  0  0  0  0  0
    2.2452   -6.1381    5.9656 C   0  0  0  0  0  0  0  0  0  0  0  0
    2.5123   -7.3706    6.8740 C   0  0  1  0  0  0  0  0  0  0  0  0
    1.5213   -7.4074    7.9458 N   0  0  0  0  0  0  0  0  0  0  0  0
    2.6420   -8.6794    6.0253 C   0  0  2  0  0  0  0  0  0  0  0  0
    3.2012   -9.7849    6.9723 C   0  0  0  0  0  0  0  0  0  0  0  0
    1.1318   -9.0459    5.6113 C   0  0  0  0  0  0  0  0  0  0  0  0
    0.5808   -9.9914    6.1421 O   0  0  0  0  0  0  0  0  0  0  0  0
    0.2680   -8.2102    4.5908 C   0  0  2  0  0  0  0  0  0  0  0  0
   -1.1087   -8.4350    4.8850 O   0  0  0  0  0  0  0  0  0  0  0  0
    0.6665   -6.7535    4.6509 C   0  0  1  0  0  0  0  0  0  0  0  0
   -0.2702   -6.1664    5.5744 O   0  0  0  0  0  0  0  0  0  0  0  0
    3.8809   -2.7684    2.0413 C   0  0  1  0  0  0  0  0  0  0  0  0
    2.5772   -2.2518    2.0907 O   0  0  0  0  0  0  0  0  0  0  0  0
    0.2112   -1.7387    3.2987 H   0  0  0  0  0  0  0  0  0  0  0  0
   -0.1530   -1.4341    5.0055 H   0  0  0  0  0  0  0  0  0  0  0  0
   -1.0481   -2.6577    4.1145 H   0  0  0  0  0  0  0  0  0  0  0  0
    1.8180   -6.3595    1.3467 H   0  0  0  0  0  0  0  0  0  0  0  0
   -1.5399   -7.2160    2.6604 H   0  0  0  0  0  0  0  0  0  0  0  0
   -0.8038   -7.8667    1.2290 H   0  0  0  0  0  0  0  0  0  0  0  0
   -0.1705  -10.6557    3.4126 H   0  0  0  0  0  0  0  0  0  0  0  0
   -0.0172  -10.2140    1.7129 H   0  0  0  0  0  0  0  0  0  0  0  0
   -1.4514   -9.8205    2.6151 H   0  0  0  0  0  0  0  0  0  0  0  0
    1.5846   -8.4670    1.5732 H   0  0  0  0  0  0  0  0  0  0  0  0
    1.8311  -10.9389    4.2362 H   0  0  0  0  0  0  0  0  0  0  0  0
    3.2674  -11.2540    3.4770 H   0  0  0  0  0  0  0  0  0  0  0  0
    1.9212  -10.9180    2.5251 H   0  0  0  0  0  0  0  0  0  0  0  0
    3.0864  -10.1316    1.7721 H   0  0  0  0  0  0  0  0  0  0  0  0
    4.1636   -3.8348    6.6292 H   0  0  0  0  0  0  0  0  0  0  0  0
    5.7589   -4.3235    6.9665 H   0  0  0  0  0  0  0  0  0  0  0  0
    4.4986   -5.3603    7.4604 H   0  0  0  0  0  0  0  0  0  0  0  0
    6.6731   -4.4593    5.1240 H   0  0  0  0  0  0  0  0  0  0  0  0
    6.7490   -5.9685    4.2814 H   0  0  0  0  0  0  0  0  0  0  0  0
    6.7208   -5.9932    5.9534 H   0  0  0  0  0  0  0  0  0  0  0  0
    3.6188   -4.5721    3.1534 H   0  0  0  0  0  0  0  0  0  0  0  0
    4.8087   -2.5991    4.0762 H   0  0  0  0  0  0  0  0  0  0  0  0
    6.3149   -3.0617    2.1924 H   0  0  0  0  0  0  0  0  0  0  0  0
    6.5612   -4.4911    2.9971 H   0  0  0  0  0  0  0  0  0  0  0  0
    5.9813   -4.8731    0.5875 H   0  0  0  0  0  0  0  0  0  0  0  0
    4.2890   -3.4208   -0.0833 H   0  0  0  0  0  0  0  0  0  0  0  0
    5.2285   -7.3745    0.2779 H   0  0  0  0  0  0  0  0  0  0  0  0
    4.2090   -6.3394   -0.6480 H   0  0  0  0  0  0  0  0  0  0  0  0
    3.5003   -7.5633    0.4290 H   0  0  0  0  0  0  0  0  0  0  0  0
    4.8123   -6.2263    3.2059 H   0  0  0  0  0  0  0  0  0  0  0  0
    6.4057   -9.7657    6.2916 H   0  0  0  0  0  0  0  0  0  0  0  0
    5.8845   -8.1824    6.6578 H   0  0  0  0  0  0  0  0  0  0  0  0
    7.1085   -8.4301    5.4184 H   0  0  0  0  0  0  0  0  0  0  0  0
    4.9658  -11.2059    4.8001 H   0  0  0  0  0  0  0  0  0  0  0  0
    6.5075  -10.6495    4.2257 H   0  0  0  0  0  0  0  0  0  0  0  0
    5.2214  -10.6517    3.1293 H   0  0  0  0  0  0  0  0  0  0  0  0
    2.6936   -5.2709    6.3362 H   0  0  0  0  0  0  0  0  0  0  0  0
    1.5083   -5.5310    6.4782 H   0  0  0  0  0  0  0  0  0  0  0  0
    3.4461   -7.2305    7.4246 H   0  0  0  0  0  0  0  0  0  0  0  0
    1.7504   -8.1654    8.5799 H   0  0  0  0  0  0  0  0  0  0  0  0
    1.5857   -6.5572    8.4953 H   0  0  0  0  0  0  0  0  0  0  0  0
    4.1268   -9.4719    7.4619 H   0  0  0  0  0  0  0  0  0  0  0  0
    3.4079  -10.7144    6.4395 H   0  0  0  0  0  0  0  0  0  0  0  0
    2.5144  -10.0428    7.7828 H   0  0  0  0  0  0  0  0  0  0  0  0
   -1.2717   -9.3746    4.9172 H   0  0  0  0  0  0  0  0  0  0  0  0
   -0.0301   -6.1601    4.0927 H   0  0  0  0  0  0  0  0  0  0  0  0
   -0.0598   -6.4917    6.4546 H   0  0  0  0  0  0  0  0  0  0  0  0
    4.4709   -1.8762    1.8099 H   0  0  0  0  0  0  0  0  0  0  0  0
    2.3689   -1.8530    1.2463 H   0  0  0  0  0  0  0  0  0  0  0  0
  1  2  1  0
  1 48  1  0
  1 49  1  0
  1 50  1  0
  2  3  2  0
  2  4  1  0
  5  4  1  1
  5 20  1  0
  5 34  1  0
  5  6  1  0
  6 11  1  0
  6  7  1  0
  6 51  1  6
  7  8  1  0
  8  9  1  0
  8 52  1  0
  8 53  1  0
  9 42  1  0
  9 10  1  1
  9 11  1  0
 10 54  1  0
 10 55  1  0
 10 56  1  0
 11 12  1  0
 11 57  1  6
 12 13  1  0
 12 14  1  6
 12 15  1  0
 13 58  1  0
 13 59  1  0
 13 60  1  0
 14 61  1  0
 15 31  1  0
 15 38  1  0
 15 16  1  6
 16 17  1  0
 17 18  1  0
 17 19  1  0
 17 20  1  0
 18 62  1  0
 18 63  1  0
 18 64  1  0
 19 65  1  0
 19 66  1  0
 19 67  1  0
 20 21  1  0
 20 68  1  1
 21 46  1  0
 21 22  1  0
 21 69  1  1
 22 23  1  0
 22 70  1  0
 22 71  1  0
 23 26  1  0
 23 24  1  0
 23 72  1  6
 24 25  1  0
 24 46  1  0
 24 73  1  6
 25 26  1  0
 26 27  1  6
 26 28  1  0
 27 74  1  0
 27 75  1  0
 27 76  1  0
 28 29  1  0
 28 34  1  0
 28 77  1  6
 29 30  2  0
 29 31  1  1
 31 32  1  0
 31 33  1  0
 32 78  1  0
 32 79  1  0
 32 80  1  0
 33 81  1  0
 33 82  1  0
 33 83  1  0
 34 44  1  0
 34 35  1  1
 35 36  1  0
 35 84  1  0
 35 85  1  0
 36 37  1  0
 36 38  1  0
 36 86  1  1
 37 87  1  0
 37 88  1  0
 38 39  1  1
 38 40  1  0
 39 89  1  0
 39 90  1  0
 39 91  1  0
 40 41  2  0
 40 42  1  0
 42 43  1  1
 42 44  1  0
 43 92  1  0
 44 45  1  0
 44 93  1  6
 45 94  1  0
 46 47  1  0
 46 95  1  6
 47 96  1  0
M  END
>  <i_m_ct_stereo_status>  (28) 
1

>  <s_m_source_file>  (28) 
/var/tmp/pbs.5075288.sched01/tmpye5xf5zc/0p3ozm_yu.sdf

>  <i_m_source_file_index>  (28) 
51

>  <i_lp_mmshare_version>  (28) 
48012

>  <i_f3d_flags>  (28) 
0

>  <s_epik_input>  (28) 
Tz1DMVtDQEBdKFtPSF0pKFtDQEhdMltPSF0pW0NAXShbQ0gyXU8zKShbQ0gzXSlbQ0BIXShbQ0BAXTQoW0NIM10pW09IXSlbQ0BASF0zW0NAQF0oT0MoPU8pW0NIM10pKEMyNVtDSDJdW0NAQEhdKFtOSDJdKVtDQEBdMShbQ0BAXTQ2NylbQ0gzXSlbQ0BIXShDKE82KShbQ0gzXSlbQ0gzXSlbQ0BIXThbQ0gyXVtDQEBIXTlbQ0BIXShbQ0BIXThbT0hdKU9bQ0BdOShbQ0gzXSlbQ0BASF01W1MrXShbTy1dKUM3KFtDSDNdKVtDSDNd

>  <s_epik_cmdline>  (28) 
J2VwaWtfcHl0aG9uJywgJy1waHQnLCAnMi4wJywgJy1waCcsICc3LjAnLCAnLXRuJywgJzgnLCAnLW1hJywgJzIwMCcsICctaW1hZScsICc8aW5maWxlLm1hZT4nLCAnLW9tYWUnLCAnPG91dGZpbGUubWFlPic=

>  <r_epik_Ionization_Penalty>  (28) 
2.18142

>  <r_epik_Ionization_Penalty_Charging>  (28) 
0

>  <r_epik_Ionization_Penalty_Neutral>  (28) 
2.18142

>  <r_epik_State_Penalty>  (28) 
2.32348

>  <r_epik_Charging_Adjusted_Penalty>  (28) 
2.32348

>  <i_epik_Tot_Q>  (28) 
0

>  <i_epik_Tot_abs_Q>  (28) 
2

>  <s_epik_Chemistry_Notes>  (28) 
This compound has an ester and may undergo hydrolysis at high or low pH.

>  <s_lp_Force_Field>  (28) 
OPLS3e

>  <r_lp_Energy>  (28) 
962.673

>  <b_lp_Chiralities_Consistent>  (28) 
1

>  <s_lp_Variant>  (28) 
19:0-5

>  <s_i_glide_gridfile>  (28) 
pfpi4k_grid

>  <i_i_glide_lignum>  (28) 
51

>  <i_i_glide_rotatable_bonds>  (28) 
6

>  <r_i_docking_score>  (28) 
-2.96556

>  <r_i_glide_ligand_efficiency>  (28) 
-0.063097

>  <r_i_glide_ligand_efficiency_sa>  (28) 
-0.227706

>  <r_i_glide_ligand_efficiency_ln>  (28) 
-0.611437

>  <r_i_glide_gscore>  (28) 
-2.96556

>  <r_i_glide_lipo>  (28) 
-0.353704

>  <r_i_glide_hbond>  (28) 
-0.266023

>  <r_i_glide_metal>  (28) 
-0

>  <r_i_glide_rewards>  (28) 
-0.0252132

>  <r_i_glide_evdw>  (28) 
-27.0669

>  <r_i_glide_ecoul>  (28) 
-6.52084

>  <r_i_glide_erotb>  (28) 
0.0462146

>  <r_i_glide_esite>  (28) 
-0.0353624

>  <r_i_glide_emodel>  (28) 
-36.7503

>  <r_i_glide_energy>  (28) 
-33.5877

>  <r_i_glide_einternal>  (28) 
5.56904

>  <r_i_glide_intrahb_reward>  (28) 
-0

>  <i_i_glide_confnum>  (28) 
2

>  <i_i_glide_posenum>  (28) 
24

>  <r_i_glide_eff_state_penalty>  (28) 
0

>  <ligand_id>  (28) 
19

>  <original_smiles>  (28) 
CC(=O)OC12C3OCC4(C)C3C(C)(O)C35OC(C)(C)C1C1CC6C(OC6(C)C([S+]([O-])C3(C)C)C23CC(N)C5(C)C(=O)C4(O)C3O)C1O

>  <smiles>  (28) 
[H]OC1([H])C2([H])OC3(C([H])([H])[H])C4([H])S(=O)C(C([H])([H])[H])(C([H])([H])[H])C56OC(C([H])([H])[H])(C([H])([H])[H])C([H])(C1([H])C([H])([H])C23[H])C1(OC(=O)C([H])([H])[H])C2([H])OC([H])([H])C(C([H])([H])[H])(C3(O[H])C(=O)C5(C([H])([H])[H])C([H])(N([H])[H])C([H])([H])C41C3([H])O[H])C2([H])C6(O[H])C([H])([H])[H]

$$$$
19:4:1
     RDKit          3D

 96104  0  0  1  0  0  0  0  0999 V2000
    3.0349   -3.9383   -0.3813 C   0  0  0  0  0  0  0  0  0  0  0  0
    3.2668   -5.0698    0.6184 C   0  0  0  0  0  0  0  0  0  0  0  0
    4.0187   -6.0066    0.3392 O   0  0  0  0  0  0  0  0  0  0  0  0
    2.5432   -4.9033    1.7461 O   0  0  0  0  0  0  0  0  0  0  0  0
    2.5168   -5.7793    2.8985 C   0  0  1  0  0  0  0  0  0  0  0  0
    1.8982   -4.7614    4.2591 C   0  0  2  0  0  0  0  0  0  0  0  0
    1.7253   -3.3746    3.9148 O   0  0  0  0  0  0  0  0  0  0  0  0
    2.4238   -2.5158    4.8388 C   0  0  0  0  0  0  0  0  0  0  0  0
    3.3755   -3.3394    5.7580 C   0  0  1  0  0  0  0  0  0  0  0  0
    3.5154   -2.4774    7.0531 C   0  0  0  0  0  0  0  0  0  0  0  0
    2.5848   -4.6252    5.8019 C   0  0  2  0  0  0  0  0  0  0  0  0
    3.3515   -5.8007    6.6884 C   0  0  1  0  0  0  0  0  0  0  0  0
    3.9067   -5.2418    8.0861 C   0  0  0  0  0  0  0  0  0  0  0  0
    2.1954   -6.1071    7.4779 O   0  0  0  0  0  0  0  0  0  0  0  0
    4.3802   -7.0773    5.9643 C   0  0  2  0  0  0  0  0  0  0  0  0
    4.3976   -8.1367    4.6864 O   0  0  0  0  0  0  0  0  0  0  0  0
    3.7263   -8.5716    3.2804 C   0  0  0  0  0  0  0  0  0  0  0  0
    4.7970   -9.0988    2.2268 C   0  0  0  0  0  0  0  0  0  0  0  0
    3.3110  -10.0605    3.6206 C   0  0  0  0  0  0  0  0  0  0  0  0
    2.6260   -7.4583    2.4329 C   0  0  2  0  0  0  0  0  0  0  0  0
    1.4018   -8.2698    1.7296 C   0  0  1  0  0  0  0  0  0  0  0  0
    0.5826   -9.2173    2.6971 C   0  0  0  0  0  0  0  0  0  0  0  0
   -0.2040   -8.3367    3.6437 C   0  0  2  0  0  0  0  0  0  0  0  0
   -0.7020   -7.2782    2.7005 C   0  0  1  0  0  0  0  0  0  0  0  0
   -0.1804   -6.2584    3.5166 O   0  0  0  0  0  0  0  0  0  0  0  0
    0.4056   -7.1509    4.5053 C   0  0  1  0  0  0  0  0  0  0  0  0
   -0.4227   -6.7944    5.7257 C   0  0  0  0  0  0  0  0  0  0  0  0
    2.0984   -7.0931    4.8384 C   0  0  2  0  0  0  0  0  0  0  0  0
    2.4045   -8.5214    6.1686 S   0  0  0  0  0  0  0  0  0  0  0  0
    1.3581   -8.5663    7.2901 O   0  0  0  0  0  0  0  0  0  0  0  0
    4.1360   -8.3334    6.8515 C   0  0  0  0  0  0  0  0  0  0  0  0
    4.9700   -9.6445    6.5841 C   0  0  0  0  0  0  0  0  0  0  0  0
    4.0341   -8.3192    8.4003 C   0  0  0  0  0  0  0  0  0  0  0  0
    3.5474   -5.9493    3.8191 C   0  0  1  0  0  0  0  0  0  0  0  0
    5.0625   -6.2898    3.2260 C   0  0  0  0  0  0  0  0  0  0  0  0
    6.2191   -6.5833    4.2223 C   0  0  1  0  0  0  0  0  0  0  0  0
    7.4313   -5.8899    3.7991 N   0  0  0  0  0  0  0  0  0  0  0  0
    5.7871   -6.3079    5.7018 C   0  0  2  0  0  0  0  0  0  0  0  0
    6.8828   -6.9210    6.6147 C   0  0  0  0  0  0  0  0  0  0  0  0
    5.7726   -4.7160    5.8361 C   0  0  0  0  0  0  0  0  0  0  0  0
    6.6682   -4.1807    6.5108 O   0  0  0  0  0  0  0  0  0  0  0  0
    4.7388   -3.7578    5.1306 C   0  0  2  0  0  0  0  0  0  0  0  0
    5.3477   -2.4834    4.9501 O   0  0  0  0  0  0  0  0  0  0  0  0
    4.2985   -4.3802    3.8184 C   0  0  1  0  0  0  0  0  0  0  0  0
    5.1889   -3.7509    2.8566 O   0  0  0  0  0  0  0  0  0  0  0  0
    0.0892   -7.4376    1.3800 C   0  0  1  0  0  0  0  0  0  0  0  0
    0.2705   -6.2550    0.6219 O   0  0  0  0  0  0  0  0  0  0  0  0
    1.9823   -3.8953   -0.6432 H   0  0  0  0  0  0  0  0  0  0  0  0
    3.6094   -4.1085   -1.2859 H   0  0  0  0  0  0  0  0  0  0  0  0
    3.3274   -2.9745    0.0445 H   0  0  0  0  0  0  0  0  0  0  0  0
    0.8502   -4.7653    4.5096 H   0  0  0  0  0  0  0  0  0  0  0  0
    2.9447   -1.7241    4.3030 H   0  0  0  0  0  0  0  0  0  0  0  0
    1.6566   -2.0073    5.4304 H   0  0  0  0  0  0  0  0  0  0  0  0
    4.3876   -2.7201    7.6638 H   0  0  0  0  0  0  0  0  0  0  0  0
    2.6222   -2.5324    7.6767 H   0  0  0  0  0  0  0  0  0  0  0  0
    3.6447   -1.4234    6.8036 H   0  0  0  0  0  0  0  0  0  0  0  0
    1.7255   -4.2856    6.3944 H   0  0  0  0  0  0  0  0  0  0  0  0
    4.8907   -4.7890    8.1117 H   0  0  0  0  0  0  0  0  0  0  0  0
    4.0060   -5.9582    8.8854 H   0  0  0  0  0  0  0  0  0  0  0  0
    3.2511   -4.4982    8.5417 H   0  0  0  0  0  0  0  0  0  0  0  0
    1.6271   -6.7087    7.0234 H   0  0  0  0  0  0  0  0  0  0  0  0
    4.6555   -8.6135    1.2595 H   0  0  0  0  0  0  0  0  0  0  0  0
    4.8161  -10.1549    1.9584 H   0  0  0  0  0  0  0  0  0  0  0  0
    5.8187   -8.9101    2.5637 H   0  0  0  0  0  0  0  0  0  0  0  0
    2.9579  -10.6110    2.7420 H   0  0  0  0  0  0  0  0  0  0  0  0
    2.5868  -10.2491    4.3942 H   0  0  0  0  0  0  0  0  0  0  0  0
    4.1736  -10.6177    3.9896 H   0  0  0  0  0  0  0  0  0  0  0  0
    1.7194   -7.1856    2.7337 H   0  0  0  0  0  0  0  0  0  0  0  0
    1.7964   -8.8172    0.8798 H   0  0  0  0  0  0  0  0  0  0  0  0
   -0.1351   -9.7717    2.0798 H   0  0  0  0  0  0  0  0  0  0  0  0
    1.0077  -10.0595    3.1998 H   0  0  0  0  0  0  0  0  0  0  0  0
   -1.0410   -8.8350    4.1501 H   0  0  0  0  0  0  0  0  0  0  0  0
   -1.7884   -7.2462    2.6041 H   0  0  0  0  0  0  0  0  0  0  0  0
   -0.4712   -7.6263    6.4145 H   0  0  0  0  0  0  0  0  0  0  0  0
   -1.4596   -6.5984    5.4295 H   0  0  0  0  0  0  0  0  0  0  0  0
   -0.0827   -5.9115    6.2516 H   0  0  0  0  0  0  0  0  0  0  0  0
    2.0126   -8.1028    4.5158 H   0  0  0  0  0  0  0  0  0  0  0  0
    5.6485   -9.8460    7.4193 H   0  0  0  0  0  0  0  0  0  0  0  0
    5.6287   -9.6537    5.7221 H   0  0  0  0  0  0  0  0  0  0  0  0
    4.3158  -10.5094    6.5146 H   0  0  0  0  0  0  0  0  0  0  0  0
    4.9319   -7.9012    8.8606 H   0  0  0  0  0  0  0  0  0  0  0  0
    3.9484   -9.3291    8.7956 H   0  0  0  0  0  0  0  0  0  0  0  0
    3.1533   -7.8349    8.8121 H   0  0  0  0  0  0  0  0  0  0  0  0
    5.0684   -6.9249    2.3980 H   0  0  0  0  0  0  0  0  0  0  0  0
    5.4986   -5.7819    2.3818 H   0  0  0  0  0  0  0  0  0  0  0  0
    6.5109   -7.6289    4.1359 H   0  0  0  0  0  0  0  0  0  0  0  0
    8.2239   -6.1563    4.3703 H   0  0  0  0  0  0  0  0  0  0  0  0
    7.6588   -6.1490    2.8448 H   0  0  0  0  0  0  0  0  0  0  0  0
    7.0791   -7.9617    6.3768 H   0  0  0  0  0  0  0  0  0  0  0  0
    6.6082   -6.8628    7.6704 H   0  0  0  0  0  0  0  0  0  0  0  0
    7.8440   -6.4114    6.5115 H   0  0  0  0  0  0  0  0  0  0  0  0
    6.1505   -2.6510    4.4913 H   0  0  0  0  0  0  0  0  0  0  0  0
    3.7272   -3.6678    3.2587 H   0  0  0  0  0  0  0  0  0  0  0  0
    5.0108   -2.8261    2.9033 H   0  0  0  0  0  0  0  0  0  0  0  0
   -0.5739   -8.0034    0.7313 H   0  0  0  0  0  0  0  0  0  0  0  0
    1.0285   -6.3920    0.0806 H   0  0  0  0  0  0  0  0  0  0  0  0
  1  2  1  0
  1 48  1  0
  1 49  1  0
  1 50  1  0
  2  3  2  0
  2  4  1  0
  5  4  1  6
  5 20  1  0
  5 34  1  0
  5  6  1  0
  6 11  1  0
  6  7  1  0
  6 51  1  1
  7  8  1  0
  8  9  1  0
  8 52  1  0
  8 53  1  0
  9 42  1  0
  9 10  1  1
  9 11  1  0
 10 54  1  0
 10 55  1  0
 10 56  1  0
 11 12  1  0
 11 57  1  1
 12 13  1  0
 12 14  1  1
 12 15  1  0
 13 58  1  0
 13 59  1  0
 13 60  1  0
 14 61  1  0
 15 31  1  0
 15 38  1  0
 15 16  1  6
 16 17  1  0
 17 18  1  0
 17 19  1  0
 17 20  1  0
 18 62  1  0
 18 63  1  0
 18 64  1  0
 19 65  1  0
 19 66  1  0
 19 67  1  0
 20 21  1  0
 20 68  1  6
 21 46  1  0
 21 22  1  0
 21 69  1  6
 22 23  1  0
 22 70  1  0
 22 71  1  0
 23 26  1  0
 23 24  1  0
 23 72  1  1
 24 25  1  0
 24 46  1  0
 24 73  1  6
 25 26  1  0
 26 27  1  1
 26 28  1  0
 27 74  1  0
 27 75  1  0
 27 76  1  0
 28 29  1  0
 28 34  1  0
 28 77  1  1
 29 30  2  0
 29 31  1  1
 31 32  1  0
 31 33  1  0
 32 78  1  0
 32 79  1  0
 32 80  1  0
 33 81  1  0
 33 82  1  0
 33 83  1  0
 34 44  1  0
 34 35  1  6
 35 36  1  0
 35 84  1  0
 35 85  1  0
 36 37  1  0
 36 38  1  0
 36 86  1  1
 37 87  1  0
 37 88  1  0
 38 39  1  1
 38 40  1  0
 39 89  1  0
 39 90  1  0
 39 91  1  0
 40 41  2  0
 40 42  1  0
 42 43  1  6
 42 44  1  0
 43 92  1  0
 44 45  1  0
 44 93  1  6
 45 94  1  0
 46 47  1  0
 46 95  1  6
 47 96  1  0
M  END
>  <i_m_ct_stereo_status>  (29) 
1

>  <s_m_source_file>  (29) 
/var/tmp/pbs.5075288.sched01/tmpye5xf5zc/0p3ozm_yu.sdf

>  <i_m_source_file_index>  (29) 
51

>  <i_lp_mmshare_version>  (29) 
48012

>  <i_f3d_flags>  (29) 
0

>  <s_epik_input>  (29) 
Tz1DMVtDQEBdKFtPSF0pKFtDQEhdMltPSF0pW0NAXShbQ0gyXU8zKShbQ0gzXSlbQ0BIXShbQ0BAXTQoW0NIM10pW09IXSlbQ0BASF0zW0NAQF0oT0MoPU8pW0NIM10pKEMyNVtDSDJdW0NAQEhdKFtOSDJdKVtDQEBdMShbQ0BAXTQ2NylbQ0gzXSlbQ0BIXShDKE82KShbQ0gzXSlbQ0gzXSlbQ0BIXThbQ0gyXVtDQEBIXTlbQ0BIXShbQ0BIXThbT0hdKU9bQ0BdOShbQ0gzXSlbQ0BASF01W1MrXShbTy1dKUM3KFtDSDNdKVtDSDNd

>  <s_epik_cmdline>  (29) 
J2VwaWtfcHl0aG9uJywgJy1waHQnLCAnMi4wJywgJy1waCcsICc3LjAnLCAnLXRuJywgJzgnLCAnLW1hJywgJzIwMCcsICctaW1hZScsICc8aW5maWxlLm1hZT4nLCAnLW9tYWUnLCAnPG91dGZpbGUubWFlPic=

>  <r_epik_Ionization_Penalty>  (29) 
2.18142

>  <r_epik_Ionization_Penalty_Charging>  (29) 
0

>  <r_epik_Ionization_Penalty_Neutral>  (29) 
2.18142

>  <r_epik_State_Penalty>  (29) 
2.32348

>  <r_epik_Charging_Adjusted_Penalty>  (29) 
2.32348

>  <i_epik_Tot_Q>  (29) 
0

>  <i_epik_Tot_abs_Q>  (29) 
2

>  <s_epik_Chemistry_Notes>  (29) 
This compound has an ester and may undergo hydrolysis at high or low pH.

>  <s_lp_Force_Field>  (29) 
OPLS3e

>  <r_lp_Energy>  (29) 
962.673

>  <b_lp_Chiralities_Consistent>  (29) 
1

>  <s_lp_Variant>  (29) 
19:0-5

>  <s_i_glide_gridfile>  (29) 
pfpi4k_grid

>  <i_i_glide_lignum>  (29) 
51

>  <i_i_glide_rotatable_bonds>  (29) 
6

>  <r_i_docking_score>  (29) 
-2.11762

>  <r_i_glide_ligand_efficiency>  (29) 
-0.0450557

>  <r_i_glide_ligand_efficiency_sa>  (29) 
-0.162598

>  <r_i_glide_ligand_efficiency_ln>  (29) 
-0.436609

>  <r_i_glide_gscore>  (29) 
-2.11762

>  <r_i_glide_lipo>  (29) 
-0.00923653

>  <r_i_glide_hbond>  (29) 
-0.107936

>  <r_i_glide_metal>  (29) 
-0

>  <r_i_glide_rewards>  (29) 
-0.00285922

>  <r_i_glide_evdw>  (29) 
-21.3861

>  <r_i_glide_ecoul>  (29) 
-6.30271

>  <r_i_glide_erotb>  (29) 
0.0462146

>  <r_i_glide_esite>  (29) 
-0.0290906

>  <r_i_glide_emodel>  (29) 
-29.3799

>  <r_i_glide_energy>  (29) 
-27.6888

>  <r_i_glide_einternal>  (29) 
4.75029

>  <r_i_glide_intrahb_reward>  (29) 
-0

>  <i_i_glide_confnum>  (29) 
4

>  <i_i_glide_posenum>  (29) 
9

>  <r_i_glide_eff_state_penalty>  (29) 
0

>  <ligand_id>  (29) 
19

>  <original_smiles>  (29) 
CC(=O)OC12C3OCC4(C)C3C(C)(O)C35OC(C)(C)C1C1CC6C(OC6(C)C([S+]([O-])C3(C)C)C23CC(N)C5(C)C(=O)C4(O)C3O)C1O

>  <smiles>  (29) 
[H]OC1([H])C2([H])OC3(C([H])([H])[H])C4([H])S(=O)C(C([H])([H])[H])(C([H])([H])[H])C56OC(C([H])([H])[H])(C([H])([H])[H])C([H])(C1([H])C([H])([H])C23[H])C1(OC(=O)C([H])([H])[H])C2([H])OC([H])([H])C(C([H])([H])[H])(C3(O[H])C(=O)C5(C([H])([H])[H])C([H])(N([H])[H])C([H])([H])C41C3([H])O[H])C2([H])C6(O[H])C([H])([H])[H]

$$$$
19:4:2
     RDKit          3D

 96104  0  0  1  0  0  0  0  0999 V2000
    4.1814  -12.6307    3.5094 C   0  0  0  0  0  0  0  0  0  0  0  0
    4.2047  -11.4178    4.4284 C   0  0  0  0  0  0  0  0  0  0  0  0
    4.6907  -11.4938    5.5542 O   0  0  0  0  0  0  0  0  0  0  0  0
    3.6435  -10.3324    3.8420 O   0  0  0  0  0  0  0  0  0  0  0  0
    3.4908   -9.0134    4.4133 C   0  0  1  0  0  0  0  0  0  0  0  0
    3.2534   -7.9109    3.0044 C   0  0  2  0  0  0  0  0  0  0  0  0
    3.4069   -8.5509    1.7308 O   0  0  0  0  0  0  0  0  0  0  0  0
    4.3650   -7.8690    0.9048 C   0  0  0  0  0  0  0  0  0  0  0  0
    5.1648   -6.8091    1.7343 C   0  0  1  0  0  0  0  0  0  0  0  0
    5.6003   -5.7481    0.6764 C   0  0  0  0  0  0  0  0  0  0  0  0
    4.0811   -6.4510    2.7228 C   0  0  2  0  0  0  0  0  0  0  0  0
    4.6028   -5.3361    3.8344 C   0  0  1  0  0  0  0  0  0  0  0  0
    5.3866   -4.1261    3.1408 C   0  0  0  0  0  0  0  0  0  0  0  0
    3.4708   -4.4736    3.6810 O   0  0  0  0  0  0  0  0  0  0  0  0
    5.2324   -5.7807    5.4565 C   0  0  2  0  0  0  0  0  0  0  0  0
    4.8810   -6.7874    6.7366 O   0  0  0  0  0  0  0  0  0  0  0  0
    4.0071   -8.0287    7.2773 C   0  0  0  0  0  0  0  0  0  0  0  0
    4.8293   -8.9663    8.2751 C   0  0  0  0  0  0  0  0  0  0  0  0
    3.2743   -7.3527    8.5004 C   0  0  0  0  0  0  0  0  0  0  0  0
    3.1440   -9.0835    6.1263 C   0  0  2  0  0  0  0  0  0  0  0  0
    1.7087   -9.5481    6.7301 C   0  0  1  0  0  0  0  0  0  0  0  0
    0.7598   -8.3701    7.2077 C   0  0  0  0  0  0  0  0  0  0  0  0
    0.2895   -7.6252    5.9651 C   0  0  2  0  0  0  0  0  0  0  0  0
   -0.0069   -8.7972    5.0576 C   0  0  1  0  0  0  0  0  0  0  0  0
    0.8063   -8.2198    4.0241 O   0  0  0  0  0  0  0  0  0  0  0  0
    1.2411   -7.0561    4.8302 C   0  0  1  0  0  0  0  0  0  0  0  0
    0.6063   -5.9126    4.0265 C   0  0  0  0  0  0  0  0  0  0  0  0
    2.9192   -6.8006    5.1262 C   0  0  2  0  0  0  0  0  0  0  0  0
    2.9810   -5.2002    6.2770 S   0  0  0  0  0  0  0  0  0  0  0  0
    2.0199   -4.0654    5.9242 O   0  0  0  0  0  0  0  0  0  0  0  0
    4.7597   -4.6242    6.3958 C   0  0  0  0  0  0  0  0  0  0  0  0
    5.2276   -4.6050    7.8991 C   0  0  0  0  0  0  0  0  0  0  0  0
    4.8004   -3.1159    6.0211 C   0  0  0  0  0  0  0  0  0  0  0  0
    4.5159   -8.1051    4.6379 C   0  0  1  0  0  0  0  0  0  0  0  0
    5.8433   -8.6548    5.4793 C   0  0  0  0  0  0  0  0  0  0  0  0
    6.9830   -7.6536    5.8334 C   0  0  1  0  0  0  0  0  0  0  0  0
    8.2778   -8.2742    5.5636 N   0  0  0  0  0  0  0  0  0  0  0  0
    6.7504   -6.2611    5.1656 C   0  0  2  0  0  0  0  0  0  0  0  0
    7.7377   -5.2729    5.8383 C   0  0  0  0  0  0  0  0  0  0  0  0
    7.1526   -6.4704    3.6292 C   0  0  0  0  0  0  0  0  0  0  0  0
    8.1895   -5.9464    3.2206 O   0  0  0  0  0  0  0  0  0  0  0  0
    6.3327   -7.3578    2.6053 C   0  0  2  0  0  0  0  0  0  0  0  0
    7.2561   -7.7918    1.6016 O   0  0  0  0  0  0  0  0  0  0  0  0
    5.6453   -8.4870    3.3478 C   0  0  1  0  0  0  0  0  0  0  0  0
    6.5821   -9.5863    3.2097 O   0  0  0  0  0  0  0  0  0  0  0  0
    0.6242  -10.0738    5.6962 C   0  0  1  0  0  0  0  0  0  0  0  0
    1.0202  -11.0690    4.7838 O   0  0  0  0  0  0  0  0  0  0  0  0
    3.1505  -12.8522    3.2441 H   0  0  0  0  0  0  0  0  0  0  0  0
    4.6147  -13.4973    4.0075 H   0  0  0  0  0  0  0  0  0  0  0  0
    4.7329  -12.4389    2.5886 H   0  0  0  0  0  0  0  0  0  0  0  0
    2.2670   -7.6380    2.6941 H   0  0  0  0  0  0  0  0  0  0  0  0
    5.0169   -8.5940    0.4128 H   0  0  0  0  0  0  0  0  0  0  0  0
    3.8117   -7.3761    0.1113 H   0  0  0  0  0  0  0  0  0  0  0  0
    6.4405   -5.1273    0.9801 H   0  0  0  0  0  0  0  0  0  0  0  0
    4.7718   -5.1087    0.3681 H   0  0  0  0  0  0  0  0  0  0  0  0
    5.9432   -6.2340   -0.2347 H   0  0  0  0  0  0  0  0  0  0  0  0
    3.3758   -5.9369    2.0665 H   0  0  0  0  0  0  0  0  0  0  0  0
    6.4254   -4.2658    2.8956 H   0  0  0  0  0  0  0  0  0  0  0  0
    5.4172   -3.1924    3.6844 H   0  0  0  0  0  0  0  0  0  0  0  0
    4.9627   -3.8208    2.1799 H   0  0  0  0  0  0  0  0  0  0  0  0
    3.3655   -4.2643    2.7694 H   0  0  0  0  0  0  0  0  0  0  0  0
    4.7267  -10.0149    7.9892 H   0  0  0  0  0  0  0  0  0  0  0  0
    4.5691   -8.9881    9.3342 H   0  0  0  0  0  0  0  0  0  0  0  0
    5.8863   -8.7116    8.2857 H   0  0  0  0  0  0  0  0  0  0  0  0
    2.7247   -8.0686    9.1148 H   0  0  0  0  0  0  0  0  0  0  0  0
    2.5938   -6.5367    8.3259 H   0  0  0  0  0  0  0  0  0  0  0  0
    4.0023   -6.8882    9.1673 H   0  0  0  0  0  0  0  0  0  0  0  0
    2.3571   -8.8260    5.5613 H   0  0  0  0  0  0  0  0  0  0  0  0
    1.8781  -10.2560    7.5455 H   0  0  0  0  0  0  0  0  0  0  0  0
   -0.1101   -8.8362    7.6718 H   0  0  0  0  0  0  0  0  0  0  0  0
    1.0138   -7.7007    7.9968 H   0  0  0  0  0  0  0  0  0  0  0  0
   -0.5823   -6.9876    6.1062 H   0  0  0  0  0  0  0  0  0  0  0  0
   -1.0522   -8.8791    4.7642 H   0  0  0  0  0  0  0  0  0  0  0  0
    0.4120   -5.0358    4.6305 H   0  0  0  0  0  0  0  0  0  0  0  0
   -0.3732   -6.2092    3.6464 H   0  0  0  0  0  0  0  0  0  0  0  0
    1.2055   -5.6264    3.1694 H   0  0  0  0  0  0  0  0  0  0  0  0
    2.5666   -6.8931    6.1258 H   0  0  0  0  0  0  0  0  0  0  0  0
    5.9025   -3.7689    8.0867 H   0  0  0  0  0  0  0  0  0  0  0  0
    5.7898   -5.4638    8.2613 H   0  0  0  0  0  0  0  0  0  0  0  0
    4.3774   -4.4638    8.5638 H   0  0  0  0  0  0  0  0  0  0  0  0
    5.8061   -2.7891    5.7578 H   0  0  0  0  0  0  0  0  0  0  0  0
    4.5041   -2.4995    6.8692 H   0  0  0  0  0  0  0  0  0  0  0  0
    4.0991   -2.8005    5.2568 H   0  0  0  0  0  0  0  0  0  0  0  0
    5.6270   -9.3080    6.2603 H   0  0  0  0  0  0  0  0  0  0  0  0
    6.3085   -9.6096    5.2907 H   0  0  0  0  0  0  0  0  0  0  0  0
    7.0095   -7.5055    6.9129 H   0  0  0  0  0  0  0  0  0  0  0  0
    9.0143   -7.6583    5.8804 H   0  0  0  0  0  0  0  0  0  0  0  0
    8.3641   -9.1209    6.1085 H   0  0  0  0  0  0  0  0  0  0  0  0
    7.6623   -5.2906    6.9245 H   0  0  0  0  0  0  0  0  0  0  0  0
    7.5328   -4.2533    5.5284 H   0  0  0  0  0  0  0  0  0  0  0  0
    8.7838   -5.4934    5.6059 H   0  0  0  0  0  0  0  0  0  0  0  0
    7.9556   -8.2526    2.0394 H   0  0  0  0  0  0  0  0  0  0  0  0
    5.2182   -9.1776    2.6493 H   0  0  0  0  0  0  0  0  0  0  0  0
    7.2592   -9.4777    3.8639 H   0  0  0  0  0  0  0  0  0  0  0  0
   -0.1547  -10.5721    6.2729 H   0  0  0  0  0  0  0  0  0  0  0  0
    1.1898  -11.8607    5.2782 H   0  0  0  0  0  0  0  0  0  0  0  0
  1  2  1  0
  1 48  1  0
  1 49  1  0
  1 50  1  0
  2  3  2  0
  2  4  1  0
  5  4  1  6
  5 20  1  0
  5 34  1  0
  5  6  1  0
  6 11  1  0
  6  7  1  0
  6 51  1  6
  7  8  1  0
  8  9  1  0
  8 52  1  0
  8 53  1  0
  9 42  1  0
  9 10  1  6
  9 11  1  0
 10 54  1  0
 10 55  1  0
 10 56  1  0
 11 12  1  0
 11 57  1  6
 12 13  1  0
 12 14  1  1
 12 15  1  0
 13 58  1  0
 13 59  1  0
 13 60  1  0
 14 61  1  0
 15 31  1  0
 15 38  1  0
 15 16  1  1
 16 17  1  0
 17 18  1  0
 17 19  1  0
 17 20  1  0
 18 62  1  0
 18 63  1  0
 18 64  1  0
 19 65  1  0
 19 66  1  0
 19 67  1  0
 20 21  1  0
 20 68  1  1
 21 46  1  0
 21 22  1  0
 21 69  1  1
 22 23  1  0
 22 70  1  0
 22 71  1  0
 23 26  1  0
 23 24  1  0
 23 72  1  1
 24 25  1  0
 24 46  1  0
 24 73  1  6
 25 26  1  0
 26 27  1  6
 26 28  1  0
 27 74  1  0
 27 75  1  0
 27 76  1  0
 28 29  1  0
 28 34  1  0
 28 77  1  6
 29 30  2  0
 29 31  1  6
 31 32  1  0
 31 33  1  0
 32 78  1  0
 32 79  1  0
 32 80  1  0
 33 81  1  0
 33 82  1  0
 33 83  1  0
 34 44  1  0
 34 35  1  1
 35 36  1  0
 35 84  1  0
 35 85  1  0
 36 37  1  0
 36 38  1  0
 36 86  1  1
 37 87  1  0
 37 88  1  0
 38 39  1  1
 38 40  1  0
 39 89  1  0
 39 90  1  0
 39 91  1  0
 40 41  2  0
 40 42  1  0
 42 43  1  6
 42 44  1  0
 43 92  1  0
 44 45  1  0
 44 93  1  6
 45 94  1  0
 46 47  1  0
 46 95  1  1
 47 96  1  0
M  END
>  <i_m_ct_stereo_status>  (30) 
1

>  <s_m_source_file>  (30) 
/var/tmp/pbs.5075288.sched01/tmpye5xf5zc/0p3ozm_yu.sdf

>  <i_m_source_file_index>  (30) 
51

>  <i_lp_mmshare_version>  (30) 
48012

>  <i_f3d_flags>  (30) 
0

>  <s_epik_input>  (30) 
Tz1DMVtDQEBdKFtPSF0pKFtDQEhdMltPSF0pW0NAXShbQ0gyXU8zKShbQ0gzXSlbQ0BIXShbQ0BAXTQoW0NIM10pW09IXSlbQ0BASF0zW0NAQF0oT0MoPU8pW0NIM10pKEMyNVtDSDJdW0NAQEhdKFtOSDJdKVtDQEBdMShbQ0BAXTQ2NylbQ0gzXSlbQ0BIXShDKE82KShbQ0gzXSlbQ0gzXSlbQ0BIXThbQ0gyXVtDQEBIXTlbQ0BIXShbQ0BIXThbT0hdKU9bQ0BdOShbQ0gzXSlbQ0BASF01W1MrXShbTy1dKUM3KFtDSDNdKVtDSDNd

>  <s_epik_cmdline>  (30) 
J2VwaWtfcHl0aG9uJywgJy1waHQnLCAnMi4wJywgJy1waCcsICc3LjAnLCAnLXRuJywgJzgnLCAnLW1hJywgJzIwMCcsICctaW1hZScsICc8aW5maWxlLm1hZT4nLCAnLW9tYWUnLCAnPG91dGZpbGUubWFlPic=

>  <r_epik_Ionization_Penalty>  (30) 
2.18142

>  <r_epik_Ionization_Penalty_Charging>  (30) 
0

>  <r_epik_Ionization_Penalty_Neutral>  (30) 
2.18142

>  <r_epik_State_Penalty>  (30) 
2.32348

>  <r_epik_Charging_Adjusted_Penalty>  (30) 
2.32348

>  <i_epik_Tot_Q>  (30) 
0

>  <i_epik_Tot_abs_Q>  (30) 
2

>  <s_epik_Chemistry_Notes>  (30) 
This compound has an ester and may undergo hydrolysis at high or low pH.

>  <s_lp_Force_Field>  (30) 
OPLS3e

>  <r_lp_Energy>  (30) 
962.673

>  <b_lp_Chiralities_Consistent>  (30) 
1

>  <s_lp_Variant>  (30) 
19:0-5

>  <s_i_glide_gridfile>  (30) 
pfpi4k_grid

>  <i_i_glide_lignum>  (30) 
51

>  <i_i_glide_rotatable_bonds>  (30) 
6

>  <r_i_docking_score>  (30) 
-1.52493

>  <r_i_glide_ligand_efficiency>  (30) 
-0.0324453

>  <r_i_glide_ligand_efficiency_sa>  (30) 
-0.11709

>  <r_i_glide_ligand_efficiency_ln>  (30) 
-0.314409

>  <r_i_glide_gscore>  (30) 
-1.52493

>  <r_i_glide_lipo>  (30) 
-0.260597

>  <r_i_glide_hbond>  (30) 
0

>  <r_i_glide_metal>  (30) 
-0

>  <r_i_glide_rewards>  (30) 
-0.00444398

>  <r_i_glide_evdw>  (30) 
-23.5677

>  <r_i_glide_ecoul>  (30) 
-0.776116

>  <r_i_glide_erotb>  (30) 
0.0462146

>  <r_i_glide_esite>  (30) 
-0.0113002

>  <r_i_glide_emodel>  (30) 
-25.3162

>  <r_i_glide_energy>  (30) 
-24.3438

>  <r_i_glide_einternal>  (30) 
4.02271

>  <r_i_glide_intrahb_reward>  (30) 
-0

>  <i_i_glide_confnum>  (30) 
4

>  <i_i_glide_posenum>  (30) 
5

>  <r_i_glide_eff_state_penalty>  (30) 
0

>  <ligand_id>  (30) 
19

>  <original_smiles>  (30) 
CC(=O)OC12C3OCC4(C)C3C(C)(O)C35OC(C)(C)C1C1CC6C(OC6(C)C([S+]([O-])C3(C)C)C23CC(N)C5(C)C(=O)C4(O)C3O)C1O

>  <smiles>  (30) 
[H]OC1([H])C2([H])OC3(C([H])([H])[H])C4([H])S(=O)C(C([H])([H])[H])(C([H])([H])[H])C56OC(C([H])([H])[H])(C([H])([H])[H])C([H])(C1([H])C([H])([H])C23[H])C1(OC(=O)C([H])([H])[H])C2([H])OC([H])([H])C(C([H])([H])[H])(C3(O[H])C(=O)C5(C([H])([H])[H])C([H])(N([H])[H])C([H])([H])C41C3([H])O[H])C2([H])C6(O[H])C([H])([H])[H]

$$$$
19:5:0
     RDKit          3D

 96104  0  0  1  0  0  0  0  0999 V2000
    0.9319   -0.5038    3.0859 C   0  0  0  0  0  0  0  0  0  0  0  0
    0.5729    0.3990    4.2615 C   0  0  0  0  0  0  0  0  0  0  0  0
   -0.5959    0.7727    4.3969 O   0  0  0  0  0  0  0  0  0  0  0  0
    1.7194    0.8972    4.9219 O   0  0  0  0  0  0  0  0  0  0  0  0
    1.7565    1.8521    6.0526 C   0  0  1  0  0  0  0  0  0  0  0  0
    2.8603    1.1222    7.0623 C   0  0  2  0  0  0  0  0  0  0  0  0
    2.8954   -0.2843    6.8663 O   0  0  0  0  0  0  0  0  0  0  0  0
    2.7281   -0.9609    8.0866 C   0  0  0  0  0  0  0  0  0  0  0  0
    2.1648    0.0872    9.0542 C   0  0  1  0  0  0  0  0  0  0  0  0
    2.5071   -0.5052   10.4642 C   0  0  0  0  0  0  0  0  0  0  0  0
    2.9922    1.3360    8.6622 C   0  0  2  0  0  0  0  0  0  0  0  0
    2.8833    2.7528    9.5037 C   0  0  1  0  0  0  0  0  0  0  0  0
    3.0133    2.5386   11.0479 C   0  0  0  0  0  0  0  0  0  0  0  0
    4.0952    3.4670    9.4824 O   0  0  0  0  0  0  0  0  0  0  0  0
    1.6447    3.6459    9.0132 C   0  0  2  0  0  0  0  0  0  0  0  0
    2.1482    3.5349    7.6334 O   0  0  0  0  0  0  0  0  0  0  0  0
    3.2259    3.9834    6.6531 C   0  0  0  0  0  0  0  0  0  0  0  0
    3.5271    5.4751    6.2373 C   0  0  0  0  0  0  0  0  0  0  0  0
    4.7453    3.5758    6.8528 C   0  0  0  0  0  0  0  0  0  0  0  0
    2.5368    3.1653    5.4636 C   0  0  2  0  0  0  0  0  0  0  0  0
    2.1731    3.8995    4.0494 C   0  0  1  0  0  0  0  0  0  0  0  0
    1.2331    3.1051    3.0750 C   0  0  0  0  0  0  0  0  0  0  0  0
   -0.1767    3.6671    3.3060 C   0  0  2  0  0  0  0  0  0  0  0  0
    0.0051    5.1432    3.3810 C   0  0  1  0  0  0  0  0  0  0  0  0
   -0.9645    5.2567    4.4392 O   0  0  0  0  0  0  0  0  0  0  0  0
   -0.9157    3.8473    4.6625 C   0  0  1  0  0  0  0  0  0  0  0  0
   -2.3717    3.3194    4.6056 C   0  0  0  0  0  0  0  0  0  0  0  0
   -0.3320    3.6836    6.1382 C   0  0  2  0  0  0  0  0  0  0  0  0
    0.4679    5.2949    6.9108 S   0  0  0  0  0  0  0  0  0  0  0  0
   -0.5827    6.4246    6.9338 O   0  0  0  0  0  0  0  0  0  0  0  0
    1.2891    5.1955    8.6886 C   0  0  0  0  0  0  0  0  0  0  0  0
    0.3102    6.0396    9.5857 C   0  0  0  0  0  0  0  0  0  0  0  0
    2.5315    6.1137    8.9046 C   0  0  0  0  0  0  0  0  0  0  0  0
    0.1936    2.1281    6.5552 C   0  0  1  0  0  0  0  0  0  0  0  0
   -1.0428    2.2445    7.6852 C   0  0  0  0  0  0  0  0  0  0  0  0
   -0.9858    3.1970    8.8854 C   0  0  1  0  0  0  0  0  0  0  0  0
   -2.2340    3.0753    9.6459 N   0  0  0  0  0  0  0  0  0  0  0  0
    0.3106    2.9294    9.6850 C   0  0  2  0  0  0  0  0  0  0  0  0
    0.1315    3.5806   11.1267 C   0  0  0  0  0  0  0  0  0  0  0  0
    0.2263    1.3613    9.9126 C   0  0  0  0  0  0  0  0  0  0  0  0
   -0.2697    0.8905   10.9324 O   0  0  0  0  0  0  0  0  0  0  0  0
    0.6272    0.3489    8.8026 C   0  0  2  0  0  0  0  0  0  0  0  0
    0.0340   -0.9082    9.1250 O   0  0  0  0  0  0  0  0  0  0  0  0
    0.0776    0.6364    7.2830 C   0  0  1  0  0  0  0  0  0  0  0  0
   -0.9965   -0.1912    6.7953 O   0  0  0  0  0  0  0  0  0  0  0  0
    1.4961    5.3150    3.7412 C   0  0  1  0  0  0  0  0  0  0  0  0
    1.7690    6.5888    4.2915 O   0  0  0  0  0  0  0  0  0  0  0  0
    2.0039   -0.7335    3.0347 H   0  0  0  0  0  0  0  0  0  0  0  0
    0.6213    0.0021    2.1713 H   0  0  0  0  0  0  0  0  0  0  0  0
    0.3448   -1.4207    3.1593 H   0  0  0  0  0  0  0  0  0  0  0  0
    3.8195    1.2626    6.6056 H   0  0  0  0  0  0  0  0  0  0  0  0
    2.1009   -1.8417    7.9600 H   0  0  0  0  0  0  0  0  0  0  0  0
    3.7094   -1.3160    8.4137 H   0  0  0  0  0  0  0  0  0  0  0  0
    2.0412   -0.0232   11.3163 H   0  0  0  0  0  0  0  0  0  0  0  0
    3.5808   -0.4886   10.6560 H   0  0  0  0  0  0  0  0  0  0  0  0
    2.2070   -1.5513   10.5406 H   0  0  0  0  0  0  0  0  0  0  0  0
    4.0222    1.0315    8.8864 H   0  0  0  0  0  0  0  0  0  0  0  0
    2.1719    2.0546   11.5246 H   0  0  0  0  0  0  0  0  0  0  0  0
    3.1405    3.4754   11.5965 H   0  0  0  0  0  0  0  0  0  0  0  0
    3.8794    1.9213   11.2975 H   0  0  0  0  0  0  0  0  0  0  0  0
    4.2659    3.7147    8.5904 H   0  0  0  0  0  0  0  0  0  0  0  0
    3.8851    5.5276    5.2124 H   0  0  0  0  0  0  0  0  0  0  0  0
    4.3258    5.9604    6.7915 H   0  0  0  0  0  0  0  0  0  0  0  0
    2.7337    6.1864    6.3599 H   0  0  0  0  0  0  0  0  0  0  0  0
    5.2719    3.5747    5.9013 H   0  0  0  0  0  0  0  0  0  0  0  0
    4.9854    2.6397    7.3362 H   0  0  0  0  0  0  0  0  0  0  0  0
    5.3023    4.2887    7.4596 H   0  0  0  0  0  0  0  0  0  0  0  0
    3.3955    2.6391    5.0616 H   0  0  0  0  0  0  0  0  0  0  0  0
    3.1223    3.9298    3.5244 H   0  0  0  0  0  0  0  0  0  0  0  0
    1.5283    3.4616    2.0894 H   0  0  0  0  0  0  0  0  0  0  0  0
    1.4025    2.0804    2.9025 H   0  0  0  0  0  0  0  0  0  0  0  0
   -0.8544    3.3876    2.4996 H   0  0  0  0  0  0  0  0  0  0  0  0
   -0.2959    5.7214    2.5021 H   0  0  0  0  0  0  0  0  0  0  0  0
   -2.4146    2.2416    4.7535 H   0  0  0  0  0  0  0  0  0  0  0  0
   -2.8448    3.5320    3.6283 H   0  0  0  0  0  0  0  0  0  0  0  0
   -3.0000    3.7930    5.3605 H   0  0  0  0  0  0  0  0  0  0  0  0
   -1.2402    4.0970    6.5711 H   0  0  0  0  0  0  0  0  0  0  0  0
    0.6232    6.1127   10.6291 H   0  0  0  0  0  0  0  0  0  0  0  0
   -0.7394    5.7753    9.6003 H   0  0  0  0  0  0  0  0  0  0  0  0
    0.2842    7.0703    9.2360 H   0  0  0  0  0  0  0  0  0  0  0  0
    2.6633    6.3814    9.9555 H   0  0  0  0  0  0  0  0  0  0  0  0
    2.4488    7.0534    8.3640 H   0  0  0  0  0  0  0  0  0  0  0  0
    3.4839    5.6601    8.6877 H   0  0  0  0  0  0  0  0  0  0  0  0
   -1.9678    2.4097    7.1358 H   0  0  0  0  0  0  0  0  0  0  0  0
   -1.6477    1.4473    8.1670 H   0  0  0  0  0  0  0  0  0  0  0  0
   -1.0810    4.2040    8.5525 H   0  0  0  0  0  0  0  0  0  0  0  0
   -3.0283    3.1731    9.0244 H   0  0  0  0  0  0  0  0  0  0  0  0
   -2.3097    2.1620   10.0787 H   0  0  0  0  0  0  0  0  0  0  0  0
   -0.6900    4.2878   11.1895 H   0  0  0  0  0  0  0  0  0  0  0  0
    1.0150    4.1269   11.4452 H   0  0  0  0  0  0  0  0  0  0  0  0
   -0.0740    2.9080   11.9537 H   0  0  0  0  0  0  0  0  0  0  0  0
    0.3406   -1.1627    9.9747 H   0  0  0  0  0  0  0  0  0  0  0  0
    0.7008   -0.0750    6.7664 H   0  0  0  0  0  0  0  0  0  0  0  0
   -0.9547   -0.1483    5.8399 H   0  0  0  0  0  0  0  0  0  0  0  0
    1.9542    5.5379    2.7696 H   0  0  0  0  0  0  0  0  0  0  0  0
    1.3368    7.2393    3.7581 H   0  0  0  0  0  0  0  0  0  0  0  0
  1  2  1  0
  1 48  1  0
  1 49  1  0
  1 50  1  0
  2  3  2  0
  2  4  1  0
  5  4  1  6
  5 20  1  0
  5 34  1  0
  5  6  1  0
  6 11  1  0
  6  7  1  0
  6 51  1  6
  7  8  1  0
  8  9  1  0
  8 52  1  0
  8 53  1  0
  9 42  1  0
  9 10  1  1
  9 11  1  0
 10 54  1  0
 10 55  1  0
 10 56  1  0
 11 12  1  0
 11 57  1  1
 12 13  1  0
 12 14  1  6
 12 15  1  0
 13 58  1  0
 13 59  1  0
 13 60  1  0
 14 61  1  0
 15 31  1  0
 15 38  1  0
 15 16  1  6
 16 17  1  0
 17 18  1  0
 17 19  1  0
 17 20  1  0
 18 62  1  0
 18 63  1  0
 18 64  1  0
 19 65  1  0
 19 66  1  0
 19 67  1  0
 20 21  1  0
 20 68  1  6
 21 46  1  0
 21 22  1  0
 21 69  1  6
 22 23  1  0
 22 70  1  0
 22 71  1  0
 23 26  1  0
 23 24  1  0
 23 72  1  6
 24 25  1  0
 24 46  1  0
 24 73  1  6
 25 26  1  0
 26 27  1  6
 26 28  1  0
 27 74  1  0
 27 75  1  0
 27 76  1  0
 28 29  1  0
 28 34  1  0
 28 77  1  1
 29 30  2  0
 29 31  1  1
 31 32  1  0
 31 33  1  0
 32 78  1  0
 32 79  1  0
 32 80  1  0
 33 81  1  0
 33 82  1  0
 33 83  1  0
 34 44  1  0
 34 35  1  6
 35 36  1  0
 35 84  1  0
 35 85  1  0
 36 37  1  0
 36 38  1  0
 36 86  1  6
 37 87  1  0
 37 88  1  0
 38 39  1  1
 38 40  1  0
 39 89  1  0
 39 90  1  0
 39 91  1  0
 40 41  2  0
 40 42  1  0
 42 43  1  1
 42 44  1  0
 43 92  1  0
 44 45  1  0
 44 93  1  6
 45 94  1  0
 46 47  1  0
 46 95  1  6
 47 96  1  0
M  END
>  <i_m_ct_stereo_status>  (31) 
1

>  <s_m_source_file>  (31) 
/var/tmp/pbs.5075288.sched01/tmpye5xf5zc/0p3ozm_yu.sdf

>  <i_m_source_file_index>  (31) 
52

>  <i_lp_mmshare_version>  (31) 
48012

>  <i_f3d_flags>  (31) 
0

>  <s_epik_input>  (31) 
Tz1DMVtDQEBdKFtPSF0pKFtDQEhdMltPSF0pW0NAXShbQ0gyXU8zKShbQ0gzXSlbQ0BIXShbQ0BAXTQoW0NIM10pW09IXSlbQ0BASF0zW0NAQF0oT0MoPU8pW0NIM10pKEMyNVtDSDJdW0NAQEhdKFtOSDJdKVtDQEBdMShbQ0BAXTQ2NylbQ0gzXSlbQ0BIXShDKE82KShbQ0gzXSlbQ0gzXSlbQ0BIXThbQ0gyXVtDQEBIXTlbQ0BIXShbQ0BIXThbT0hdKU9bQ0BdOShbQ0gzXSlbQ0BASF01W1MrXShbTy1dKUM3KFtDSDNdKVtDSDNd

>  <s_epik_cmdline>  (31) 
J2VwaWtfcHl0aG9uJywgJy1waHQnLCAnMi4wJywgJy1waCcsICc3LjAnLCAnLXRuJywgJzgnLCAnLW1hJywgJzIwMCcsICctaW1hZScsICc8aW5maWxlLm1hZT4nLCAnLW9tYWUnLCAnPG91dGZpbGUubWFlPic=

>  <r_epik_Ionization_Penalty>  (31) 
2.18142

>  <r_epik_Ionization_Penalty_Charging>  (31) 
0

>  <r_epik_Ionization_Penalty_Neutral>  (31) 
2.18142

>  <r_epik_State_Penalty>  (31) 
2.32348

>  <r_epik_Charging_Adjusted_Penalty>  (31) 
2.32348

>  <i_epik_Tot_Q>  (31) 
0

>  <i_epik_Tot_abs_Q>  (31) 
2

>  <s_epik_Chemistry_Notes>  (31) 
This compound has an ester and may undergo hydrolysis at high or low pH.

>  <s_lp_Force_Field>  (31) 
OPLS3e

>  <r_lp_Energy>  (31) 
539.29

>  <b_lp_Chiralities_Consistent>  (31) 
1

>  <s_lp_Variant>  (31) 
19:0-6

>  <s_i_glide_gridfile>  (31) 
pfpi4k_grid

>  <i_i_glide_lignum>  (31) 
52

>  <i_i_glide_rotatable_bonds>  (31) 
6

>  <r_i_docking_score>  (31) 
-3.24185

>  <r_i_glide_ligand_efficiency>  (31) 
-0.0689755

>  <r_i_glide_ligand_efficiency_sa>  (31) 
-0.248921

>  <r_i_glide_ligand_efficiency_ln>  (31) 
-0.668402

>  <r_i_glide_gscore>  (31) 
-3.24185

>  <r_i_glide_lipo>  (31) 
-0.00264793

>  <r_i_glide_hbond>  (31) 
-0.0717927

>  <r_i_glide_metal>  (31) 
-0

>  <r_i_glide_rewards>  (31) 
-0.5

>  <r_i_glide_evdw>  (31) 
-18.9607

>  <r_i_glide_ecoul>  (31) 
-11.597

>  <r_i_glide_erotb>  (31) 
0.0462146

>  <r_i_glide_esite>  (31) 
-0.0260442

>  <r_i_glide_emodel>  (31) 
-34.8251

>  <r_i_glide_energy>  (31) 
-30.5577

>  <r_i_glide_einternal>  (31) 
10.5468

>  <r_i_glide_intrahb_reward>  (31) 
-0.5

>  <i_i_glide_confnum>  (31) 
1

>  <i_i_glide_posenum>  (31) 
6

>  <r_i_glide_eff_state_penalty>  (31) 
0

>  <ligand_id>  (31) 
19

>  <original_smiles>  (31) 
CC(=O)OC12C3OCC4(C)C3C(C)(O)C35OC(C)(C)C1C1CC6C(OC6(C)C([S+]([O-])C3(C)C)C23CC(N)C5(C)C(=O)C4(O)C3O)C1O

>  <smiles>  (31) 
[H]OC1([H])C2([H])OC3(C([H])([H])[H])C4([H])S(=O)C(C([H])([H])[H])(C([H])([H])[H])C56OC(C([H])([H])[H])(C([H])([H])[H])C([H])(C1([H])C([H])([H])C23[H])C1(OC(=O)C([H])([H])[H])C2([H])OC([H])([H])C(C([H])([H])[H])(C3(O[H])C(=O)C5(C([H])([H])[H])C([H])(N([H])[H])C([H])([H])C41C3([H])O[H])C2([H])C6(O[H])C([H])([H])[H]

$$$$
19:5:1
     RDKit          3D

 96104  0  0  1  0  0  0  0  0999 V2000
    4.1114    0.3645    4.0829 C   0  0  0  0  0  0  0  0  0  0  0  0
    2.6092   -0.0056    3.9444 C   0  0  0  0  0  0  0  0  0  0  0  0
    2.2100   -0.7989    3.0423 O   0  0  0  0  0  0  0  0  0  0  0  0
    1.6718    0.5620    4.8149 O   0  0  0  0  0  0  0  0  0  0  0  0
    1.8225    1.4875    5.9447 C   0  0  1  0  0  0  0  0  0  0  0  0
    2.8869    0.7111    6.9295 C   0  0  2  0  0  0  0  0  0  0  0  0
    2.9178   -0.6898    6.6668 O   0  0  0  0  0  0  0  0  0  0  0  0
    2.8022   -1.4262    7.8422 C   0  0  0  0  0  0  0  0  0  0  0  0
    2.2523   -0.4116    8.8523 C   0  0  1  0  0  0  0  0  0  0  0  0
    2.6699   -1.0420   10.2222 C   0  0  0  0  0  0  0  0  0  0  0  0
    3.0535    0.8621    8.5007 C   0  0  2  0  0  0  0  0  0  0  0  0
    2.9797    2.2607    9.3570 C   0  0  1  0  0  0  0  0  0  0  0  0
    3.1865    2.0023   10.8745 C   0  0  0  0  0  0  0  0  0  0  0  0
    4.1909    2.9773    9.2909 O   0  0  0  0  0  0  0  0  0  0  0  0
    1.7291    3.1562    8.9275 C   0  0  2  0  0  0  0  0  0  0  0  0
    2.1730    3.1155    7.5359 O   0  0  0  0  0  0  0  0  0  0  0  0
    3.2025    3.6224    6.5306 C   0  0  0  0  0  0  0  0  0  0  0  0
    3.4784    5.1113    6.1387 C   0  0  0  0  0  0  0  0  0  0  0  0
    4.7309    3.1996    6.6363 C   0  0  0  0  0  0  0  0  0  0  0  0
    2.4656    2.8625    5.3560 C   0  0  2  0  0  0  0  0  0  0  0  0
    1.9864    3.5549    3.9475 C   0  0  1  0  0  0  0  0  0  0  0  0
    1.0012    2.7422    3.0625 C   0  0  0  0  0  0  0  0  0  0  0  0
   -0.3479    3.3357    3.2842 C   0  0  2  0  0  0  0  0  0  0  0  0
   -0.1534    4.8194    3.3753 C   0  0  1  0  0  0  0  0  0  0  0  0
   -1.0722    4.8915    4.4893 O   0  0  0  0  0  0  0  0  0  0  0  0
   -1.0126    3.4586    4.6804 C   0  0  1  0  0  0  0  0  0  0  0  0
   -2.4524    2.9240    4.6614 C   0  0  0  0  0  0  0  0  0  0  0  0
   -0.3604    3.2474    6.1115 C   0  0  2  0  0  0  0  0  0  0  0  0
    0.4332    4.8548    6.9223 S   0  0  0  0  0  0  0  0  0  0  0  0
   -0.5859    5.9689    7.0091 O   0  0  0  0  0  0  0  0  0  0  0  0
    1.3449    4.7013    8.6629 C   0  0  0  0  0  0  0  0  0  0  0  0
    0.3977    5.5166    9.6184 C   0  0  0  0  0  0  0  0  0  0  0  0
    2.5872    5.6322    8.8529 C   0  0  0  0  0  0  0  0  0  0  0  0
    0.2246    1.6984    6.4498 C   0  0  1  0  0  0  0  0  0  0  0  0
   -0.9669    1.7792    7.6319 C   0  0  0  0  0  0  0  0  0  0  0  0
   -0.8795    2.6905    8.8532 C   0  0  1  0  0  0  0  0  0  0  0  0
   -2.1001    2.5265    9.6428 N   0  0  0  0  0  0  0  0  0  0  0  0
    0.4293    2.4053    9.6117 C   0  0  2  0  0  0  0  0  0  0  0  0
    0.2988    3.0047   11.0815 C   0  0  0  0  0  0  0  0  0  0  0  0
    0.3606    0.8305    9.7621 C   0  0  0  0  0  0  0  0  0  0  0  0
   -0.0940    0.3246   10.7978 O   0  0  0  0  0  0  0  0  0  0  0  0
    0.7099   -0.1493    8.6077 C   0  0  2  0  0  0  0  0  0  0  0  0
    0.1535   -1.4267    8.9134 O   0  0  0  0  0  0  0  0  0  0  0  0
    0.1230    0.1787    7.0833 C   0  0  1  0  0  0  0  0  0  0  0  0
   -0.9865   -0.5826    6.5479 O   0  0  0  0  0  0  0  0  0  0  0  0
    1.3310    4.9790    3.6745 C   0  0  1  0  0  0  0  0  0  0  0  0
    1.6254    6.2127    4.2856 O   0  0  0  0  0  0  0  0  0  0  0  0
    4.3115    1.0685    4.8731 H   0  0  0  0  0  0  0  0  0  0  0  0
    4.4564    0.8458    3.1448 H   0  0  0  0  0  0  0  0  0  0  0  0
    4.6893   -0.5495    4.3294 H   0  0  0  0  0  0  0  0  0  0  0  0
    3.8694    0.8326    6.5961 H   0  0  0  0  0  0  0  0  0  0  0  0
    2.1838   -2.3122    7.6869 H   0  0  0  0  0  0  0  0  0  0  0  0
    3.8026   -1.7808    8.0982 H   0  0  0  0  0  0  0  0  0  0  0  0
    2.2432   -0.5772   11.1027 H   0  0  0  0  0  0  0  0  0  0  0  0
    3.7544   -1.0145   10.3532 H   0  0  0  0  0  0  0  0  0  0  0  0
    2.3937   -2.0951   10.2672 H   0  0  0  0  0  0  0  0  0  0  0  0
    4.0889    0.5685    8.6731 H   0  0  0  0  0  0  0  0  0  0  0  0
    2.3669    1.4893   11.3553 H   0  0  0  0  0  0  0  0  0  0  0  0
    3.3353    2.9260   11.4375 H   0  0  0  0  0  0  0  0  0  0  0  0
    4.0701    1.3841   11.0553 H   0  0  0  0  0  0  0  0  0  0  0  0
    4.3267    3.2443    8.4016 H   0  0  0  0  0  0  0  0  0  0  0  0
    3.7868    5.1743    5.0978 H   0  0  0  0  0  0  0  0  0  0  0  0
    4.3081    5.5763    6.6667 H   0  0  0  0  0  0  0  0  0  0  0  0
    2.6838    5.8110    6.3032 H   0  0  0  0  0  0  0  0  0  0  0  0
    5.2232    3.2232    5.6618 H   0  0  0  0  0  0  0  0  0  0  0  0
    5.0350    2.2669    7.0912 H   0  0  0  0  0  0  0  0  0  0  0  0
    5.3144    3.8949    7.2308 H   0  0  0  0  0  0  0  0  0  0  0  0
    3.3460    2.5530    4.9093 H   0  0  0  0  0  0  0  0  0  0  0  0
    2.8848    3.6168    3.3317 H   0  0  0  0  0  0  0  0  0  0  0  0
    1.2956    2.9361    2.0301 H   0  0  0  0  0  0  0  0  0  0  0  0
    0.9292    1.6730    3.0504 H   0  0  0  0  0  0  0  0  0  0  0  0
   -1.0678    3.0932    2.4980 H   0  0  0  0  0  0  0  0  0  0  0  0
   -0.5114    5.3824    2.5040 H   0  0  0  0  0  0  0  0  0  0  0  0
   -2.4529    1.8449    4.7656 H   0  0  0  0  0  0  0  0  0  0  0  0
   -2.9705    3.1387    3.7265 H   0  0  0  0  0  0  0  0  0  0  0  0
   -3.0655    3.3420    5.4553 H   0  0  0  0  0  0  0  0  0  0  0  0
   -1.2466    3.6436    6.6063 H   0  0  0  0  0  0  0  0  0  0  0  0
    0.7528    5.5602   10.6495 H   0  0  0  0  0  0  0  0  0  0  0  0
   -0.6477    5.2370    9.6666 H   0  0  0  0  0  0  0  0  0  0  0  0
    0.3542    6.5599    9.3026 H   0  0  0  0  0  0  0  0  0  0  0  0
    2.7644    5.8732    9.9038 H   0  0  0  0  0  0  0  0  0  0  0  0
    2.4764    6.5888    8.3436 H   0  0  0  0  0  0  0  0  0  0  0  0
    3.5383    5.2003    8.5855 H   0  0  0  0  0  0  0  0  0  0  0  0
   -1.9255    1.9410    7.1347 H   0  0  0  0  0  0  0  0  0  0  0  0
   -1.5316    0.9460    8.0862 H   0  0  0  0  0  0  0  0  0  0  0  0
   -1.0088    3.7111    8.5739 H   0  0  0  0  0  0  0  0  0  0  0  0
   -2.9382    2.6577    9.0895 H   0  0  0  0  0  0  0  0  0  0  0  0
   -2.1570    1.6286   10.1139 H   0  0  0  0  0  0  0  0  0  0  0  0
   -0.5201    3.7101   11.2063 H   0  0  0  0  0  0  0  0  0  0  0  0
    1.1891    3.5478   11.3874 H   0  0  0  0  0  0  0  0  0  0  0  0
    0.1316    2.3069   11.9018 H   0  0  0  0  0  0  0  0  0  0  0  0
    0.5660   -1.7318    9.7055 H   0  0  0  0  0  0  0  0  0  0  0  0
    0.7155   -0.5250    6.5389 H   0  0  0  0  0  0  0  0  0  0  0  0
   -0.8760   -0.6274    5.6174 H   0  0  0  0  0  0  0  0  0  0  0  0
    1.7646    5.2176    2.7012 H   0  0  0  0  0  0  0  0  0  0  0  0
    1.2554    6.8984    3.7592 H   0  0  0  0  0  0  0  0  0  0  0  0
  1  2  1  0
  1 48  1  0
  1 49  1  0
  1 50  1  0
  2  3  2  0
  2  4  1  0
  5  4  1  6
  5 20  1  0
  5 34  1  0
  5  6  1  0
  6 11  1  0
  6  7  1  0
  6 51  1  6
  7  8  1  0
  8  9  1  0
  8 52  1  0
  8 53  1  0
  9 42  1  0
  9 10  1  1
  9 11  1  0
 10 54  1  0
 10 55  1  0
 10 56  1  0
 11 12  1  0
 11 57  1  6
 12 13  1  0
 12 14  1  6
 12 15  1  0
 13 58  1  0
 13 59  1  0
 13 60  1  0
 14 61  1  0
 15 31  1  0
 15 38  1  0
 15 16  1  6
 16 17  1  0
 17 18  1  0
 17 19  1  0
 17 20  1  0
 18 62  1  0
 18 63  1  0
 18 64  1  0
 19 65  1  0
 19 66  1  0
 19 67  1  0
 20 21  1  0
 20 68  1  6
 21 46  1  0
 21 22  1  0
 21 69  1  6
 22 23  1  0
 22 70  1  0
 22 71  1  0
 23 26  1  0
 23 24  1  0
 23 72  1  6
 24 25  1  0
 24 46  1  0
 24 73  1  6
 25 26  1  0
 26 27  1  6
 26 28  1  0
 27 74  1  0
 27 75  1  0
 27 76  1  0
 28 29  1  0
 28 34  1  0
 28 77  1  1
 29 30  2  0
 29 31  1  1
 31 32  1  0
 31 33  1  0
 32 78  1  0
 32 79  1  0
 32 80  1  0
 33 81  1  0
 33 82  1  0
 33 83  1  0
 34 44  1  0
 34 35  1  6
 35 36  1  0
 35 84  1  0
 35 85  1  0
 36 37  1  0
 36 38  1  0
 36 86  1  6
 37 87  1  0
 37 88  1  0
 38 39  1  1
 38 40  1  0
 39 89  1  0
 39 90  1  0
 39 91  1  0
 40 41  2  0
 40 42  1  0
 42 43  1  1
 42 44  1  0
 43 92  1  0
 44 45  1  0
 44 93  1  6
 45 94  1  0
 46 47  1  0
 46 95  1  6
 47 96  1  0
M  END
>  <i_m_ct_stereo_status>  (32) 
1

>  <s_m_source_file>  (32) 
/var/tmp/pbs.5075288.sched01/tmpye5xf5zc/0p3ozm_yu.sdf

>  <i_m_source_file_index>  (32) 
52

>  <i_lp_mmshare_version>  (32) 
48012

>  <i_f3d_flags>  (32) 
0

>  <s_epik_input>  (32) 
Tz1DMVtDQEBdKFtPSF0pKFtDQEhdMltPSF0pW0NAXShbQ0gyXU8zKShbQ0gzXSlbQ0BIXShbQ0BAXTQoW0NIM10pW09IXSlbQ0BASF0zW0NAQF0oT0MoPU8pW0NIM10pKEMyNVtDSDJdW0NAQEhdKFtOSDJdKVtDQEBdMShbQ0BAXTQ2NylbQ0gzXSlbQ0BIXShDKE82KShbQ0gzXSlbQ0gzXSlbQ0BIXThbQ0gyXVtDQEBIXTlbQ0BIXShbQ0BIXThbT0hdKU9bQ0BdOShbQ0gzXSlbQ0BASF01W1MrXShbTy1dKUM3KFtDSDNdKVtDSDNd

>  <s_epik_cmdline>  (32) 
J2VwaWtfcHl0aG9uJywgJy1waHQnLCAnMi4wJywgJy1waCcsICc3LjAnLCAnLXRuJywgJzgnLCAnLW1hJywgJzIwMCcsICctaW1hZScsICc8aW5maWxlLm1hZT4nLCAnLW9tYWUnLCAnPG91dGZpbGUubWFlPic=

>  <r_epik_Ionization_Penalty>  (32) 
2.18142

>  <r_epik_Ionization_Penalty_Charging>  (32) 
0

>  <r_epik_Ionization_Penalty_Neutral>  (32) 
2.18142

>  <r_epik_State_Penalty>  (32) 
2.32348

>  <r_epik_Charging_Adjusted_Penalty>  (32) 
2.32348

>  <i_epik_Tot_Q>  (32) 
0

>  <i_epik_Tot_abs_Q>  (32) 
2

>  <s_epik_Chemistry_Notes>  (32) 
This compound has an ester and may undergo hydrolysis at high or low pH.

>  <s_lp_Force_Field>  (32) 
OPLS3e

>  <r_lp_Energy>  (32) 
539.29

>  <b_lp_Chiralities_Consistent>  (32) 
1

>  <s_lp_Variant>  (32) 
19:0-6

>  <s_i_glide_gridfile>  (32) 
pfpi4k_grid

>  <i_i_glide_lignum>  (32) 
52

>  <i_i_glide_rotatable_bonds>  (32) 
6

>  <r_i_docking_score>  (32) 
-2.44041

>  <r_i_glide_ligand_efficiency>  (32) 
-0.0519237

>  <r_i_glide_ligand_efficiency_sa>  (32) 
-0.187384

>  <r_i_glide_ligand_efficiency_ln>  (32) 
-0.503163

>  <r_i_glide_gscore>  (32) 
-2.44041

>  <r_i_glide_lipo>  (32) 
-0.00432868

>  <r_i_glide_hbond>  (32) 
-0.0782873

>  <r_i_glide_metal>  (32) 
-0

>  <r_i_glide_rewards>  (32) 
0

>  <r_i_glide_evdw>  (32) 
-20.3141

>  <r_i_glide_ecoul>  (32) 
-9.12817

>  <r_i_glide_erotb>  (32) 
0.0462146

>  <r_i_glide_esite>  (32) 
-0.0190851

>  <r_i_glide_emodel>  (32) 
-30.5846

>  <r_i_glide_energy>  (32) 
-29.4422

>  <r_i_glide_einternal>  (32) 
6.42701

>  <r_i_glide_intrahb_reward>  (32) 
-0

>  <i_i_glide_confnum>  (32) 
3

>  <i_i_glide_posenum>  (32) 
5

>  <r_i_glide_eff_state_penalty>  (32) 
0

>  <ligand_id>  (32) 
19

>  <original_smiles>  (32) 
CC(=O)OC12C3OCC4(C)C3C(C)(O)C35OC(C)(C)C1C1CC6C(OC6(C)C([S+]([O-])C3(C)C)C23CC(N)C5(C)C(=O)C4(O)C3O)C1O

>  <smiles>  (32) 
[H]OC1([H])C2([H])OC3(C([H])([H])[H])C4([H])S(=O)C(C([H])([H])[H])(C([H])([H])[H])C56OC(C([H])([H])[H])(C([H])([H])[H])C([H])(C1([H])C([H])([H])C23[H])C1(OC(=O)C([H])([H])[H])C2([H])OC([H])([H])C(C([H])([H])[H])(C3(O[H])C(=O)C5(C([H])([H])[H])C([H])(N([H])[H])C([H])([H])C41C3([H])O[H])C2([H])C6(O[H])C([H])([H])[H]

$$$$
19:5:2
     RDKit          3D

 96104  0  0  1  0  0  0  0  0999 V2000
    0.8309    7.5033    5.4012 C   0  0  0  0  0  0  0  0  0  0  0  0
    1.6646    6.2932    5.8208 C   0  0  0  0  0  0  0  0  0  0  0  0
    2.8622    6.4123    6.0736 O   0  0  0  0  0  0  0  0  0  0  0  0
    0.9000    5.1379    5.8992 O   0  0  0  0  0  0  0  0  0  0  0  0
    1.3145    3.7676    6.2139 C   0  0  1  0  0  0  0  0  0  0  0  0
    2.5115    3.4706    5.1385 C   0  0  2  0  0  0  0  0  0  0  0  0
    2.4126    4.3181    4.0001 O   0  0  0  0  0  0  0  0  0  0  0  0
    2.4351    3.5827    2.8213 C   0  0  0  0  0  0  0  0  0  0  0  0
    2.1228    2.1477    3.2554 C   0  0  1  0  0  0  0  0  0  0  0  0
    2.6863    1.2856    2.0760 C   0  0  0  0  0  0  0  0  0  0  0  0
    2.9484    2.0394    4.5593 C   0  0  2  0  0  0  0  0  0  0  0  0
    3.0922    0.6230    5.3940 C   0  0  1  0  0  0  0  0  0  0  0  0
    3.4998   -0.5624    4.4592 C   0  0  0  0  0  0  0  0  0  0  0  0
    4.3283    0.5350    6.0624 O   0  0  0  0  0  0  0  0  0  0  0  0
    1.8387    0.3805    6.3561 C   0  0  2  0  0  0  0  0  0  0  0  0
    2.0405    1.6986    6.9555 O   0  0  0  0  0  0  0  0  0  0  0  0
    2.9442    2.5297    7.8572 C   0  0  0  0  0  0  0  0  0  0  0  0
    3.2326    2.2352    9.3707 C   0  0  0  0  0  0  0  0  0  0  0  0
    4.4363    2.8662    7.4652 C   0  0  0  0  0  0  0  0  0  0  0  0
    1.9920    3.7917    7.6874 C   0  0  2  0  0  0  0  0  0  0  0  0
    1.3385    4.5942    8.9584 C   0  0  1  0  0  0  0  0  0  0  0  0
    0.1602    5.5703    8.6485 C   0  0  0  0  0  0  0  0  0  0  0  0
   -1.0941    4.8646    9.0454 C   0  0  2  0  0  0  0  0  0  0  0  0
   -0.7961    4.1298   10.3031 C   0  0  1  0  0  0  0  0  0  0  0  0
   -1.5209    2.9690    9.8467 O   0  0  0  0  0  0  0  0  0  0  0  0
   -1.5181    3.4826    8.5013 C   0  0  1  0  0  0  0  0  0  0  0  0
   -2.9702    3.4813    8.0102 C   0  0  0  0  0  0  0  0  0  0  0  0
   -0.6639    2.4301    7.6823 C   0  0  2  0  0  0  0  0  0  0  0  0
    0.3607    1.1268    8.7440 S   0  0  0  0  0  0  0  0  0  0  0  0
   -0.5865    0.3069    9.6123 O   0  0  0  0  0  0  0  0  0  0  0  0
    1.5185   -0.1740    7.8326 C   0  0  0  0  0  0  0  0  0  0  0  0
    0.7871   -1.5412    8.1040 C   0  0  0  0  0  0  0  0  0  0  0  0
    2.8234   -0.5465    8.5934 C   0  0  0  0  0  0  0  0  0  0  0  0
   -0.1381    2.9189    6.1536 C   0  0  0  0  0  0  0  0  0  0  0  0
   -1.1205    1.6459    5.6608 C   0  0  0  0  0  0  0  0  0  0  0  0
   -0.7860    0.1790    5.9192 C   0  0  1  0  0  0  0  0  0  0  0  0
   -1.8730   -0.6461    5.3742 N   0  0  0  0  0  0  0  0  0  0  0  0
    0.6197   -0.1156    5.3584 C   0  0  2  0  0  0  0  0  0  0  0  0
    0.7560   -1.6950    5.2104 C   0  0  0  0  0  0  0  0  0  0  0  0
    0.4962    0.4521    3.8882 C   0  0  0  0  0  0  0  0  0  0  0  0
    0.2299   -0.3137    2.9588 O   0  0  0  0  0  0  0  0  0  0  0  0
    0.5802    1.9684    3.5450 C   0  0  2  0  0  0  0  0  0  0  0  0
   -0.0555    2.1442    2.2796 O   0  0  0  0  0  0  0  0  0  0  0  0
   -0.2286    3.0463    4.5108 C   0  0  1  0  0  0  0  0  0  0  0  0
   -1.4384    3.6392    3.9983 O   0  0  0  0  0  0  0  0  0  0  0  0
    0.7215    4.0392   10.3278 C   0  0  1  0  0  0  0  0  0  0  0  0
    1.1939    3.0254   11.1801 O   0  0  0  0  0  0  0  0  0  0  0  0
   -0.1943    7.2108    5.1832 H   0  0  0  0  0  0  0  0  0  0  0  0
    1.2473    7.9702    4.5095 H   0  0  0  0  0  0  0  0  0  0  0  0
    0.8118    8.2462    6.1963 H   0  0  0  0  0  0  0  0  0  0  0  0
    3.3801    3.9908    5.4991 H   0  0  0  0  0  0  0  0  0  0  0  0
    1.7618    4.0002    2.0874 H   0  0  0  0  0  0  0  0  0  0  0  0
    3.4251    3.6851    2.3962 H   0  0  0  0  0  0  0  0  0  0  0  0
    2.4367    0.2308    2.0560 H   0  0  0  0  0  0  0  0  0  0  0  0
    3.7718    1.3327    2.0199 H   0  0  0  0  0  0  0  0  0  0  0  0
    2.3087    1.6617    1.1312 H   0  0  0  0  0  0  0  0  0  0  0  0
    3.9742    2.1944    4.2204 H   0  0  0  0  0  0  0  0  0  0  0  0
    2.7423   -0.9004    3.7656 H   0  0  0  0  0  0  0  0  0  0  0  0
    3.7873   -1.4595    5.0100 H   0  0  0  0  0  0  0  0  0  0  0  0
    4.3575   -0.2974    3.8361 H   0  0  0  0  0  0  0  0  0  0  0  0
    4.4134   -0.3400    6.4066 H   0  0  0  0  0  0  0  0  0  0  0  0
    3.3802    3.1613    9.9276 H   0  0  0  0  0  0  0  0  0  0  0  0
    4.1555    1.6888    9.5620 H   0  0  0  0  0  0  0  0  0  0  0  0
    2.5152    1.6326    9.8970 H   0  0  0  0  0  0  0  0  0  0  0  0
    4.7687    3.7846    7.9461 H   0  0  0  0  0  0  0  0  0  0  0  0
    4.7068    2.9371    6.4244 H   0  0  0  0  0  0  0  0  0  0  0  0
    5.1323    2.1071    7.8100 H   0  0  0  0  0  0  0  0  0  0  0  0
    2.7638    4.5278    7.5251 H   0  0  0  0  0  0  0  0  0  0  0  0
    2.1678    5.2302    9.2860 H   0  0  0  0  0  0  0  0  0  0  0  0
    0.2846    6.4345    9.3067 H   0  0  0  0  0  0  0  0  0  0  0  0
    0.0133    6.0432    7.7002 H   0  0  0  0  0  0  0  0  0  0  0  0
   -1.9472    5.5246    9.2002 H   0  0  0  0  0  0  0  0  0  0  0  0
   -1.2498    4.5895   11.1802 H   0  0  0  0  0  0  0  0  0  0  0  0
   -3.0125    3.8609    6.9934 H   0  0  0  0  0  0  0  0  0  0  0  0
   -3.6119    4.1099    8.6356 H   0  0  0  0  0  0  0  0  0  0  0  0
   -3.4108    2.4854    8.0297 H   0  0  0  0  0  0  0  0  0  0  0  0
   -1.4405    1.6732    7.7754 H   0  0  0  0  0  0  0  0  0  0  0  0
    1.3048   -2.4001    7.6838 H   0  0  0  0  0  0  0  0  0  0  0  0
   -0.2473   -1.6435    7.8115 H   0  0  0  0  0  0  0  0  0  0  0  0
    0.7589   -1.7382    9.1752 H   0  0  0  0  0  0  0  0  0  0  0  0
    3.1729   -1.5433    8.3272 H   0  0  0  0  0  0  0  0  0  0  0  0
    2.6820   -0.5569    9.6729 H   0  0  0  0  0  0  0  0  0  0  0  0
    3.6834    0.0515    8.3480 H   0  0  0  0  0  0  0  0  0  0  0  0
   -2.1326    1.8657    6.0014 H   0  0  0  0  0  0  0  0  0  0  0  0
   -1.6388    1.5211    4.6956 H   0  0  0  0  0  0  0  0  0  0  0  0
   -0.8857   -0.0501    6.9537 H   0  0  0  0  0  0  0  0  0  0  0  0
   -2.7737   -0.2928    5.6681 H   0  0  0  0  0  0  0  0  0  0  0  0
   -1.8800   -0.5740    4.3641 H   0  0  0  0  0  0  0  0  0  0  0  0
    0.0068   -2.2615    5.7558 H   0  0  0  0  0  0  0  0  0  0  0  0
    1.7124   -2.0561    5.5687 H   0  0  0  0  0  0  0  0  0  0  0  0
    0.6839   -2.1238    4.2133 H   0  0  0  0  0  0  0  0  0  0  0  0
    0.1879    2.9806    1.8745 H   0  0  0  0  0  0  0  0  0  0  0  0
    0.2239    3.9512    4.1504 H   0  0  0  0  0  0  0  0  0  0  0  0
   -1.3247    3.7025    3.0590 H   0  0  0  0  0  0  0  0  0  0  0  0
    0.9995    4.8527   10.9954 H   0  0  0  0  0  0  0  0  0  0  0  0
    0.5429    2.8876   11.8544 H   0  0  0  0  0  0  0  0  0  0  0  0
  1  2  1  0
  1 48  1  0
  1 49  1  0
  1 50  1  0
  2  3  2  0
  2  4  1  0
  5  4  1  6
  5 20  1  0
  5 34  1  0
  5  6  1  0
  6 11  1  0
  6  7  1  0
  6 51  1  1
  7  8  1  0
  8  9  1  0
  8 52  1  0
  8 53  1  0
  9 42  1  0
  9 10  1  6
  9 11  1  0
 10 54  1  0
 10 55  1  0
 10 56  1  0
 11 12  1  0
 11 57  1  6
 12 13  1  0
 12 14  1  1
 12 15  1  0
 13 58  1  0
 13 59  1  0
 13 60  1  0
 14 61  1  0
 15 31  1  0
 15 38  1  0
 15 16  1  1
 16 17  1  0
 17 18  1  0
 17 19  1  0
 17 20  1  0
 18 62  1  0
 18 63  1  0
 18 64  1  0
 19 65  1  0
 19 66  1  0
 19 67  1  0
 20 21  1  0
 20 68  1  6
 21 46  1  0
 21 22  1  0
 21 69  1  1
 22 23  1  0
 22 70  1  0
 22 71  1  0
 23 26  1  0
 23 24  1  0
 23 72  1  1
 24 25  1  0
 24 46  1  0
 24 73  1  1
 25 26  1  0
 26 27  1  6
 26 28  1  0
 27 74  1  0
 27 75  1  0
 27 76  1  0
 28 29  1  0
 28 34  1  0
 28 77  1  6
 29 30  2  0
 29 31  1  6
 31 32  1  0
 31 33  1  0
 32 78  1  0
 32 79  1  0
 32 80  1  0
 33 81  1  0
 33 82  1  0
 33 83  1  0
 34 44  1  0
 34 35  1  0
 35 36  1  0
 35 84  1  0
 35 85  1  0
 36 37  1  0
 36 38  1  0
 36 86  1  1
 37 87  1  0
 37 88  1  0
 38 39  1  6
 38 40  1  0
 39 89  1  0
 39 90  1  0
 39 91  1  0
 40 41  2  0
 40 42  1  0
 42 43  1  6
 42 44  1  0
 43 92  1  0
 44 45  1  0
 44 93  1  1
 45 94  1  0
 46 47  1  0
 46 95  1  1
 47 96  1  0
M  END
>  <i_m_ct_stereo_status>  (33) 
1

>  <s_m_source_file>  (33) 
/var/tmp/pbs.5075288.sched01/tmpye5xf5zc/0p3ozm_yu.sdf

>  <i_m_source_file_index>  (33) 
52

>  <i_lp_mmshare_version>  (33) 
48012

>  <i_f3d_flags>  (33) 
0

>  <s_epik_input>  (33) 
Tz1DMVtDQEBdKFtPSF0pKFtDQEhdMltPSF0pW0NAXShbQ0gyXU8zKShbQ0gzXSlbQ0BIXShbQ0BAXTQoW0NIM10pW09IXSlbQ0BASF0zW0NAQF0oT0MoPU8pW0NIM10pKEMyNVtDSDJdW0NAQEhdKFtOSDJdKVtDQEBdMShbQ0BAXTQ2NylbQ0gzXSlbQ0BIXShDKE82KShbQ0gzXSlbQ0gzXSlbQ0BIXThbQ0gyXVtDQEBIXTlbQ0BIXShbQ0BIXThbT0hdKU9bQ0BdOShbQ0gzXSlbQ0BASF01W1MrXShbTy1dKUM3KFtDSDNdKVtDSDNd

>  <s_epik_cmdline>  (33) 
J2VwaWtfcHl0aG9uJywgJy1waHQnLCAnMi4wJywgJy1waCcsICc3LjAnLCAnLXRuJywgJzgnLCAnLW1hJywgJzIwMCcsICctaW1hZScsICc8aW5maWxlLm1hZT4nLCAnLW9tYWUnLCAnPG91dGZpbGUubWFlPic=

>  <r_epik_Ionization_Penalty>  (33) 
2.18142

>  <r_epik_Ionization_Penalty_Charging>  (33) 
0

>  <r_epik_Ionization_Penalty_Neutral>  (33) 
2.18142

>  <r_epik_State_Penalty>  (33) 
2.32348

>  <r_epik_Charging_Adjusted_Penalty>  (33) 
2.32348

>  <i_epik_Tot_Q>  (33) 
0

>  <i_epik_Tot_abs_Q>  (33) 
2

>  <s_epik_Chemistry_Notes>  (33) 
This compound has an ester and may undergo hydrolysis at high or low pH.

>  <s_lp_Force_Field>  (33) 
OPLS3e

>  <r_lp_Energy>  (33) 
539.29

>  <b_lp_Chiralities_Consistent>  (33) 
1

>  <s_lp_Variant>  (33) 
19:0-6

>  <s_i_glide_gridfile>  (33) 
pfpi4k_grid

>  <i_i_glide_lignum>  (33) 
52

>  <i_i_glide_rotatable_bonds>  (33) 
6

>  <r_i_docking_score>  (33) 
-1.98581

>  <r_i_glide_ligand_efficiency>  (33) 
-0.0422514

>  <r_i_glide_ligand_efficiency_sa>  (33) 
-0.152478

>  <r_i_glide_ligand_efficiency_ln>  (33) 
-0.409434

>  <r_i_glide_gscore>  (33) 
-1.98581

>  <r_i_glide_lipo>  (33) 
-0.126071

>  <r_i_glide_hbond>  (33) 
0

>  <r_i_glide_metal>  (33) 
-0

>  <r_i_glide_rewards>  (33) 
0

>  <r_i_glide_evdw>  (33) 
-24.4195

>  <r_i_glide_ecoul>  (33) 
-4.37615

>  <r_i_glide_erotb>  (33) 
0.0462146

>  <r_i_glide_esite>  (33) 
-0.0285602

>  <r_i_glide_emodel>  (33) 
-32.5131

>  <r_i_glide_energy>  (33) 
-28.7957

>  <r_i_glide_einternal>  (33) 
1.10893

>  <r_i_glide_intrahb_reward>  (33) 
-0

>  <i_i_glide_confnum>  (33) 
3

>  <i_i_glide_posenum>  (33) 
34

>  <r_i_glide_eff_state_penalty>  (33) 
0

>  <ligand_id>  (33) 
19

>  <original_smiles>  (33) 
CC(=O)OC12C3OCC4(C)C3C(C)(O)C35OC(C)(C)C1C1CC6C(OC6(C)C([S+]([O-])C3(C)C)C23CC(N)C5(C)C(=O)C4(O)C3O)C1O

>  <smiles>  (33) 
[H]OC1([H])C2([H])OC3(C([H])([H])[H])C4([H])S(=O)C(C([H])([H])[H])(C([H])([H])[H])C56OC(C([H])([H])[H])(C([H])([H])[H])C([H])(C1([H])C([H])([H])C23[H])C1(OC(=O)C([H])([H])[H])C2([H])OC([H])([H])C(C([H])([H])[H])(C3(O[H])C(=O)C5(C([H])([H])[H])C([H])(N([H])[H])C([H])([H])C41C3([H])O[H])C2([H])C6(O[H])C([H])([H])[H]

$$$$
20:0:0
     RDKit          3D

 89 95  0  0  1  0  0  0  0  0999 V2000
    4.5071   -7.2314   -0.0425 C   0  0  0  0  0  0  0  0  0  0  0  0
    3.7974   -6.1465    0.5188 O   0  0  0  0  0  0  0  0  0  0  0  0
    4.2975   -4.8943    0.4467 C   0  0  0  0  0  0  0  0  0  0  0  0
    5.1750   -4.5145   -0.3227 O   0  0  0  0  0  0  0  0  0  0  0  0
    3.5478   -3.9783    1.4823 C   0  0  2  0  0  0  0  0  0  0  0  0
    4.3406   -2.7390    2.0334 C   0  0  1  0  0  0  0  0  0  0  0  0
    5.8902   -2.9230    2.1244 C   0  0  0  0  0  0  0  0  0  0  0  0
    4.1437   -1.6412    1.1489 O   0  0  0  0  0  0  0  0  0  0  0  0
    3.7048   -2.4455    3.3493 N   0  0  0  0  0  0  0  0  0  0  0  0
    3.9664   -1.3114    4.1665 C   0  0  0  0  0  0  0  0  0  0  0  0
    3.3281   -0.9653    5.1604 O   0  0  0  0  0  0  0  0  0  0  0  0
    5.0250   -0.6018    3.7048 O   0  0  0  0  0  0  0  0  0  0  0  0
    5.5532    0.4908    4.4456 C   0  0  0  0  0  0  0  0  0  0  0  0
    2.4777   -3.2612    3.4809 C   0  0  2  0  0  0  0  0  0  0  0  0
    1.3043   -2.4140    2.8945 C   0  0  0  0  0  0  0  0  0  0  0  0
    2.0219   -3.4331    4.8179 O   0  0  0  0  0  0  0  0  0  0  0  0
    2.9659   -4.1965    5.6419 O   0  0  0  0  0  0  0  0  0  0  0  0
    2.4357   -5.5218    5.9401 C   0  0  2  0  0  0  0  0  0  0  0  0
    2.9009   -7.1283    6.6720 C   0  0  0  0  0  0  0  0  0  0  0  0
    3.1466   -8.1928    5.6368 C   0  0  0  0  0  0  0  0  0  0  0  0
    2.5741   -9.4821    5.6067 C   0  0  0  0  0  0  0  0  0  0  0  0
    3.3382  -10.5701    5.9440 O   0  0  0  0  0  0  0  0  0  0  0  0
    1.2286   -9.6574    5.2076 C   0  0  0  0  0  0  0  0  0  0  0  0
    0.6268  -11.0347    5.0753 C   0  0  0  0  0  0  0  0  0  0  0  0
    0.4178   -8.5215    5.0029 C   0  0  0  0  0  0  0  0  0  0  0  0
   -0.9388   -8.6180    4.8550 O   0  0  0  0  0  0  0  0  0  0  0  0
    0.9960   -7.2434    5.1076 C   0  0  0  0  0  0  0  0  0  0  0  0
    2.5061   -7.2204    4.9735 C   0  0  0  0  0  0  0  0  0  0  0  0
    3.5300   -5.9508    5.1605 C   0  0  1  0  0  0  0  0  0  0  0  0
    3.8174   -5.4646    3.6680 C   0  0  1  0  0  0  0  0  0  0  0  0
    4.3853   -6.6207    3.1058 O   0  0  0  0  0  0  0  0  0  0  0  0
    2.7958   -4.6180    2.7408 C   0  0  2  0  0  0  0  0  0  0  0  0
    1.4565   -5.4149    2.4105 C   0  0  0  0  0  0  0  0  0  0  0  0
    1.2566   -5.7681    1.0496 O   0  0  0  0  0  0  0  0  0  0  0  0
    4.8322   -5.6133    6.2226 C   0  0  2  0  0  0  0  0  0  0  0  0
    5.6195   -4.5176    5.7659 O   0  0  0  0  0  0  0  0  0  0  0  0
    5.9284   -6.6913    6.3641 C   0  0  0  0  0  0  0  0  0  0  0  0
    6.4871   -6.4070    7.7403 C   0  0  0  0  0  0  0  0  0  0  0  0
    7.6417   -6.6325    8.0554 O   0  0  0  0  0  0  0  0  0  0  0  0
    5.4415   -5.8153    8.6648 C   0  0  1  0  0  0  0  0  0  0  0  0
    6.0967   -5.0168    9.7704 N   0  0  0  0  0  0  0  0  0  0  0  0
    6.8316   -3.7690    9.3661 C   0  0  0  0  0  0  0  0  0  0  0  0
    5.1817   -4.7695   10.9282 C   0  0  0  0  0  0  0  0  0  0  0  0
    4.4338   -5.0866    7.7362 C   0  0  2  0  0  0  0  0  0  0  0  0
    2.9092   -5.2345    8.3052 C   0  0  0  0  0  0  0  0  0  0  0  0
    1.8097   -5.0578    7.1641 C   0  0  2  0  0  0  0  0  0  0  0  0
    0.2986   -6.1386    6.6349 S   0  0  0  0  0  0  0  0  0  0  0  0
    0.0333   -7.0832    7.8175 O   0  0  0  0  0  0  0  0  0  0  0  0
    3.9049   -8.1125    0.1488 H   0  0  0  0  0  0  0  0  0  0  0  0
    5.4720   -7.4303    0.4524 H   0  0  0  0  0  0  0  0  0  0  0  0
    4.6057   -7.1767   -1.1334 H   0  0  0  0  0  0  0  0  0  0  0  0
    2.7480   -3.5985    0.8458 H   0  0  0  0  0  0  0  0  0  0  0  0
    6.2031   -3.6951    2.8225 H   0  0  0  0  0  0  0  0  0  0  0  0
    6.3954   -2.0065    2.4035 H   0  0  0  0  0  0  0  0  0  0  0  0
    6.3622   -3.1437    1.1715 H   0  0  0  0  0  0  0  0  0  0  0  0
    3.5946   -1.8916    0.4193 H   0  0  0  0  0  0  0  0  0  0  0  0
    6.4423    0.8857    3.9506 H   0  0  0  0  0  0  0  0  0  0  0  0
    5.8573    0.1968    5.4528 H   0  0  0  0  0  0  0  0  0  0  0  0
    4.8230    1.2964    4.5146 H   0  0  0  0  0  0  0  0  0  0  0  0
    1.4342   -2.2006    1.8352 H   0  0  0  0  0  0  0  0  0  0  0  0
    1.2035   -1.4610    3.4121 H   0  0  0  0  0  0  0  0  0  0  0  0
    0.3417   -2.8852    3.0458 H   0  0  0  0  0  0  0  0  0  0  0  0
    3.7205   -7.2837    7.3459 H   0  0  0  0  0  0  0  0  0  0  0  0
    2.1828   -7.5977    7.3510 H   0  0  0  0  0  0  0  0  0  0  0  0
    2.7975  -11.3198    6.1731 H   0  0  0  0  0  0  0  0  0  0  0  0
   -0.1487  -11.1003    4.3090 H   0  0  0  0  0  0  0  0  0  0  0  0
    0.1789  -11.3212    6.0204 H   0  0  0  0  0  0  0  0  0  0  0  0
    1.3722  -11.7856    4.8271 H   0  0  0  0  0  0  0  0  0  0  0  0
   -1.2954   -9.5186    4.9075 H   0  0  0  0  0  0  0  0  0  0  0  0
    4.6764   -4.8255    3.6897 H   0  0  0  0  0  0  0  0  0  0  0  0
    4.5452   -6.4560    2.1934 H   0  0  0  0  0  0  0  0  0  0  0  0
    1.4966   -6.3756    2.9101 H   0  0  0  0  0  0  0  0  0  0  0  0
    0.5252   -4.9277    2.7530 H   0  0  0  0  0  0  0  0  0  0  0  0
    2.0032   -6.2681    0.7364 H   0  0  0  0  0  0  0  0  0  0  0  0
    5.9263   -4.7664    4.9110 H   0  0  0  0  0  0  0  0  0  0  0  0
    5.5697   -7.7158    6.3730 H   0  0  0  0  0  0  0  0  0  0  0  0
    6.6936   -6.6247    5.5960 H   0  0  0  0  0  0  0  0  0  0  0  0
    4.9711   -6.6710    9.1497 H   0  0  0  0  0  0  0  0  0  0  0  0
    6.1450   -3.0002    9.0118 H   0  0  0  0  0  0  0  0  0  0  0  0
    7.5940   -3.9603    8.6065 H   0  0  0  0  0  0  0  0  0  0  0  0
    7.3429   -3.3600   10.2403 H   0  0  0  0  0  0  0  0  0  0  0  0
    4.4239   -4.0324   10.6557 H   0  0  0  0  0  0  0  0  0  0  0  0
    5.7594   -4.3713   11.7613 H   0  0  0  0  0  0  0  0  0  0  0  0
    4.7044   -5.6947   11.2559 H   0  0  0  0  0  0  0  0  0  0  0  0
    4.5965   -4.0055    7.7392 H   0  0  0  0  0  0  0  0  0  0  0  0
    2.7686   -6.1057    8.9594 H   0  0  0  0  0  0  0  0  0  0  0  0
    2.7399   -4.4073    8.9812 H   0  0  0  0  0  0  0  0  0  0  0  0
    1.4600   -4.0088    7.1509 H   0  0  0  0  0  0  0  0  0  0  0  0
    6.8281   -5.6427   10.1269 H   0  0  0  0  0  0  0  0  0  0  0  0
  1  2  1  0
  1 49  1  0
  1 50  1  0
  1 51  1  0
  2  3  1  0
  3  4  2  0
  3  5  1  0
  5 32  1  0
  5  6  1  0
  5 52  1  6
  6  7  1  0
  6  8  1  6
  6  9  1  0
  7 53  1  0
  7 54  1  0
  7 55  1  0
  8 56  1  0
  9 10  1  0
  9 14  1  0
 10 11  2  0
 10 12  1  0
 12 13  1  0
 13 57  1  0
 13 58  1  0
 13 59  1  0
 14 32  1  0
 14 15  1  6
 14 16  1  0
 15 60  1  0
 15 61  1  0
 15 62  1  0
 16 17  1  0
 18 17  1  6
 18 29  1  0
 18 46  1  0
 18 19  1  0
 19 20  1  0
 19 63  1  0
 19 64  1  0
 20 28  2  0
 20 21  1  0
 21 22  1  0
 21 23  2  0
 22 65  1  0
 23 24  1  0
 23 25  1  0
 24 66  1  0
 24 67  1  0
 24 68  1  0
 25 26  1  0
 25 27  2  0
 26 69  1  0
 47 27  1  6
 27 28  1  0
 29 28  1  6
 29 30  1  0
 29 35  1  0
 30 31  1  0
 30 32  1  0
 30 70  1  1
 31 71  1  0
 32 33  1  6
 33 34  1  0
 33 72  1  0
 33 73  1  0
 34 74  1  0
 35 44  1  0
 35 36  1  6
 35 37  1  0
 36 75  1  0
 37 38  1  0
 37 76  1  0
 37 77  1  0
 38 39  2  0
 38 40  1  0
 40 41  1  0
 40 44  1  0
 40 78  1  1
 41 42  1  0
 41 43  1  0
 41 89  1  0
 42 79  1  0
 42 80  1  0
 42 81  1  0
 43 82  1  0
 43 83  1  0
 43 84  1  0
 44 45  1  0
 44 85  1  6
 45 46  1  0
 45 86  1  0
 45 87  1  0
 46 47  1  0
 46 88  1  6
 47 48  2  0
M  CHG  1  41   1
M  END
>  <i_m_ct_stereo_status>  (34) 
1

>  <s_m_source_file>  (34) 
/var/tmp/pbs.5075288.sched01/tmpye5xf5zc/0p3ozm_yu.sdf

>  <i_m_source_file_index>  (34) 
53

>  <i_lp_mmshare_version>  (34) 
48012

>  <i_f3d_flags>  (34) 
0

>  <s_epik_input>  (34) 
W0NIM11PQyg9TylbQ0BASF0xW0NAQF0oW0NIM10pKFtPSF0pTihDKD1PKU9bQ0gzXSlbQ0BdKFtDSDNdKShPTzIpW0NAXTEoW0NIMl1bT0hdKVtDQEhdKFtPSF0pW0NAQF0zKEMyNDUpYzZjKFtDSDJdNCljKFtPSF0pYyhbQ0gzXSljKFtPSF0pYzZbUytdKFtPLV0pW0NIXTVbQ0gyXVtDQEBIXTdbQ0BAXTMoW09IXSlbQ0gyXUMoPU8pW0NASF03TihbQ0gzXSlbQ0gzXQ==

>  <s_epik_cmdline>  (34) 
J2VwaWtfcHl0aG9uJywgJy1waHQnLCAnMi4wJywgJy1waCcsICc3LjAnLCAnLXRuJywgJzgnLCAnLW1hJywgJzIwMCcsICctaW1hZScsICc8aW5maWxlLm1hZT4nLCAnLW9tYWUnLCAnPG91dGZpbGUubWFlPic=

>  <r_lp_tautomer_probability>  (34) 
0.99995

>  <r_epik_Ionization_Penalty>  (34) 
0.0511036

>  <r_epik_Ionization_Penalty_Charging>  (34) 
0.05092

>  <r_epik_Ionization_Penalty_Neutral>  (34) 
0.000183589

>  <r_epik_State_Penalty>  (34) 
0.0435891

>  <r_epik_Charging_Adjusted_Penalty>  (34) 
0.0945091

>  <i_epik_Tot_Q>  (34) 
1

>  <i_epik_Tot_abs_Q>  (34) 
3

>  <s_epik_Chemistry_Notes>  (34) 
This compound has an ester and may undergo hydrolysis at high or low pH.

>  <s_lp_Force_Field>  (34) 
OPLS3e

>  <r_lp_Energy>  (34) 
499.161

>  <b_lp_Chiralities_Consistent>  (34) 
1

>  <s_lp_Variant>  (34) 
20:0-1

>  <s_i_glide_gridfile>  (34) 
pfpi4k_grid

>  <i_i_glide_lignum>  (34) 
53

>  <i_i_glide_rotatable_bonds>  (34) 
12

>  <r_i_docking_score>  (34) 
-4.0271

>  <r_i_glide_ligand_efficiency>  (34) 
-0.0838978

>  <r_i_glide_ligand_efficiency_sa>  (34) 
-0.304905

>  <r_i_glide_ligand_efficiency_ln>  (34) 
-0.826715

>  <r_i_glide_gscore>  (34) 
-4.0271

>  <r_i_glide_lipo>  (34) 
-0.253376

>  <r_i_glide_hbond>  (34) 
-0.0443066

>  <r_i_glide_metal>  (34) 
-0

>  <r_i_glide_rewards>  (34) 
-1.08105

>  <r_i_glide_evdw>  (34) 
-22.6842

>  <r_i_glide_ecoul>  (34) 
-13.1172

>  <r_i_glide_erotb>  (34) 
0.132052

>  <r_i_glide_esite>  (34) 
-0.00460085

>  <r_i_glide_emodel>  (34) 
-46.6818

>  <r_i_glide_energy>  (34) 
-35.8014

>  <r_i_glide_einternal>  (34) 
11.2342

>  <r_i_glide_intrahb_reward>  (34) 
-1

>  <i_i_glide_confnum>  (34) 
5

>  <i_i_glide_posenum>  (34) 
33

>  <r_i_glide_eff_state_penalty>  (34) 
0

>  <ligand_id>  (34) 
20

>  <original_smiles>  (34) 
COC(=O)C1C(C)(O)N(C(=O)OC)C2(C)OOC34Cc5c(O)c(C)c(O)c6c5C3(C(O)C12CO)C1(O)CC(=O)C(N(C)C)C1CC4[S+]6[O-]

>  <smiles>  (34) 
[H]Oc1c2c3c(c(O[H])c1C([H])([H])[H])C([H])([H])C14OOC5(C([H])([H])[H])N(C(=O)OC([H])([H])[H])C(O[H])(C([H])([H])[H])C([H])(C(=O)OC([H])([H])[H])C5(C([H])([H])O[H])C([H])(O[H])C31C1(O[H])C([H])([H])C(=O)C([H])([N+]([H])(C([H])([H])[H])C([H])([H])[H])C1([H])C([H])([H])C4([H])S2=O

$$$$
20:1:0
     RDKit          3D

 89 95  0  0  1  0  0  0  0  0999 V2000
    2.2540   -2.5740   -3.6399 C   0  0  0  0  0  0  0  0  0  0  0  0
    2.6253   -2.6806   -2.2888 O   0  0  0  0  0  0  0  0  0  0  0  0
    3.5120   -1.8576   -1.7261 C   0  0  0  0  0  0  0  0  0  0  0  0
    3.7619   -0.7080   -2.1240 O   0  0  0  0  0  0  0  0  0  0  0  0
    4.3393   -2.5456   -0.5975 C   0  0  2  0  0  0  0  0  0  0  0  0
    4.2607   -4.0789   -0.3560 C   0  0  1  0  0  0  0  0  0  0  0  0
    2.8379   -4.7090   -0.3841 C   0  0  0  0  0  0  0  0  0  0  0  0
    5.0146   -4.6485   -1.4056 O   0  0  0  0  0  0  0  0  0  0  0  0
    4.9310   -4.2732    0.9494 N   0  0  0  0  0  0  0  0  0  0  0  0
    5.2328   -5.5209    1.5463 C   0  0  0  0  0  0  0  0  0  0  0  0
    5.8083   -5.6705    2.6312 O   0  0  0  0  0  0  0  0  0  0  0  0
    4.8063   -6.5527    0.7985 O   0  0  0  0  0  0  0  0  0  0  0  0
    4.9201   -7.8833    1.2757 C   0  0  0  0  0  0  0  0  0  0  0  0
    5.3654   -2.9879    1.5340 C   0  0  2  0  0  0  0  0  0  0  0  0
    6.9050   -2.8978    1.2603 C   0  0  0  0  0  0  0  0  0  0  0  0
    5.1264   -3.0072    2.9569 O   0  0  0  0  0  0  0  0  0  0  0  0
    5.3051   -1.6592    3.6134 O   0  0  0  0  0  0  0  0  0  0  0  0
    4.0519   -1.0620    3.9840 C   0  0  1  0  0  0  0  0  0  0  0  0
    4.0422    0.5049    3.7776 C   0  0  0  0  0  0  0  0  0  0  0  0
    2.6356    0.8226    3.3949 C   0  0  0  0  0  0  0  0  0  0  0  0
    1.9763    2.0461    3.5624 C   0  0  0  0  0  0  0  0  0  0  0  0
    2.5975    3.2101    3.2066 O   0  0  0  0  0  0  0  0  0  0  0  0
    0.7132    2.0126    4.1761 C   0  0  0  0  0  0  0  0  0  0  0  0
   -0.1238    3.2782    4.2499 C   0  0  0  0  0  0  0  0  0  0  0  0
    0.3365    0.8113    4.8304 C   0  0  0  0  0  0  0  0  0  0  0  0
   -0.6802    0.8233    5.7408 O   0  0  0  0  0  0  0  0  0  0  0  0
    1.1598   -0.3497    4.7054 C   0  0  0  0  0  0  0  0  0  0  0  0
    1.9598   -0.3933    3.5626 C   0  0  0  0  0  0  0  0  0  0  0  0
    2.8662   -1.5984    3.1645 C   0  0  1  0  0  0  0  0  0  0  0  0
    3.1126   -1.5730    1.5280 C   0  0  1  0  0  0  0  0  0  0  0  0
    2.5807   -0.4267    0.8941 O   0  0  0  0  0  0  0  0  0  0  0  0
    4.5176   -1.8726    0.7970 C   0  0  2  0  0  0  0  0  0  0  0  0
    5.3437   -0.5794    0.4848 C   0  0  0  0  0  0  0  0  0  0  0  0
    5.8127   -0.0986    1.6512 O   0  0  0  0  0  0  0  0  0  0  0  0
    2.3336   -3.0605    3.6552 C   0  0  2  0  0  0  0  0  0  0  0  0
    2.5452   -4.0351    2.6498 O   0  0  0  0  0  0  0  0  0  0  0  0
    0.8060   -3.2165    3.8350 C   0  0  0  0  0  0  0  0  0  0  0  0
    0.6728   -4.4659    4.6685 C   0  0  0  0  0  0  0  0  0  0  0  0
   -0.1833   -5.2965    4.4874 O   0  0  0  0  0  0  0  0  0  0  0  0
    1.8489   -4.5328    5.6479 C   0  0  1  0  0  0  0  0  0  0  0  0
    2.0858   -5.9540    6.1228 N   0  0  0  0  0  0  0  0  0  0  0  0
    2.3476   -6.9678    5.0499 C   0  0  0  0  0  0  0  0  0  0  0  0
    1.0330   -6.4482    7.0707 C   0  0  0  0  0  0  0  0  0  0  0  0
    3.0024   -3.7808    4.8951 C   0  0  2  0  0  0  0  0  0  0  0  0
    3.8762   -2.9021    5.8081 C   0  0  0  0  0  0  0  0  0  0  0  0
    3.7841   -1.4035    5.5026 C   0  0  2  0  0  0  0  0  0  0  0  0
    2.1342   -0.7744    6.2039 S   0  0  0  0  0  0  0  0  0  0  0  0
    1.3835   -1.8527    6.9508 O   0  0  0  0  0  0  0  0  0  0  0  0
    1.5169   -3.3443   -3.8564 H   0  0  0  0  0  0  0  0  0  0  0  0
    3.1299   -2.7840   -4.2592 H   0  0  0  0  0  0  0  0  0  0  0  0
    1.8354   -1.6055   -3.9191 H   0  0  0  0  0  0  0  0  0  0  0  0
    5.3195   -2.4272   -1.0516 H   0  0  0  0  0  0  0  0  0  0  0  0
    2.1106   -4.2224    0.2445 H   0  0  0  0  0  0  0  0  0  0  0  0
    2.8219   -5.7881   -0.2308 H   0  0  0  0  0  0  0  0  0  0  0  0
    2.3595   -4.6538   -1.3409 H   0  0  0  0  0  0  0  0  0  0  0  0
    4.4367   -5.2059   -1.9159 H   0  0  0  0  0  0  0  0  0  0  0  0
    4.5016   -8.5786    0.5502 H   0  0  0  0  0  0  0  0  0  0  0  0
    4.3832   -8.0291    2.2141 H   0  0  0  0  0  0  0  0  0  0  0  0
    5.9653   -8.1469    1.4279 H   0  0  0  0  0  0  0  0  0  0  0  0
    7.1653   -2.9153    0.1998 H   0  0  0  0  0  0  0  0  0  0  0  0
    7.4641   -3.7208    1.7036 H   0  0  0  0  0  0  0  0  0  0  0  0
    7.3444   -1.9870    1.6449 H   0  0  0  0  0  0  0  0  0  0  0  0
    4.4838    1.0375    4.6410 H   0  0  0  0  0  0  0  0  0  0  0  0
    4.4165    0.9408    2.8838 H   0  0  0  0  0  0  0  0  0  0  0  0
    2.0012    3.9284    3.0319 H   0  0  0  0  0  0  0  0  0  0  0  0
   -1.1829    3.0423    4.3551 H   0  0  0  0  0  0  0  0  0  0  0  0
   -0.0120    3.8731    3.3371 H   0  0  0  0  0  0  0  0  0  0  0  0
    0.1946    3.8826    5.0977 H   0  0  0  0  0  0  0  0  0  0  0  0
   -1.1393    1.6498    5.7445 H   0  0  0  0  0  0  0  0  0  0  0  0
    2.4059   -2.2677    1.0972 H   0  0  0  0  0  0  0  0  0  0  0  0
    1.8297   -0.6603    0.3205 H   0  0  0  0  0  0  0  0  0  0  0  0
    6.2068   -0.7384   -0.1962 H   0  0  0  0  0  0  0  0  0  0  0  0
    4.7444    0.2199    0.0516 H   0  0  0  0  0  0  0  0  0  0  0  0
    6.6502    0.2512    1.4647 H   0  0  0  0  0  0  0  0  0  0  0  0
    2.4616   -3.6176    1.8078 H   0  0  0  0  0  0  0  0  0  0  0  0
    0.3225   -2.4723    4.4443 H   0  0  0  0  0  0  0  0  0  0  0  0
    0.2579   -3.3028    2.9037 H   0  0  0  0  0  0  0  0  0  0  0  0
    1.5742   -3.9895    6.5522 H   0  0  0  0  0  0  0  0  0  0  0  0
    1.4680   -7.1429    4.4266 H   0  0  0  0  0  0  0  0  0  0  0  0
    2.5860   -7.9422    5.4929 H   0  0  0  0  0  0  0  0  0  0  0  0
    3.1779   -6.6692    4.4010 H   0  0  0  0  0  0  0  0  0  0  0  0
    0.0382   -6.4564    6.6294 H   0  0  0  0  0  0  0  0  0  0  0  0
    0.9861   -5.8316    7.9702 H   0  0  0  0  0  0  0  0  0  0  0  0
    1.2262   -7.4806    7.3711 H   0  0  0  0  0  0  0  0  0  0  0  0
    3.7038   -4.5330    4.5342 H   0  0  0  0  0  0  0  0  0  0  0  0
    3.6779   -3.0875    6.8668 H   0  0  0  0  0  0  0  0  0  0  0  0
    4.9211   -3.1720    5.6417 H   0  0  0  0  0  0  0  0  0  0  0  0
    4.5468   -0.8942    6.0901 H   0  0  0  0  0  0  0  0  0  0  0  0
    2.9385   -5.9286    6.6764 H   0  0  0  0  0  0  0  0  0  0  0  0
  1  2  1  0
  1 49  1  0
  1 50  1  0
  1 51  1  0
  2  3  1  0
  3  4  2  0
  3  5  1  0
  5 32  1  0
  5  6  1  0
  5 52  1  6
  6  7  1  0
  6  8  1  6
  6  9  1  0
  7 53  1  0
  7 54  1  0
  7 55  1  0
  8 56  1  0
  9 10  1  0
  9 14  1  0
 10 11  2  0
 10 12  1  0
 12 13  1  0
 13 57  1  0
 13 58  1  0
 13 59  1  0
 14 32  1  0
 14 15  1  1
 14 16  1  0
 15 60  1  0
 15 61  1  0
 15 62  1  0
 16 17  1  0
 18 17  1  6
 18 29  1  0
 18 46  1  0
 18 19  1  0
 19 20  1  0
 19 63  1  0
 19 64  1  0
 20 28  2  0
 20 21  1  0
 21 22  1  0
 21 23  2  0
 22 65  1  0
 23 24  1  0
 23 25  1  0
 24 66  1  0
 24 67  1  0
 24 68  1  0
 25 26  1  0
 25 27  2  0
 26 69  1  0
 47 27  1  6
 27 28  1  0
 29 28  1  6
 29 30  1  0
 29 35  1  0
 30 31  1  0
 30 32  1  0
 30 70  1  6
 31 71  1  0
 32 33  1  6
 33 34  1  0
 33 72  1  0
 33 73  1  0
 34 74  1  0
 35 44  1  0
 35 36  1  6
 35 37  1  0
 36 75  1  0
 37 38  1  0
 37 76  1  0
 37 77  1  0
 38 39  2  0
 38 40  1  0
 40 41  1  0
 40 44  1  0
 40 78  1  1
 41 42  1  0
 41 43  1  0
 41 89  1  0
 42 79  1  0
 42 80  1  0
 42 81  1  0
 43 82  1  0
 43 83  1  0
 43 84  1  0
 44 45  1  0
 44 85  1  6
 45 46  1  0
 45 86  1  0
 45 87  1  0
 46 47  1  0
 46 88  1  1
 47 48  2  0
M  CHG  1  41   1
M  END
>  <i_m_ct_stereo_status>  (35) 
1

>  <s_m_source_file>  (35) 
/var/tmp/pbs.5075288.sched01/tmpye5xf5zc/0p3ozm_yu.sdf

>  <i_m_source_file_index>  (35) 
54

>  <i_lp_mmshare_version>  (35) 
48012

>  <i_f3d_flags>  (35) 
0

>  <s_epik_input>  (35) 
W0NIM11PQyg9TylbQ0BASF0xW0NAQF0oW0NIM10pKFtPSF0pTihDKD1PKU9bQ0gzXSlbQ0BdKFtDSDNdKShPTzIpW0NAXTEoW0NIMl1bT0hdKVtDQEhdKFtPSF0pW0NAQF0zKEMyNDUpYzZjKFtDSDJdNCljKFtPSF0pYyhbQ0gzXSljKFtPSF0pYzZbUytdKFtPLV0pW0NIXTVbQ0gyXVtDQEBIXTdbQ0BAXTMoW09IXSlbQ0gyXUMoPU8pW0NASF03TihbQ0gzXSlbQ0gzXQ==

>  <s_epik_cmdline>  (35) 
J2VwaWtfcHl0aG9uJywgJy1waHQnLCAnMi4wJywgJy1waCcsICc3LjAnLCAnLXRuJywgJzgnLCAnLW1hJywgJzIwMCcsICctaW1hZScsICc8aW5maWxlLm1hZT4nLCAnLW9tYWUnLCAnPG91dGZpbGUubWFlPic=

>  <r_lp_tautomer_probability>  (35) 
0.99995

>  <r_epik_Ionization_Penalty>  (35) 
0.0511036

>  <r_epik_Ionization_Penalty_Charging>  (35) 
0.05092

>  <r_epik_Ionization_Penalty_Neutral>  (35) 
0.000183589

>  <r_epik_State_Penalty>  (35) 
0.0435891

>  <r_epik_Charging_Adjusted_Penalty>  (35) 
0.0945091

>  <i_epik_Tot_Q>  (35) 
1

>  <i_epik_Tot_abs_Q>  (35) 
3

>  <s_epik_Chemistry_Notes>  (35) 
This compound has an ester and may undergo hydrolysis at high or low pH.

>  <s_lp_Force_Field>  (35) 
OPLS3e

>  <r_lp_Energy>  (35) 
159.115

>  <b_lp_Chiralities_Consistent>  (35) 
1

>  <s_lp_Variant>  (35) 
20:0-2

>  <s_i_glide_gridfile>  (35) 
pfpi4k_grid

>  <i_i_glide_lignum>  (35) 
54

>  <i_i_glide_rotatable_bonds>  (35) 
12

>  <r_i_docking_score>  (35) 
-3.70834

>  <r_i_glide_ligand_efficiency>  (35) 
-0.0772571

>  <r_i_glide_ligand_efficiency_sa>  (35) 
-0.280771

>  <r_i_glide_ligand_efficiency_ln>  (35) 
-0.761279

>  <r_i_glide_gscore>  (35) 
-3.70834

>  <r_i_glide_lipo>  (35) 
-0.579757

>  <r_i_glide_hbond>  (35) 
-8.99631e-05

>  <r_i_glide_metal>  (35) 
-0

>  <r_i_glide_rewards>  (35) 
-0.18732

>  <r_i_glide_evdw>  (35) 
-21.045

>  <r_i_glide_ecoul>  (35) 
-16.555

>  <r_i_glide_erotb>  (35) 
0.132052

>  <r_i_glide_esite>  (35) 
-0.0799519

>  <r_i_glide_emodel>  (35) 
-36.3743

>  <r_i_glide_energy>  (35) 
-37.6

>  <r_i_glide_einternal>  (35) 
13.9193

>  <r_i_glide_intrahb_reward>  (35) 
-0

>  <i_i_glide_confnum>  (35) 
2

>  <i_i_glide_posenum>  (35) 
24

>  <r_i_glide_eff_state_penalty>  (35) 
0

>  <ligand_id>  (35) 
20

>  <original_smiles>  (35) 
COC(=O)C1C(C)(O)N(C(=O)OC)C2(C)OOC34Cc5c(O)c(C)c(O)c6c5C3(C(O)C12CO)C1(O)CC(=O)C(N(C)C)C1CC4[S+]6[O-]

>  <smiles>  (35) 
[H]Oc1c2c3c(c(O[H])c1C([H])([H])[H])C([H])([H])C14OOC5(C([H])([H])[H])N(C(=O)OC([H])([H])[H])C(O[H])(C([H])([H])[H])C([H])(C(=O)OC([H])([H])[H])C5(C([H])([H])O[H])C([H])(O[H])C31C1(O[H])C([H])([H])C(=O)C([H])([N+]([H])(C([H])([H])[H])C([H])([H])[H])C1([H])C([H])([H])C4([H])S2=O

$$$$
20:1:1
     RDKit          3D

 89 95  0  0  1  0  0  0  0  0999 V2000
    2.8276   -2.2554   -3.0490 C   0  0  0  0  0  0  0  0  0  0  0  0
    3.5473   -2.6107   -1.8789 O   0  0  0  0  0  0  0  0  0  0  0  0
    2.9672   -3.4487   -1.0116 C   0  0  0  0  0  0  0  0  0  0  0  0
    1.8030   -3.8351   -1.0973 O   0  0  0  0  0  0  0  0  0  0  0  0
    3.9155   -3.9178    0.1137 C   0  0  2  0  0  0  0  0  0  0  0  0
    3.8087   -5.3788    0.6332 C   0  0  1  0  0  0  0  0  0  0  0  0
    2.3790   -5.9893    0.7386 C   0  0  0  0  0  0  0  0  0  0  0  0
    4.5241   -6.1725   -0.3036 O   0  0  0  0  0  0  0  0  0  0  0  0
    4.5085   -5.3314    1.9398 N   0  0  0  0  0  0  0  0  0  0  0  0
    4.8657   -6.4360    2.7461 C   0  0  0  0  0  0  0  0  0  0  0  0
    5.4893   -6.3808    3.8097 O   0  0  0  0  0  0  0  0  0  0  0  0
    4.4014   -7.5873    2.2349 O   0  0  0  0  0  0  0  0  0  0  0  0
    4.5711   -8.8072    2.9350 C   0  0  0  0  0  0  0  0  0  0  0  0
    5.0203   -3.9666    2.2319 C   0  0  2  0  0  0  0  0  0  0  0  0
    6.5339   -3.9639    1.9011 C   0  0  0  0  0  0  0  0  0  0  0  0
    4.8785   -3.6703    3.6221 O   0  0  0  0  0  0  0  0  0  0  0  0
    5.1111   -2.2149    3.8971 O   0  0  0  0  0  0  0  0  0  0  0  0
    3.8910   -1.5865    4.3013 C   0  0  1  0  0  0  0  0  0  0  0  0
    3.9153   -0.1248    3.7343 C   0  0  0  0  0  0  0  0  0  0  0  0
    2.4795    0.2004    3.4275 C   0  0  0  0  0  0  0  0  0  0  0  0
    1.8350    1.4521    3.4110 C   0  0  0  0  0  0  0  0  0  0  0  0
    2.4267    2.5230    2.8101 O   0  0  0  0  0  0  0  0  0  0  0  0
    0.5983    1.5540    4.0850 C   0  0  0  0  0  0  0  0  0  0  0  0
   -0.2228    2.8316    3.9803 C   0  0  0  0  0  0  0  0  0  0  0  0
    0.2647    0.5142    4.9871 C   0  0  0  0  0  0  0  0  0  0  0  0
   -0.7072    0.7191    5.9245 O   0  0  0  0  0  0  0  0  0  0  0  0
    1.0583   -0.6719    5.0366 C   0  0  0  0  0  0  0  0  0  0  0  0
    1.8020   -0.9279    3.8820 C   0  0  0  0  0  0  0  0  0  0  0  0
    2.6425   -2.2291    3.6760 C   0  0  1  0  0  0  0  0  0  0  0  0
    2.7965   -2.5426    2.0668 C   0  0  1  0  0  0  0  0  0  0  0  0
    2.2350   -1.5014    1.2976 O   0  0  0  0  0  0  0  0  0  0  0  0
    4.1769   -2.9799    1.3374 C   0  0  2  0  0  0  0  0  0  0  0  0
    4.9964   -1.7152    0.8437 C   0  0  0  0  0  0  0  0  0  0  0  0
    6.0107   -1.9106   -0.1359 O   0  0  0  0  0  0  0  0  0  0  0  0
    2.1189   -3.5444    4.4968 C   0  0  2  0  0  0  0  0  0  0  0  0
    2.2770   -4.7048    3.7001 O   0  0  0  0  0  0  0  0  0  0  0  0
    0.5977   -3.6303    4.7769 C   0  0  0  0  0  0  0  0  0  0  0  0
    0.4764   -4.6752    5.8521 C   0  0  0  0  0  0  0  0  0  0  0  0
   -0.4918   -5.4335    5.9147 O   0  0  0  0  0  0  0  0  0  0  0  0
    1.7086   -4.6135    6.7616 C   0  0  1  0  0  0  0  0  0  0  0  0
    1.9681   -5.9157    7.4756 N   0  0  0  0  0  0  0  0  0  0  0  0
    2.1629   -7.1148    6.6072 C   0  0  0  0  0  0  0  0  0  0  0  0
    0.9813   -6.1853    8.5666 C   0  0  0  0  0  0  0  0  0  0  0  0
    2.8364   -4.0298    5.8261 C   0  0  2  0  0  0  0  0  0  0  0  0
    3.7869   -3.0026    6.4812 C   0  0  0  0  0  0  0  0  0  0  0  0
    3.7147   -1.5908    5.8775 C   0  0  2  0  0  0  0  0  0  0  0  0
    2.1139   -0.8039    6.5346 S   0  0  0  0  0  0  0  0  0  0  0  0
    1.3852   -1.7209    7.5065 O   0  0  0  0  0  0  0  0  0  0  0  0
    3.3727   -1.4991   -3.6126 H   0  0  0  0  0  0  0  0  0  0  0  0
    1.8336   -1.8665   -2.8157 H   0  0  0  0  0  0  0  0  0  0  0  0
    2.7040   -3.1358   -3.6838 H   0  0  0  0  0  0  0  0  0  0  0  0
    4.8637   -3.9360   -0.4181 H   0  0  0  0  0  0  0  0  0  0  0  0
    1.6951   -5.3807    1.3220 H   0  0  0  0  0  0  0  0  0  0  0  0
    2.3627   -6.9819    1.1758 H   0  0  0  0  0  0  0  0  0  0  0  0
    1.9357   -6.1257   -0.2449 H   0  0  0  0  0  0  0  0  0  0  0  0
    4.0569   -6.1529   -1.1323 H   0  0  0  0  0  0  0  0  0  0  0  0
    4.0895   -9.6151    2.3844 H   0  0  0  0  0  0  0  0  0  0  0  0
    4.1254   -8.7696    3.9310 H   0  0  0  0  0  0  0  0  0  0  0  0
    5.6300   -9.0445    3.0322 H   0  0  0  0  0  0  0  0  0  0  0  0
    6.7302   -4.2186    0.8634 H   0  0  0  0  0  0  0  0  0  0  0  0
    7.1030   -4.6825    2.4869 H   0  0  0  0  0  0  0  0  0  0  0  0
    6.9786   -2.9874    2.0814 H   0  0  0  0  0  0  0  0  0  0  0  0
    4.3604    0.5895    4.4320 H   0  0  0  0  0  0  0  0  0  0  0  0
    4.4198   -0.0062    2.7897 H   0  0  0  0  0  0  0  0  0  0  0  0
    1.8204    3.2050    2.5547 H   0  0  0  0  0  0  0  0  0  0  0  0
   -1.2746    2.6451    4.1830 H   0  0  0  0  0  0  0  0  0  0  0  0
   -0.1641    3.2379    2.9695 H   0  0  0  0  0  0  0  0  0  0  0  0
    0.1433    3.5889    4.6717 H   0  0  0  0  0  0  0  0  0  0  0  0
   -1.0736    1.5927    5.8804 H   0  0  0  0  0  0  0  0  0  0  0  0
    2.0596   -3.3083    1.8459 H   0  0  0  0  0  0  0  0  0  0  0  0
    1.9724   -1.7783    0.4223 H   0  0  0  0  0  0  0  0  0  0  0  0
    4.3522   -0.9618    0.3860 H   0  0  0  0  0  0  0  0  0  0  0  0
    5.5222   -1.2287    1.6568 H   0  0  0  0  0  0  0  0  0  0  0  0
    5.6544   -2.4046   -0.8627 H   0  0  0  0  0  0  0  0  0  0  0  0
    3.1968   -4.7725    3.4802 H   0  0  0  0  0  0  0  0  0  0  0  0
    0.1537   -2.7607    5.2454 H   0  0  0  0  0  0  0  0  0  0  0  0
    0.0141   -3.8929    3.8999 H   0  0  0  0  0  0  0  0  0  0  0  0
    1.4995   -3.8985    7.5514 H   0  0  0  0  0  0  0  0  0  0  0  0
    1.2529   -7.3838    6.0780 H   0  0  0  0  0  0  0  0  0  0  0  0
    2.4365   -7.9747    7.2219 H   0  0  0  0  0  0  0  0  0  0  0  0
    2.9628   -6.9655    5.8822 H   0  0  0  0  0  0  0  0  0  0  0  0
   -0.0411   -6.2598    8.1980 H   0  0  0  0  0  0  0  0  0  0  0  0
    1.0057   -5.3985    9.3282 H   0  0  0  0  0  0  0  0  0  0  0  0
    1.2015   -7.1355    9.0596 H   0  0  0  0  0  0  0  0  0  0  0  0
    3.5137   -4.8550    5.5985 H   0  0  0  0  0  0  0  0  0  0  0  0
    3.6409   -2.9674    7.5646 H   0  0  0  0  0  0  0  0  0  0  0  0
    4.8168   -3.3489    6.3399 H   0  0  0  0  0  0  0  0  0  0  0  0
    4.5210   -1.0063    6.3225 H   0  0  0  0  0  0  0  0  0  0  0  0
    2.8467   -5.7844    7.9516 H   0  0  0  0  0  0  0  0  0  0  0  0
  1  2  1  0
  1 49  1  0
  1 50  1  0
  1 51  1  0
  2  3  1  0
  3  4  2  0
  3  5  1  0
  5 32  1  0
  5  6  1  0
  5 52  1  6
  6  7  1  0
  6  8  1  6
  6  9  1  0
  7 53  1  0
  7 54  1  0
  7 55  1  0
  8 56  1  0
  9 10  1  0
  9 14  1  0
 10 11  2  0
 10 12  1  0
 12 13  1  0
 13 57  1  0
 13 58  1  0
 13 59  1  0
 14 32  1  0
 14 15  1  6
 14 16  1  0
 15 60  1  0
 15 61  1  0
 15 62  1  0
 16 17  1  0
 18 17  1  1
 18 29  1  0
 18 46  1  0
 18 19  1  0
 19 20  1  0
 19 63  1  0
 19 64  1  0
 20 28  2  0
 20 21  1  0
 21 22  1  0
 21 23  2  0
 22 65  1  0
 23 24  1  0
 23 25  1  0
 24 66  1  0
 24 67  1  0
 24 68  1  0
 25 26  1  0
 25 27  2  0
 26 69  1  0
 47 27  1  6
 27 28  1  0
 29 28  1  6
 29 30  1  0
 29 35  1  0
 30 31  1  0
 30 32  1  0
 30 70  1  1
 31 71  1  0
 32 33  1  6
 33 34  1  0
 33 72  1  0
 33 73  1  0
 34 74  1  0
 35 44  1  0
 35 36  1  6
 35 37  1  0
 36 75  1  0
 37 38  1  0
 37 76  1  0
 37 77  1  0
 38 39  2  0
 38 40  1  0
 40 41  1  0
 40 44  1  0
 40 78  1  1
 41 42  1  0
 41 43  1  0
 41 89  1  0
 42 79  1  0
 42 80  1  0
 42 81  1  0
 43 82  1  0
 43 83  1  0
 43 84  1  0
 44 45  1  0
 44 85  1  6
 45 46  1  0
 45 86  1  0
 45 87  1  0
 46 47  1  0
 46 88  1  1
 47 48  2  0
M  CHG  1  41   1
M  END
>  <i_m_ct_stereo_status>  (36) 
1

>  <s_m_source_file>  (36) 
/var/tmp/pbs.5075288.sched01/tmpye5xf5zc/0p3ozm_yu.sdf

>  <i_m_source_file_index>  (36) 
54

>  <i_lp_mmshare_version>  (36) 
48012

>  <i_f3d_flags>  (36) 
0

>  <s_epik_input>  (36) 
W0NIM11PQyg9TylbQ0BASF0xW0NAQF0oW0NIM10pKFtPSF0pTihDKD1PKU9bQ0gzXSlbQ0BdKFtDSDNdKShPTzIpW0NAXTEoW0NIMl1bT0hdKVtDQEhdKFtPSF0pW0NAQF0zKEMyNDUpYzZjKFtDSDJdNCljKFtPSF0pYyhbQ0gzXSljKFtPSF0pYzZbUytdKFtPLV0pW0NIXTVbQ0gyXVtDQEBIXTdbQ0BAXTMoW09IXSlbQ0gyXUMoPU8pW0NASF03TihbQ0gzXSlbQ0gzXQ==

>  <s_epik_cmdline>  (36) 
J2VwaWtfcHl0aG9uJywgJy1waHQnLCAnMi4wJywgJy1waCcsICc3LjAnLCAnLXRuJywgJzgnLCAnLW1hJywgJzIwMCcsICctaW1hZScsICc8aW5maWxlLm1hZT4nLCAnLW9tYWUnLCAnPG91dGZpbGUubWFlPic=

>  <r_lp_tautomer_probability>  (36) 
0.99995

>  <r_epik_Ionization_Penalty>  (36) 
0.0511036

>  <r_epik_Ionization_Penalty_Charging>  (36) 
0.05092

>  <r_epik_Ionization_Penalty_Neutral>  (36) 
0.000183589

>  <r_epik_State_Penalty>  (36) 
0.0435891

>  <r_epik_Charging_Adjusted_Penalty>  (36) 
0.0945091

>  <i_epik_Tot_Q>  (36) 
1

>  <i_epik_Tot_abs_Q>  (36) 
3

>  <s_epik_Chemistry_Notes>  (36) 
This compound has an ester and may undergo hydrolysis at high or low pH.

>  <s_lp_Force_Field>  (36) 
OPLS3e

>  <r_lp_Energy>  (36) 
159.115

>  <b_lp_Chiralities_Consistent>  (36) 
1

>  <s_lp_Variant>  (36) 
20:0-2

>  <s_i_glide_gridfile>  (36) 
pfpi4k_grid

>  <i_i_glide_lignum>  (36) 
54

>  <i_i_glide_rotatable_bonds>  (36) 
12

>  <r_i_docking_score>  (36) 
-3.41564

>  <r_i_glide_ligand_efficiency>  (36) 
-0.0711592

>  <r_i_glide_ligand_efficiency_sa>  (36) 
-0.25861

>  <r_i_glide_ligand_efficiency_ln>  (36) 
-0.701191

>  <r_i_glide_gscore>  (36) 
-3.41564

>  <r_i_glide_lipo>  (36) 
-0.125233

>  <r_i_glide_hbond>  (36) 
-0.0108657

>  <r_i_glide_metal>  (36) 
-0

>  <r_i_glide_rewards>  (36) 
-0.651577

>  <r_i_glide_evdw>  (36) 
-29.2482

>  <r_i_glide_ecoul>  (36) 
-8.62802

>  <r_i_glide_erotb>  (36) 
0.132052

>  <r_i_glide_esite>  (36) 
-0.00340499

>  <r_i_glide_emodel>  (36) 
-47.716

>  <r_i_glide_energy>  (36) 
-37.8762

>  <r_i_glide_einternal>  (36) 
5.97746

>  <r_i_glide_intrahb_reward>  (36) 
-0.5

>  <i_i_glide_confnum>  (36) 
1

>  <i_i_glide_posenum>  (36) 
39

>  <r_i_glide_eff_state_penalty>  (36) 
0

>  <ligand_id>  (36) 
20

>  <original_smiles>  (36) 
COC(=O)C1C(C)(O)N(C(=O)OC)C2(C)OOC34Cc5c(O)c(C)c(O)c6c5C3(C(O)C12CO)C1(O)CC(=O)C(N(C)C)C1CC4[S+]6[O-]

>  <smiles>  (36) 
[H]Oc1c2c3c(c(O[H])c1C([H])([H])[H])C([H])([H])C14OOC5(C([H])([H])[H])N(C(=O)OC([H])([H])[H])C(O[H])(C([H])([H])[H])C([H])(C(=O)OC([H])([H])[H])C5(C([H])([H])O[H])C([H])(O[H])C31C1(O[H])C([H])([H])C(=O)C([H])([N+]([H])(C([H])([H])[H])C([H])([H])[H])C1([H])C([H])([H])C4([H])S2=O

$$$$
20:1:2
     RDKit          3D

 89 95  0  0  1  0  0  0  0  0999 V2000
   -1.9559   -8.8832    2.3260 C   0  0  0  0  0  0  0  0  0  0  0  0
   -0.6803   -8.9117    2.9184 O   0  0  0  0  0  0  0  0  0  0  0  0
    0.1821   -7.9404    2.5756 C   0  0  0  0  0  0  0  0  0  0  0  0
   -0.0851   -7.0976    1.7242 O   0  0  0  0  0  0  0  0  0  0  0  0
    1.5583   -8.0179    3.3387 C   0  0  2  0  0  0  0  0  0  0  0  0
    1.5775   -8.6682    4.7707 C   0  0  1  0  0  0  0  0  0  0  0  0
    0.3354   -8.3659    5.6812 C   0  0  0  0  0  0  0  0  0  0  0  0
    1.6384  -10.0783    4.6195 O   0  0  0  0  0  0  0  0  0  0  0  0
    2.8443   -8.2057    5.3772 N   0  0  0  0  0  0  0  0  0  0  0  0
    3.4303   -8.6759    6.5730 C   0  0  0  0  0  0  0  0  0  0  0  0
    4.5451   -8.3731    7.0259 O   0  0  0  0  0  0  0  0  0  0  0  0
    2.5960   -9.5066    7.2294 O   0  0  0  0  0  0  0  0  0  0  0  0
    2.9376  -10.0564    8.4896 C   0  0  0  0  0  0  0  0  0  0  0  0
    3.5900   -7.3529    4.4229 C   0  0  2  0  0  0  0  0  0  0  0  0
    4.7342   -8.2256    3.8095 C   0  0  0  0  0  0  0  0  0  0  0  0
    4.2067   -6.2971    5.1482 O   0  0  0  0  0  0  0  0  0  0  0  0
    4.7802   -5.2757    4.2245 O   0  0  0  0  0  0  0  0  0  0  0  0
    4.0784   -4.0463    4.3622 C   0  0  1  0  0  0  0  0  0  0  0  0
    4.0154   -3.3692    2.9450 C   0  0  0  0  0  0  0  0  0  0  0  0
    2.6710   -2.6850    2.9154 C   0  0  0  0  0  0  0  0  0  0  0  0
    2.3079   -1.5397    2.1802 C   0  0  0  0  0  0  0  0  0  0  0  0
    2.7240   -1.4082    0.8900 O   0  0  0  0  0  0  0  0  0  0  0  0
    1.6155   -0.5240    2.8765 C   0  0  0  0  0  0  0  0  0  0  0  0
    1.0409    0.6745    2.1297 C   0  0  0  0  0  0  0  0  0  0  0  0
    1.6364   -0.5758    4.2994 C   0  0  0  0  0  0  0  0  0  0  0  0
    1.3291    0.5434    5.0105 O   0  0  0  0  0  0  0  0  0  0  0  0
    2.1780   -1.7180    4.9630 C   0  0  0  0  0  0  0  0  0  0  0  0
    2.1909   -2.8843    4.2075 C   0  0  0  0  0  0  0  0  0  0  0  0
    2.6162   -4.2637    4.7820 C   0  0  1  0  0  0  0  0  0  0  0  0
    1.8580   -5.4520    3.9571 C   0  0  1  0  0  0  0  0  0  0  0  0
    1.0103   -4.9127    3.0016 O   0  0  0  0  0  0  0  0  0  0  0  0
    2.5569   -6.7873    3.3667 C   0  0  2  0  0  0  0  0  0  0  0  0
    3.2733   -6.6419    1.9420 C   0  0  0  0  0  0  0  0  0  0  0  0
    2.4863   -6.0709    0.8972 O   0  0  0  0  0  0  0  0  0  0  0  0
    2.4056   -4.4630    6.3931 C   0  0  2  0  0  0  0  0  0  0  0  0
    1.9705   -5.7762    6.6897 O   0  0  0  0  0  0  0  0  0  0  0  0
    1.2392   -3.6763    7.0310 C   0  0  0  0  0  0  0  0  0  0  0  0
    1.5383   -3.7052    8.4973 C   0  0  0  0  0  0  0  0  0  0  0  0
    0.6211   -3.7324    9.3389 O   0  0  0  0  0  0  0  0  0  0  0  0
    3.0605   -3.7127    8.7067 C   0  0  1  0  0  0  0  0  0  0  0  0
    3.4684   -4.3242   10.0266 N   0  0  0  0  0  0  0  0  0  0  0  0
    3.0409   -5.7424   10.2918 C   0  0  0  0  0  0  0  0  0  0  0  0
    3.1814   -3.4200   11.2037 C   0  0  0  0  0  0  0  0  0  0  0  0
    3.6268   -4.3658    7.3996 C   0  0  2  0  0  0  0  0  0  0  0  0
    4.9190   -3.7454    6.8167 C   0  0  0  0  0  0  0  0  0  0  0  0
    4.7450   -3.1014    5.4320 C   0  0  2  0  0  0  0  0  0  0  0  0
    3.8380   -1.4626    5.7179 S   0  0  0  0  0  0  0  0  0  0  0  0
    3.6032   -1.2162    7.2121 O   0  0  0  0  0  0  0  0  0  0  0  0
   -2.6125   -9.6119    2.7942 H   0  0  0  0  0  0  0  0  0  0  0  0
   -1.8233   -9.1099    1.2732 H   0  0  0  0  0  0  0  0  0  0  0  0
   -2.4082   -7.8914    2.4005 H   0  0  0  0  0  0  0  0  0  0  0  0
    2.0926   -8.7394    2.7140 H   0  0  0  0  0  0  0  0  0  0  0  0
    0.1333   -7.3018    5.7863 H   0  0  0  0  0  0  0  0  0  0  0  0
    0.4057   -8.7831    6.6808 H   0  0  0  0  0  0  0  0  0  0  0  0
   -0.5752   -8.8348    5.3196 H   0  0  0  0  0  0  0  0  0  0  0  0
    1.1021  -10.4834    5.2870 H   0  0  0  0  0  0  0  0  0  0  0  0
    2.0965  -10.6248    8.8854 H   0  0  0  0  0  0  0  0  0  0  0  0
    3.1816   -9.2900    9.2264 H   0  0  0  0  0  0  0  0  0  0  0  0
    3.7799  -10.7349    8.3808 H   0  0  0  0  0  0  0  0  0  0  0  0
    4.3316   -9.0736    3.2556 H   0  0  0  0  0  0  0  0  0  0  0  0
    5.4110   -8.6523    4.5404 H   0  0  0  0  0  0  0  0  0  0  0  0
    5.3727   -7.6789    3.1130 H   0  0  0  0  0  0  0  0  0  0  0  0
    4.8266   -2.6292    2.8178 H   0  0  0  0  0  0  0  0  0  0  0  0
    3.9725   -4.0498    2.1096 H   0  0  0  0  0  0  0  0  0  0  0  0
    2.0050   -1.0720    0.3024 H   0  0  0  0  0  0  0  0  0  0  0  0
    0.2297    1.1501    2.6747 H   0  0  0  0  0  0  0  0  0  0  0  0
    0.6201    0.3546    1.1777 H   0  0  0  0  0  0  0  0  0  0  0  0
    1.8083    1.4146    1.9232 H   0  0  0  0  0  0  0  0  0  0  0  0
    1.1400    1.2939    4.4544 H   0  0  0  0  0  0  0  0  0  0  0  0
    1.0426   -5.7818    4.5836 H   0  0  0  0  0  0  0  0  0  0  0  0
    1.5607   -4.4836    2.3518 H   0  0  0  0  0  0  0  0  0  0  0  0
    4.2014   -6.0696    2.0178 H   0  0  0  0  0  0  0  0  0  0  0  0
    3.5524   -7.6377    1.5728 H   0  0  0  0  0  0  0  0  0  0  0  0
    2.9289   -6.1697    0.0735 H   0  0  0  0  0  0  0  0  0  0  0  0
    2.6019   -6.3697    6.3063 H   0  0  0  0  0  0  0  0  0  0  0  0
    1.2191   -2.6119    6.8442 H   0  0  0  0  0  0  0  0  0  0  0  0
    0.2447   -4.0967    6.8247 H   0  0  0  0  0  0  0  0  0  0  0  0
    3.3929   -2.6859    8.7775 H   0  0  0  0  0  0  0  0  0  0  0  0
    1.9613   -5.8216   10.4171 H   0  0  0  0  0  0  0  0  0  0  0  0
    3.4847   -6.0852   11.2271 H   0  0  0  0  0  0  0  0  0  0  0  0
    3.3684   -6.4153    9.5011 H   0  0  0  0  0  0  0  0  0  0  0  0
    2.1173   -3.2093   11.3169 H   0  0  0  0  0  0  0  0  0  0  0  0
    3.7106   -2.4708   11.0884 H   0  0  0  0  0  0  0  0  0  0  0  0
    3.5056   -3.8900   12.1324 H   0  0  0  0  0  0  0  0  0  0  0  0
    3.9669   -5.3760    7.6662 H   0  0  0  0  0  0  0  0  0  0  0  0
    5.3391   -3.0184    7.5202 H   0  0  0  0  0  0  0  0  0  0  0  0
    5.6683   -4.5488    6.7089 H   0  0  0  0  0  0  0  0  0  0  0  0
    5.7413   -2.8261    5.0831 H   0  0  0  0  0  0  0  0  0  0  0  0
    4.4855   -4.3701    9.9899 H   0  0  0  0  0  0  0  0  0  0  0  0
  1  2  1  0
  1 49  1  0
  1 50  1  0
  1 51  1  0
  2  3  1  0
  3  4  2  0
  3  5  1  0
  5 32  1  0
  5  6  1  0
  5 52  1  6
  6  7  1  0
  6  8  1  6
  6  9  1  0
  7 53  1  0
  7 54  1  0
  7 55  1  0
  8 56  1  0
  9 10  1  0
  9 14  1  0
 10 11  2  0
 10 12  1  0
 12 13  1  0
 13 57  1  0
 13 58  1  0
 13 59  1  0
 14 32  1  0
 14 15  1  6
 14 16  1  0
 15 60  1  0
 15 61  1  0
 15 62  1  0
 16 17  1  0
 18 17  1  6
 18 29  1  0
 18 46  1  0
 18 19  1  0
 19 20  1  0
 19 63  1  0
 19 64  1  0
 20 28  2  0
 20 21  1  0
 21 22  1  0
 21 23  2  0
 22 65  1  0
 23 24  1  0
 23 25  1  0
 24 66  1  0
 24 67  1  0
 24 68  1  0
 25 26  1  0
 25 27  2  0
 26 69  1  0
 47 27  1  6
 27 28  1  0
 29 28  1  6
 29 30  1  0
 29 35  1  0
 30 31  1  0
 30 32  1  0
 30 70  1  1
 31 71  1  0
 32 33  1  6
 33 34  1  0
 33 72  1  0
 33 73  1  0
 34 74  1  0
 35 44  1  0
 35 36  1  6
 35 37  1  0
 36 75  1  0
 37 38  1  0
 37 76  1  0
 37 77  1  0
 38 39  2  0
 38 40  1  0
 40 41  1  0
 40 44  1  0
 40 78  1  1
 41 42  1  0
 41 43  1  0
 41 89  1  0
 42 79  1  0
 42 80  1  0
 42 81  1  0
 43 82  1  0
 43 83  1  0
 43 84  1  0
 44 45  1  0
 44 85  1  1
 45 46  1  0
 45 86  1  0
 45 87  1  0
 46 47  1  0
 46 88  1  6
 47 48  2  0
M  CHG  1  41   1
M  END
>  <i_m_ct_stereo_status>  (37) 
1

>  <s_m_source_file>  (37) 
/var/tmp/pbs.5075288.sched01/tmpye5xf5zc/0p3ozm_yu.sdf

>  <i_m_source_file_index>  (37) 
54

>  <i_lp_mmshare_version>  (37) 
48012

>  <i_f3d_flags>  (37) 
0

>  <s_epik_input>  (37) 
W0NIM11PQyg9TylbQ0BASF0xW0NAQF0oW0NIM10pKFtPSF0pTihDKD1PKU9bQ0gzXSlbQ0BdKFtDSDNdKShPTzIpW0NAXTEoW0NIMl1bT0hdKVtDQEhdKFtPSF0pW0NAQF0zKEMyNDUpYzZjKFtDSDJdNCljKFtPSF0pYyhbQ0gzXSljKFtPSF0pYzZbUytdKFtPLV0pW0NIXTVbQ0gyXVtDQEBIXTdbQ0BAXTMoW09IXSlbQ0gyXUMoPU8pW0NASF03TihbQ0gzXSlbQ0gzXQ==

>  <s_epik_cmdline>  (37) 
J2VwaWtfcHl0aG9uJywgJy1waHQnLCAnMi4wJywgJy1waCcsICc3LjAnLCAnLXRuJywgJzgnLCAnLW1hJywgJzIwMCcsICctaW1hZScsICc8aW5maWxlLm1hZT4nLCAnLW9tYWUnLCAnPG91dGZpbGUubWFlPic=

>  <r_lp_tautomer_probability>  (37) 
0.99995

>  <r_epik_Ionization_Penalty>  (37) 
0.0511036

>  <r_epik_Ionization_Penalty_Charging>  (37) 
0.05092

>  <r_epik_Ionization_Penalty_Neutral>  (37) 
0.000183589

>  <r_epik_State_Penalty>  (37) 
0.0435891

>  <r_epik_Charging_Adjusted_Penalty>  (37) 
0.0945091

>  <i_epik_Tot_Q>  (37) 
1

>  <i_epik_Tot_abs_Q>  (37) 
3

>  <s_epik_Chemistry_Notes>  (37) 
This compound has an ester and may undergo hydrolysis at high or low pH.

>  <s_lp_Force_Field>  (37) 
OPLS3e

>  <r_lp_Energy>  (37) 
159.115

>  <b_lp_Chiralities_Consistent>  (37) 
1

>  <s_lp_Variant>  (37) 
20:0-2

>  <s_i_glide_gridfile>  (37) 
pfpi4k_grid

>  <i_i_glide_lignum>  (37) 
54

>  <i_i_glide_rotatable_bonds>  (37) 
12

>  <r_i_docking_score>  (37) 
-3.0979

>  <r_i_glide_ligand_efficiency>  (37) 
-0.0645395

>  <r_i_glide_ligand_efficiency_sa>  (37) 
-0.234552

>  <r_i_glide_ligand_efficiency_ln>  (37) 
-0.635962

>  <r_i_glide_gscore>  (37) 
-3.0979

>  <r_i_glide_lipo>  (37) 
-0.302501

>  <r_i_glide_hbond>  (37) 
-0.16

>  <r_i_glide_metal>  (37) 
-0

>  <r_i_glide_rewards>  (37) 
0

>  <r_i_glide_evdw>  (37) 
-26.2444

>  <r_i_glide_ecoul>  (37) 
-9.20723

>  <r_i_glide_erotb>  (37) 
0.132052

>  <r_i_glide_esite>  (37) 
-0.0741456

>  <r_i_glide_emodel>  (37) 
-38.4671

>  <r_i_glide_energy>  (37) 
-35.4516

>  <r_i_glide_einternal>  (37) 
7.14114

>  <r_i_glide_intrahb_reward>  (37) 
-0

>  <i_i_glide_confnum>  (37) 
2

>  <i_i_glide_posenum>  (37) 
23

>  <r_i_glide_eff_state_penalty>  (37) 
0

>  <ligand_id>  (37) 
20

>  <original_smiles>  (37) 
COC(=O)C1C(C)(O)N(C(=O)OC)C2(C)OOC34Cc5c(O)c(C)c(O)c6c5C3(C(O)C12CO)C1(O)CC(=O)C(N(C)C)C1CC4[S+]6[O-]

>  <smiles>  (37) 
[H]Oc1c2c3c(c(O[H])c1C([H])([H])[H])C([H])([H])C14OOC5(C([H])([H])[H])N(C(=O)OC([H])([H])[H])C(O[H])(C([H])([H])[H])C([H])(C(=O)OC([H])([H])[H])C5(C([H])([H])O[H])C([H])(O[H])C31C1(O[H])C([H])([H])C(=O)C([H])([N+]([H])(C([H])([H])[H])C([H])([H])[H])C1([H])C([H])([H])C4([H])S2=O

$$$$
20:2:0
     RDKit          3D

 88 94  0  0  1  0  0  0  0  0999 V2000
    7.4438   -8.1888    1.3496 C   0  0  0  0  0  0  0  0  0  0  0  0
    6.3739   -7.2916    1.2112 O   0  0  0  0  0  0  0  0  0  0  0  0
    6.5479   -5.9768    1.0727 C   0  0  0  0  0  0  0  0  0  0  0  0
    7.6342   -5.4368    0.9162 O   0  0  0  0  0  0  0  0  0  0  0  0
    5.1675   -5.2363    1.0144 C   0  0  2  0  0  0  0  0  0  0  0  0
    5.1418   -3.6968    1.3062 C   0  0  1  0  0  0  0  0  0  0  0  0
    6.1532   -3.2284    2.3658 C   0  0  0  0  0  0  0  0  0  0  0  0
    5.5323   -3.0211    0.1129 O   0  0  0  0  0  0  0  0  0  0  0  0
    3.7308   -3.4076    1.6875 N   0  0  0  0  0  0  0  0  0  0  0  0
    3.1586   -2.1401    1.9427 C   0  0  0  0  0  0  0  0  0  0  0  0
    1.9641   -1.8985    2.1201 O   0  0  0  0  0  0  0  0  0  0  0  0
    4.1065   -1.1912    2.0140 O   0  0  0  0  0  0  0  0  0  0  0  0
    3.8135    0.0968    2.5338 C   0  0  0  0  0  0  0  0  0  0  0  0
    2.9347   -4.6210    1.4375 C   0  0  2  0  0  0  0  0  0  0  0  0
    2.4103   -4.5131   -0.0350 C   0  0  0  0  0  0  0  0  0  0  0  0
    1.7015   -4.7042    2.1349 O   0  0  0  0  0  0  0  0  0  0  0  0
    1.9149   -4.8077    3.6052 O   0  0  0  0  0  0  0  0  0  0  0  0
    1.5613   -6.1542    4.0216 C   0  0  2  0  0  0  0  0  0  0  0  0
    1.6014   -7.2634    5.4659 C   0  0  0  0  0  0  0  0  0  0  0  0
    2.6783   -8.3081    5.3857 C   0  0  0  0  0  0  0  0  0  0  0  0
    2.4530   -9.7070    5.5420 C   0  0  0  0  0  0  0  0  0  0  0  0
    2.9140  -10.2906    6.6915 O   0  0  0  0  0  0  0  0  0  0  0  0
    1.8175  -10.4626    4.5558 C   0  0  0  0  0  0  0  0  0  0  0  0
    1.6866  -11.9587    4.6956 C   0  0  0  0  0  0  0  0  0  0  0  0
    1.2298   -9.8108    3.4281 C   0  0  0  0  0  0  0  0  0  0  0  0
    0.4050  -10.4930    2.5852 O   0  0  0  0  0  0  0  0  0  0  0  0
    1.4015   -8.4195    3.3071 C   0  0  0  0  0  0  0  0  0  0  0  0
    2.5283   -7.8458    4.1267 C   0  0  0  0  0  0  0  0  0  0  0  0
    2.9206   -6.2778    4.3216 C   0  0  1  0  0  0  0  0  0  0  0  0
    4.0935   -6.0314    3.2890 C   0  0  1  0  0  0  0  0  0  0  0  0
    5.0588   -6.9945    3.6320 O   0  0  0  0  0  0  0  0  0  0  0  0
    3.8835   -5.8381    1.7273 C   0  0  2  0  0  0  0  0  0  0  0  0
    3.2949   -7.0822    1.0044 C   0  0  0  0  0  0  0  0  0  0  0  0
    3.8658   -8.3449    1.2913 O   0  0  0  0  0  0  0  0  0  0  0  0
    3.0320   -5.2374    5.6640 C   0  0  2  0  0  0  0  0  0  0  0  0
    3.7188   -4.0294    5.3208 O   0  0  0  0  0  0  0  0  0  0  0  0
    3.8968   -5.7395    6.8254 C   0  0  0  0  0  0  0  0  0  0  0  0
    3.3450   -4.9464    7.9804 C   0  0  0  0  0  0  0  0  0  0  0  0
    4.1016   -4.5590    8.8550 O   0  0  0  0  0  0  0  0  0  0  0  0
    1.8313   -4.6726    7.8506 C   0  0  1  0  0  0  0  0  0  0  0  0
    1.3326   -3.5206    8.6645 N   0  0  0  0  0  0  0  0  0  0  0  0
    1.3224   -3.8332   10.1019 C   0  0  0  0  0  0  0  0  0  0  0  0
   -0.0125   -3.0842    8.3142 C   0  0  0  0  0  0  0  0  0  0  0  0
    1.6197   -4.6034    6.2961 C   0  0  2  0  0  0  0  0  0  0  0  0
    0.1855   -5.2537    5.8370 C   0  0  0  0  0  0  0  0  0  0  0  0
    0.2171   -5.7711    4.3296 C   0  0  2  0  0  0  0  0  0  0  0  0
   -0.3266   -7.4170    3.4881 S   0  0  0  0  0  0  0  0  0  0  0  0
   -1.2127   -8.1575    4.4991 O   0  0  0  0  0  0  0  0  0  0  0  0
    6.9937   -9.1725    1.4771 H   0  0  0  0  0  0  0  0  0  0  0  0
    8.0170   -7.9704    2.2536 H   0  0  0  0  0  0  0  0  0  0  0  0
    8.1075   -8.2365    0.4790 H   0  0  0  0  0  0  0  0  0  0  0  0
    4.9676   -5.3242   -0.0494 H   0  0  0  0  0  0  0  0  0  0  0  0
    5.9875   -3.6724    3.3403 H   0  0  0  0  0  0  0  0  0  0  0  0
    6.2072   -2.1523    2.4989 H   0  0  0  0  0  0  0  0  0  0  0  0
    7.1535   -3.4687    2.0397 H   0  0  0  0  0  0  0  0  0  0  0  0
    4.7892   -2.6315   -0.3155 H   0  0  0  0  0  0  0  0  0  0  0  0
    4.7436    0.6495    2.6348 H   0  0  0  0  0  0  0  0  0  0  0  0
    3.3843    0.0606    3.5369 H   0  0  0  0  0  0  0  0  0  0  0  0
    3.1477    0.6473    1.8698 H   0  0  0  0  0  0  0  0  0  0  0  0
    3.1968   -4.4708   -0.7836 H   0  0  0  0  0  0  0  0  0  0  0  0
    1.8459   -3.5974   -0.1811 H   0  0  0  0  0  0  0  0  0  0  0  0
    1.7510   -5.3375   -0.2922 H   0  0  0  0  0  0  0  0  0  0  0  0
    1.7289   -6.9445    6.4911 H   0  0  0  0  0  0  0  0  0  0  0  0
    0.6944   -7.8261    5.7101 H   0  0  0  0  0  0  0  0  0  0  0  0
    2.4340  -11.0952    6.8937 H   0  0  0  0  0  0  0  0  0  0  0  0
    1.6400  -12.4225    3.7162 H   0  0  0  0  0  0  0  0  0  0  0  0
    0.7743  -12.2183    5.2277 H   0  0  0  0  0  0  0  0  0  0  0  0
    2.5377  -12.3865    5.2306 H   0  0  0  0  0  0  0  0  0  0  0  0
    0.1566  -10.0668    1.7732 H   0  0  0  0  0  0  0  0  0  0  0  0
    4.6029   -5.1326    3.5576 H   0  0  0  0  0  0  0  0  0  0  0  0
    4.7315   -7.8082    3.2785 H   0  0  0  0  0  0  0  0  0  0  0  0
    2.2213   -7.1784    1.1647 H   0  0  0  0  0  0  0  0  0  0  0  0
    3.4730   -6.9047   -0.0454 H   0  0  0  0  0  0  0  0  0  0  0  0
    4.8073   -8.2718    1.1712 H   0  0  0  0  0  0  0  0  0  0  0  0
    3.2381   -3.6521    4.6039 H   0  0  0  0  0  0  0  0  0  0  0  0
    3.7630   -6.7894    7.0802 H   0  0  0  0  0  0  0  0  0  0  0  0
    4.9574   -5.5467    6.6831 H   0  0  0  0  0  0  0  0  0  0  0  0
    1.3277   -5.5640    8.2172 H   0  0  0  0  0  0  0  0  0  0  0  0
    1.0153   -2.9707   10.6978 H   0  0  0  0  0  0  0  0  0  0  0  0
    2.2913   -4.1223   10.5040 H   0  0  0  0  0  0  0  0  0  0  0  0
    0.6299   -4.6460   10.3325 H   0  0  0  0  0  0  0  0  0  0  0  0
   -0.3076   -2.2694    8.9764 H   0  0  0  0  0  0  0  0  0  0  0  0
   -0.7455   -3.8890    8.4060 H   0  0  0  0  0  0  0  0  0  0  0  0
   -0.0487   -2.6781    7.3048 H   0  0  0  0  0  0  0  0  0  0  0  0
    1.5714   -3.5567    6.0017 H   0  0  0  0  0  0  0  0  0  0  0  0
   -0.2594   -5.9290    6.5766 H   0  0  0  0  0  0  0  0  0  0  0  0
   -0.5351   -4.4352    5.8173 H   0  0  0  0  0  0  0  0  0  0  0  0
   -0.1510   -4.9819    3.6849 H   0  0  0  0  0  0  0  0  0  0  0  0
  1  2  1  0
  1 49  1  0
  1 50  1  0
  1 51  1  0
  2  3  1  0
  3  4  2  0
  3  5  1  0
  5 32  1  0
  5  6  1  0
  5 52  1  6
  6  7  1  0
  6  8  1  6
  6  9  1  0
  7 53  1  0
  7 54  1  0
  7 55  1  0
  8 56  1  0
  9 10  1  0
  9 14  1  0
 10 11  2  0
 10 12  1  0
 12 13  1  0
 13 57  1  0
 13 58  1  0
 13 59  1  0
 14 32  1  0
 14 15  1  6
 14 16  1  0
 15 60  1  0
 15 61  1  0
 15 62  1  0
 16 17  1  0
 18 17  1  6
 18 29  1  0
 18 46  1  0
 18 19  1  0
 19 20  1  0
 19 63  1  0
 19 64  1  0
 20 28  2  0
 20 21  1  0
 21 22  1  0
 21 23  2  0
 22 65  1  0
 23 24  1  0
 23 25  1  0
 24 66  1  0
 24 67  1  0
 24 68  1  0
 25 26  1  0
 25 27  2  0
 26 69  1  0
 47 27  1  1
 27 28  1  0
 29 28  1  1
 29 30  1  0
 29 35  1  0
 30 31  1  0
 30 32  1  0
 30 70  1  1
 31 71  1  0
 32 33  1  6
 33 34  1  0
 33 72  1  0
 33 73  1  0
 34 74  1  0
 35 44  1  0
 35 36  1  6
 35 37  1  0
 36 75  1  0
 37 38  1  0
 37 76  1  0
 37 77  1  0
 38 39  2  0
 38 40  1  0
 40 41  1  0
 40 44  1  0
 40 78  1  1
 41 42  1  0
 41 43  1  0
 42 79  1  0
 42 80  1  0
 42 81  1  0
 43 82  1  0
 43 83  1  0
 43 84  1  0
 44 45  1  0
 44 85  1  6
 45 46  1  0
 45 86  1  0
 45 87  1  0
 46 47  1  0
 46 88  1  6
 47 48  2  0
M  END
>  <i_m_ct_stereo_status>  (38) 
1

>  <s_m_source_file>  (38) 
/var/tmp/pbs.5075288.sched01/tmpye5xf5zc/0p3ozm_yu.sdf

>  <i_m_source_file_index>  (38) 
55

>  <i_lp_mmshare_version>  (38) 
48012

>  <i_f3d_flags>  (38) 
0

>  <s_epik_input>  (38) 
W0NIM11PQyg9TylbQ0BASF0xW0NAQF0oW0NIM10pKFtPSF0pTihDKD1PKU9bQ0gzXSlbQ0BdKFtDSDNdKShPTzIpW0NAXTEoW0NIMl1bT0hdKVtDQEhdKFtPSF0pW0NAQF0zKEMyNDUpYzZjKFtDSDJdNCljKFtPSF0pYyhbQ0gzXSljKFtPSF0pYzZbUytdKFtPLV0pW0NIXTVbQ0gyXVtDQEBIXTdbQ0BAXTMoW09IXSlbQ0gyXUMoPU8pW0NASF03TihbQ0gzXSlbQ0gzXQ==

>  <s_epik_cmdline>  (38) 
J2VwaWtfcHl0aG9uJywgJy1waHQnLCAnMi4wJywgJy1waCcsICc3LjAnLCAnLXRuJywgJzgnLCAnLW1hJywgJzIwMCcsICctaW1hZScsICc8aW5maWxlLm1hZT4nLCAnLW9tYWUnLCAnPG91dGZpbGUubWFlPic=

>  <r_lp_tautomer_probability>  (38) 
1

>  <r_epik_Ionization_Penalty>  (38) 
1.47942

>  <r_epik_Ionization_Penalty_Charging>  (38) 
0

>  <r_epik_Ionization_Penalty_Neutral>  (38) 
1.47942

>  <r_epik_State_Penalty>  (38) 
1.56776

>  <r_epik_Charging_Adjusted_Penalty>  (38) 
1.56776

>  <i_epik_Tot_Q>  (38) 
0

>  <i_epik_Tot_abs_Q>  (38) 
2

>  <s_epik_Chemistry_Notes>  (38) 
This compound has an ester and may undergo hydrolysis at high or low pH.

>  <s_lp_Force_Field>  (38) 
OPLS3e

>  <r_lp_Energy>  (38) 
494.505

>  <b_lp_Chiralities_Consistent>  (38) 
1

>  <s_lp_Variant>  (38) 
20:0-3

>  <s_i_glide_gridfile>  (38) 
pfpi4k_grid

>  <i_i_glide_lignum>  (38) 
55

>  <i_i_glide_rotatable_bonds>  (38) 
12

>  <r_i_docking_score>  (38) 
-3.01382

>  <r_i_glide_ligand_efficiency>  (38) 
-0.0627879

>  <r_i_glide_ligand_efficiency_sa>  (38) 
-0.228186

>  <r_i_glide_ligand_efficiency_ln>  (38) 
-0.618702

>  <r_i_glide_gscore>  (38) 
-3.01382

>  <r_i_glide_lipo>  (38) 
-0.228871

>  <r_i_glide_hbond>  (38) 
-0.162937

>  <r_i_glide_metal>  (38) 
-0

>  <r_i_glide_rewards>  (38) 
-0.664773

>  <r_i_glide_evdw>  (38) 
-28.1048

>  <r_i_glide_ecoul>  (38) 
-4.12355

>  <r_i_glide_erotb>  (38) 
0.132411

>  <r_i_glide_esite>  (38) 
-0.0658798

>  <r_i_glide_emodel>  (38) 
-39.739

>  <r_i_glide_energy>  (38) 
-32.2283

>  <r_i_glide_einternal>  (38) 
4.62357

>  <r_i_glide_intrahb_reward>  (38) 
-0.5

>  <i_i_glide_confnum>  (38) 
2

>  <i_i_glide_posenum>  (38) 
17

>  <r_i_glide_eff_state_penalty>  (38) 
0

>  <ligand_id>  (38) 
20

>  <original_smiles>  (38) 
COC(=O)C1C(C)(O)N(C(=O)OC)C2(C)OOC34Cc5c(O)c(C)c(O)c6c5C3(C(O)C12CO)C1(O)CC(=O)C(N(C)C)C1CC4[S+]6[O-]

>  <smiles>  (38) 
[H]Oc1c2c3c(c(O[H])c1C([H])([H])[H])C([H])([H])C14OOC5(C([H])([H])[H])N(C(=O)OC([H])([H])[H])C(O[H])(C([H])([H])[H])C([H])(C(=O)OC([H])([H])[H])C5(C([H])([H])O[H])C([H])(O[H])C31C1(O[H])C([H])([H])C(=O)C([H])(N(C([H])([H])[H])C([H])([H])[H])C1([H])C([H])([H])C4([H])S2=O

$$$$
20:2:1
     RDKit          3D

 88 94  0  0  1  0  0  0  0  0999 V2000
    7.5893   -7.8594    1.2802 C   0  0  0  0  0  0  0  0  0  0  0  0
    6.4578   -7.0447    1.1204 O   0  0  0  0  0  0  0  0  0  0  0  0
    6.5416   -5.7289    1.0690 C   0  0  0  0  0  0  0  0  0  0  0  0
    7.5751   -5.1059    0.9826 O   0  0  0  0  0  0  0  0  0  0  0  0
    5.0920   -5.1007    1.0272 C   0  0  2  0  0  0  0  0  0  0  0  0
    4.9548   -3.5656    1.3111 C   0  0  1  0  0  0  0  0  0  0  0  0
    5.9209   -2.9889    2.3627 C   0  0  0  0  0  0  0  0  0  0  0  0
    5.2905   -2.8777    0.1067 O   0  0  0  0  0  0  0  0  0  0  0  0
    3.5313   -3.3824    1.6997 N   0  0  0  0  0  0  0  0  0  0  0  0
    2.8744   -2.1456    1.9337 C   0  0  0  0  0  0  0  0  0  0  0  0
    1.6794   -1.9861    2.1950 O   0  0  0  0  0  0  0  0  0  0  0  0
    3.7349   -1.1222    1.8413 O   0  0  0  0  0  0  0  0  0  0  0  0
    3.3328    0.2078    2.1209 C   0  0  0  0  0  0  0  0  0  0  0  0
    2.8231   -4.6553    1.4388 C   0  0  2  0  0  0  0  0  0  0  0  0
    2.3061   -4.5774   -0.0355 C   0  0  0  0  0  0  0  0  0  0  0  0
    1.6067   -4.8310    2.1476 O   0  0  0  0  0  0  0  0  0  0  0  0
    1.7985   -4.9222    3.5889 O   0  0  0  0  0  0  0  0  0  0  0  0
    1.5522   -6.2771    4.0395 C   0  0  2  0  0  0  0  0  0  0  0  0
    1.6820   -7.3778    5.4910 C   0  0  0  0  0  0  0  0  0  0  0  0
    2.8210   -8.3482    5.3852 C   0  0  0  0  0  0  0  0  0  0  0  0
    2.7070   -9.7415    5.5400 C   0  0  0  0  0  0  0  0  0  0  0  0
    3.1888  -10.3200    6.7054 O   0  0  0  0  0  0  0  0  0  0  0  0
    2.1329  -10.5400    4.5576 C   0  0  0  0  0  0  0  0  0  0  0  0
    2.1075  -12.0399    4.7000 C   0  0  0  0  0  0  0  0  0  0  0  0
    1.4765   -9.9206    3.4292 C   0  0  0  0  0  0  0  0  0  0  0  0
    0.6554  -10.6474    2.6212 O   0  0  0  0  0  0  0  0  0  0  0  0
    1.5813   -8.5386    3.3036 C   0  0  0  0  0  0  0  0  0  0  0  0
    2.6473   -7.8738    4.1227 C   0  0  0  0  0  0  0  0  0  0  0  0
    2.9222   -6.2843    4.3278 C   0  0  1  0  0  0  0  0  0  0  0  0
    4.0859   -5.9656    3.2913 C   0  0  1  0  0  0  0  0  0  0  0  0
    5.1259   -6.8505    3.6201 O   0  0  0  0  0  0  0  0  0  0  0  0
    3.8677   -5.7988    1.7363 C   0  0  2  0  0  0  0  0  0  0  0  0
    3.3684   -7.1191    1.0343 C   0  0  0  0  0  0  0  0  0  0  0  0
    3.9717   -8.3315    1.4024 O   0  0  0  0  0  0  0  0  0  0  0  0
    2.9720   -5.2395    5.6714 C   0  0  2  0  0  0  0  0  0  0  0  0
    3.5687   -3.9879    5.3266 O   0  0  0  0  0  0  0  0  0  0  0  0
    3.8581   -5.6980    6.8249 C   0  0  0  0  0  0  0  0  0  0  0  0
    3.2515   -4.9404    7.9824 C   0  0  0  0  0  0  0  0  0  0  0  0
    3.9761   -4.5154    8.8656 O   0  0  0  0  0  0  0  0  0  0  0  0
    1.7136   -4.7745    7.8478 C   0  0  1  0  0  0  0  0  0  0  0  0
    1.1437   -3.6660    8.6613 N   0  0  0  0  0  0  0  0  0  0  0  0
    1.1426   -3.9815   10.0968 C   0  0  0  0  0  0  0  0  0  0  0  0
   -0.2316   -3.3245    8.3033 C   0  0  0  0  0  0  0  0  0  0  0  0
    1.5107   -4.7266    6.3009 C   0  0  2  0  0  0  0  0  0  0  0  0
    0.1177   -5.4571    5.8315 C   0  0  0  0  0  0  0  0  0  0  0  0
    0.1878   -5.9684    4.3270 C   0  0  2  0  0  0  0  0  0  0  0  0
   -0.2163   -7.6364    3.4617 S   0  0  0  0  0  0  0  0  0  0  0  0
   -1.0369   -8.4338    4.4919 O   0  0  0  0  0  0  0  0  0  0  0  0
    7.1971   -8.8705    1.3399 H   0  0  0  0  0  0  0  0  0  0  0  0
    8.1029   -7.6590    2.2214 H   0  0  0  0  0  0  0  0  0  0  0  0
    8.3107   -7.8406    0.4563 H   0  0  0  0  0  0  0  0  0  0  0  0
    4.9183   -5.2051   -0.0379 H   0  0  0  0  0  0  0  0  0  0  0  0
    5.8135   -3.4543    3.3339 H   0  0  0  0  0  0  0  0  0  0  0  0
    5.8490   -1.9198    2.5158 H   0  0  0  0  0  0  0  0  0  0  0  0
    6.9345   -3.0951    1.9805 H   0  0  0  0  0  0  0  0  0  0  0  0
    4.5156   -2.4871   -0.2896 H   0  0  0  0  0  0  0  0  0  0  0  0
    4.2073    0.8524    2.1020 H   0  0  0  0  0  0  0  0  0  0  0  0
    2.8703    0.3170    3.1057 H   0  0  0  0  0  0  0  0  0  0  0  0
    2.6306    0.5573    1.3632 H   0  0  0  0  0  0  0  0  0  0  0  0
    3.1083   -4.4832   -0.7572 H   0  0  0  0  0  0  0  0  0  0  0  0
    1.7142   -3.6879   -0.2186 H   0  0  0  0  0  0  0  0  0  0  0  0
    1.7049   -5.4415   -0.2919 H   0  0  0  0  0  0  0  0  0  0  0  0
    1.7761   -7.0469    6.5107 H   0  0  0  0  0  0  0  0  0  0  0  0
    0.8037   -8.0061    5.7102 H   0  0  0  0  0  0  0  0  0  0  0  0
    2.7499  -11.1502    6.8699 H   0  0  0  0  0  0  0  0  0  0  0  0
    2.1201  -12.5122    3.7232 H   0  0  0  0  0  0  0  0  0  0  0  0
    1.2237  -12.3415    5.2391 H   0  0  0  0  0  0  0  0  0  0  0  0
    2.9847  -12.4056    5.2393 H   0  0  0  0  0  0  0  0  0  0  0  0
    0.3280  -10.2160    1.8292 H   0  0  0  0  0  0  0  0  0  0  0  0
    4.5155   -5.0218    3.5610 H   0  0  0  0  0  0  0  0  0  0  0  0
    4.8921   -7.6622    3.1865 H   0  0  0  0  0  0  0  0  0  0  0  0
    2.2691   -7.1862    1.1381 H   0  0  0  0  0  0  0  0  0  0  0  0
    3.5415   -6.9436   -0.0190 H   0  0  0  0  0  0  0  0  0  0  0  0
    3.6504   -9.0754    0.8551 H   0  0  0  0  0  0  0  0  0  0  0  0
    3.0446   -3.6534    4.6107 H   0  0  0  0  0  0  0  0  0  0  0  0
    3.8085   -6.7543    7.0758 H   0  0  0  0  0  0  0  0  0  0  0  0
    4.8999   -5.4196    6.6748 H   0  0  0  0  0  0  0  0  0  0  0  0
    1.2787   -5.7017    8.2055 H   0  0  0  0  0  0  0  0  0  0  0  0
    0.7701   -3.1476   10.6941 H   0  0  0  0  0  0  0  0  0  0  0  0
    2.1280   -4.2075   10.5014 H   0  0  0  0  0  0  0  0  0  0  0  0
    0.5060   -4.8401   10.3190 H   0  0  0  0  0  0  0  0  0  0  0  0
   -0.5825   -2.5411    8.9720 H   0  0  0  0  0  0  0  0  0  0  0  0
   -0.9090   -4.1761    8.3851 H   0  0  0  0  0  0  0  0  0  0  0  0
   -0.2947   -2.9116    7.2994 H   0  0  0  0  0  0  0  0  0  0  0  0
    1.3756   -3.6849    5.9935 H   0  0  0  0  0  0  0  0  0  0  0  0
   -0.2625   -6.1815    6.5619 H   0  0  0  0  0  0  0  0  0  0  0  0
   -0.6552   -4.6934    5.8313 H   0  0  0  0  0  0  0  0  0  0  0  0
   -0.2505   -5.1986    3.6914 H   0  0  0  0  0  0  0  0  0  0  0  0
  1  2  1  0
  1 49  1  0
  1 50  1  0
  1 51  1  0
  2  3  1  0
  3  4  2  0
  3  5  1  0
  5 32  1  0
  5  6  1  0
  5 52  1  6
  6  7  1  0
  6  8  1  6
  6  9  1  0
  7 53  1  0
  7 54  1  0
  7 55  1  0
  8 56  1  0
  9 10  1  0
  9 14  1  0
 10 11  2  0
 10 12  1  0
 12 13  1  0
 13 57  1  0
 13 58  1  0
 13 59  1  0
 14 32  1  0
 14 15  1  6
 14 16  1  0
 15 60  1  0
 15 61  1  0
 15 62  1  0
 16 17  1  0
 18 17  1  6
 18 29  1  0
 18 46  1  0
 18 19  1  0
 19 20  1  0
 19 63  1  0
 19 64  1  0
 20 28  2  0
 20 21  1  0
 21 22  1  0
 21 23  2  0
 22 65  1  0
 23 24  1  0
 23 25  1  0
 24 66  1  0
 24 67  1  0
 24 68  1  0
 25 26  1  0
 25 27  2  0
 26 69  1  0
 47 27  1  1
 27 28  1  0
 29 28  1  1
 29 30  1  0
 29 35  1  0
 30 31  1  0
 30 32  1  0
 30 70  1  1
 31 71  1  0
 32 33  1  6
 33 34  1  0
 33 72  1  0
 33 73  1  0
 34 74  1  0
 35 44  1  0
 35 36  1  6
 35 37  1  0
 36 75  1  0
 37 38  1  0
 37 76  1  0
 37 77  1  0
 38 39  2  0
 38 40  1  0
 40 41  1  0
 40 44  1  0
 40 78  1  1
 41 42  1  0
 41 43  1  0
 42 79  1  0
 42 80  1  0
 42 81  1  0
 43 82  1  0
 43 83  1  0
 43 84  1  0
 44 45  1  0
 44 85  1  6
 45 46  1  0
 45 86  1  0
 45 87  1  0
 46 47  1  0
 46 88  1  6
 47 48  2  0
M  END
>  <i_m_ct_stereo_status>  (39) 
1

>  <s_m_source_file>  (39) 
/var/tmp/pbs.5075288.sched01/tmpye5xf5zc/0p3ozm_yu.sdf

>  <i_m_source_file_index>  (39) 
55

>  <i_lp_mmshare_version>  (39) 
48012

>  <i_f3d_flags>  (39) 
0

>  <s_epik_input>  (39) 
W0NIM11PQyg9TylbQ0BASF0xW0NAQF0oW0NIM10pKFtPSF0pTihDKD1PKU9bQ0gzXSlbQ0BdKFtDSDNdKShPTzIpW0NAXTEoW0NIMl1bT0hdKVtDQEhdKFtPSF0pW0NAQF0zKEMyNDUpYzZjKFtDSDJdNCljKFtPSF0pYyhbQ0gzXSljKFtPSF0pYzZbUytdKFtPLV0pW0NIXTVbQ0gyXVtDQEBIXTdbQ0BAXTMoW09IXSlbQ0gyXUMoPU8pW0NASF03TihbQ0gzXSlbQ0gzXQ==

>  <s_epik_cmdline>  (39) 
J2VwaWtfcHl0aG9uJywgJy1waHQnLCAnMi4wJywgJy1waCcsICc3LjAnLCAnLXRuJywgJzgnLCAnLW1hJywgJzIwMCcsICctaW1hZScsICc8aW5maWxlLm1hZT4nLCAnLW9tYWUnLCAnPG91dGZpbGUubWFlPic=

>  <r_lp_tautomer_probability>  (39) 
1

>  <r_epik_Ionization_Penalty>  (39) 
1.47942

>  <r_epik_Ionization_Penalty_Charging>  (39) 
0

>  <r_epik_Ionization_Penalty_Neutral>  (39) 
1.47942

>  <r_epik_State_Penalty>  (39) 
1.56776

>  <r_epik_Charging_Adjusted_Penalty>  (39) 
1.56776

>  <i_epik_Tot_Q>  (39) 
0

>  <i_epik_Tot_abs_Q>  (39) 
2

>  <s_epik_Chemistry_Notes>  (39) 
This compound has an ester and may undergo hydrolysis at high or low pH.

>  <s_lp_Force_Field>  (39) 
OPLS3e

>  <r_lp_Energy>  (39) 
494.505

>  <b_lp_Chiralities_Consistent>  (39) 
1

>  <s_lp_Variant>  (39) 
20:0-3

>  <s_i_glide_gridfile>  (39) 
pfpi4k_grid

>  <i_i_glide_lignum>  (39) 
55

>  <i_i_glide_rotatable_bonds>  (39) 
12

>  <r_i_docking_score>  (39) 
-2.90497

>  <r_i_glide_ligand_efficiency>  (39) 
-0.0605202

>  <r_i_glide_ligand_efficiency_sa>  (39) 
-0.219945

>  <r_i_glide_ligand_efficiency_ln>  (39) 
-0.596356

>  <r_i_glide_gscore>  (39) 
-2.90497

>  <r_i_glide_lipo>  (39) 
-0.232723

>  <r_i_glide_hbond>  (39) 
-0.173197

>  <r_i_glide_metal>  (39) 
-0

>  <r_i_glide_rewards>  (39) 
-0.666414

>  <r_i_glide_evdw>  (39) 
-28.8599

>  <r_i_glide_ecoul>  (39) 
-3.0002

>  <r_i_glide_erotb>  (39) 
0.132411

>  <r_i_glide_esite>  (39) 
-0.0720209

>  <r_i_glide_emodel>  (39) 
-40.4674

>  <r_i_glide_energy>  (39) 
-31.8601

>  <r_i_glide_einternal>  (39) 
3.37296

>  <r_i_glide_intrahb_reward>  (39) 
-0.5

>  <i_i_glide_confnum>  (39) 
4

>  <i_i_glide_posenum>  (39) 
13

>  <r_i_glide_eff_state_penalty>  (39) 
0

>  <ligand_id>  (39) 
20

>  <original_smiles>  (39) 
COC(=O)C1C(C)(O)N(C(=O)OC)C2(C)OOC34Cc5c(O)c(C)c(O)c6c5C3(C(O)C12CO)C1(O)CC(=O)C(N(C)C)C1CC4[S+]6[O-]

>  <smiles>  (39) 
[H]Oc1c2c3c(c(O[H])c1C([H])([H])[H])C([H])([H])C14OOC5(C([H])([H])[H])N(C(=O)OC([H])([H])[H])C(O[H])(C([H])([H])[H])C([H])(C(=O)OC([H])([H])[H])C5(C([H])([H])O[H])C([H])(O[H])C31C1(O[H])C([H])([H])C(=O)C([H])(N(C([H])([H])[H])C([H])([H])[H])C1([H])C([H])([H])C4([H])S2=O

$$$$
20:2:2
     RDKit          3D

 88 94  0  0  1  0  0  0  0  0999 V2000
    8.3086   -6.8155    0.9079 C   0  0  0  0  0  0  0  0  0  0  0  0
    7.0425   -6.2033    0.8000 O   0  0  0  0  0  0  0  0  0  0  0  0
    6.9222   -4.8723    0.8597 C   0  0  0  0  0  0  0  0  0  0  0  0
    7.8651   -4.0907    0.8676 O   0  0  0  0  0  0  0  0  0  0  0  0
    5.4063   -4.4600    0.8447 C   0  0  2  0  0  0  0  0  0  0  0  0
    5.0381   -2.9530    1.0766 C   0  0  1  0  0  0  0  0  0  0  0  0
    5.9227   -2.1644    2.0818 C   0  0  0  0  0  0  0  0  0  0  0  0
    5.2226   -2.2984   -0.1773 O   0  0  0  0  0  0  0  0  0  0  0  0
    3.6061   -2.9847    1.4953 N   0  0  0  0  0  0  0  0  0  0  0  0
    2.7750   -1.8625    1.7202 C   0  0  0  0  0  0  0  0  0  0  0  0
    1.5957   -1.8832    2.0842 O   0  0  0  0  0  0  0  0  0  0  0  0
    3.4258   -0.7167    1.4727 O   0  0  0  0  0  0  0  0  0  0  0  0
    2.7855    0.5325    1.6736 C   0  0  0  0  0  0  0  0  0  0  0  0
    3.0887   -4.3602    1.3233 C   0  0  2  0  0  0  0  0  0  0  0  0
    2.5047   -4.4606   -0.1211 C   0  0  0  0  0  0  0  0  0  0  0  0
    1.9234   -4.6767    2.0870 O   0  0  0  0  0  0  0  0  0  0  0  0
    2.1734   -4.6908    3.5315 O   0  0  0  0  0  0  0  0  0  0  0  0
    2.1746   -6.0527    4.0378 C   0  0  2  0  0  0  0  0  0  0  0  0
    2.5392   -7.0269    5.5429 C   0  0  0  0  0  0  0  0  0  0  0  0
    3.8190   -7.8108    5.4331 C   0  0  0  0  0  0  0  0  0  0  0  0
    3.9691   -9.1903    5.6795 C   0  0  0  0  0  0  0  0  0  0  0  0
    4.6095   -9.5757    6.8341 O   0  0  0  0  0  0  0  0  0  0  0  0
    3.5015  -10.1542    4.7690 C   0  0  0  0  0  0  0  0  0  0  0  0
    3.7327  -11.6359    4.9921 C   0  0  0  0  0  0  0  0  0  0  0  0
    2.7320   -9.7120    3.6571 C   0  0  0  0  0  0  0  0  0  0  0  0
    2.0284  -10.5939    2.8896 O   0  0  0  0  0  0  0  0  0  0  0  0
    2.5676   -8.3391    3.4426 C   0  0  0  0  0  0  0  0  0  0  0  0
    3.5413   -7.4532    4.1619 C   0  0  0  0  0  0  0  0  0  0  0  0
    3.5521   -5.8246    4.2740 C   0  0  1  0  0  0  0  0  0  0  0  0
    4.6107   -5.3847    3.1604 C   0  0  1  0  0  0  0  0  0  0  0  0
    5.8074   -6.0728    3.4458 O   0  0  0  0  0  0  0  0  0  0  0  0
    4.3055   -5.3143    1.5994 C   0  0  2  0  0  0  0  0  0  0  0  0
    3.9787   -6.7115    0.9495 C   0  0  0  0  0  0  0  0  0  0  0  0
    4.9207   -7.7310    1.2359 O   0  0  0  0  0  0  0  0  0  0  0  0
    3.4705   -4.7103    5.5687 C   0  0  2  0  0  0  0  0  0  0  0  0
    3.8477   -3.4000    5.1339 O   0  0  0  0  0  0  0  0  0  0  0  0
    4.4526   -4.9440    6.7210 C   0  0  0  0  0  0  0  0  0  0  0  0
    3.7668   -4.2296    7.8563 C   0  0  0  0  0  0  0  0  0  0  0  0
    4.4384   -3.6290    8.6891 O   0  0  0  0  0  0  0  0  0  0  0  0
    2.2264   -4.3325    7.7812 C   0  0  1  0  0  0  0  0  0  0  0  0
    1.5027   -3.2876    8.5644 N   0  0  0  0  0  0  0  0  0  0  0  0
    1.6157   -3.5055   10.0174 C   0  0  0  0  0  0  0  0  0  0  0  0
    0.0756   -3.2103    8.2639 C   0  0  0  0  0  0  0  0  0  0  0  0
    1.9664   -4.4052    6.2369 C   0  0  2  0  0  0  0  0  0  0  0  0
    0.6901   -5.3729    5.8493 C   0  0  0  0  0  0  0  0  0  0  0  0
    0.7711   -5.9702    4.3649 C   0  0  2  0  0  0  0  0  0  0  0  0
    0.6478   -7.7565    3.6407 S   0  0  0  0  0  0  0  0  0  0  0  0
    0.0225   -8.6185    4.7512 O   0  0  0  0  0  0  0  0  0  0  0  0
    8.1179   -7.8824    0.9342 H   0  0  0  0  0  0  0  0  0  0  0  0
    8.8142   -6.5572    1.8410 H   0  0  0  0  0  0  0  0  0  0  0  0
    8.9780   -6.6228    0.0645 H   0  0  0  0  0  0  0  0  0  0  0  0
    5.2038   -4.6491   -0.2044 H   0  0  0  0  0  0  0  0  0  0  0  0
    5.9233   -2.5881    3.0818 H   0  0  0  0  0  0  0  0  0  0  0  0
    5.6435   -1.1207    2.1826 H   0  0  0  0  0  0  0  0  0  0  0  0
    6.9446   -2.0881    1.7292 H   0  0  0  0  0  0  0  0  0  0  0  0
    4.3918   -1.9886   -0.5155 H   0  0  0  0  0  0  0  0  0  0  0  0
    3.4902    1.3369    1.4738 H   0  0  0  0  0  0  0  0  0  0  0  0
    2.4280    0.6566    2.6982 H   0  0  0  0  0  0  0  0  0  0  0  0
    1.9413    0.6458    0.9922 H   0  0  0  0  0  0  0  0  0  0  0  0
    3.2446   -4.2753   -0.8932 H   0  0  0  0  0  0  0  0  0  0  0  0
    1.7419   -3.7153   -0.2885 H   0  0  0  0  0  0  0  0  0  0  0  0
    2.0506   -5.4314   -0.3025 H   0  0  0  0  0  0  0  0  0  0  0  0
    2.6140   -6.6310    6.5400 H   0  0  0  0  0  0  0  0  0  0  0  0
    1.7942   -7.7705    5.8465 H   0  0  0  0  0  0  0  0  0  0  0  0
    4.5030  -10.5046    6.9753 H   0  0  0  0  0  0  0  0  0  0  0  0
    3.7676  -12.2093    4.0660 H   0  0  0  0  0  0  0  0  0  0  0  0
    2.9470  -12.0519    5.6150 H   0  0  0  0  0  0  0  0  0  0  0  0
    4.6804  -11.8031    5.4969 H   0  0  0  0  0  0  0  0  0  0  0  0
    2.1936  -11.5005    3.0953 H   0  0  0  0  0  0  0  0  0  0  0  0
    4.9062   -4.3809    3.3838 H   0  0  0  0  0  0  0  0  0  0  0  0
    5.6469   -6.9812    3.2226 H   0  0  0  0  0  0  0  0  0  0  0  0
    2.9991   -7.0744    1.2817 H   0  0  0  0  0  0  0  0  0  0  0  0
    3.9215   -6.6465   -0.1420 H   0  0  0  0  0  0  0  0  0  0  0  0
    5.7911   -7.4355    1.0457 H   0  0  0  0  0  0  0  0  0  0  0  0
    3.2455   -3.1817    4.4379 H   0  0  0  0  0  0  0  0  0  0  0  0
    4.5815   -5.9770    7.0313 H   0  0  0  0  0  0  0  0  0  0  0  0
    5.4323   -4.5141    6.5261 H   0  0  0  0  0  0  0  0  0  0  0  0
    1.9631   -5.2942    8.2109 H   0  0  0  0  0  0  0  0  0  0  0  0
    1.1245   -2.7105   10.5837 H   0  0  0  0  0  0  0  0  0  0  0  0
    2.6392   -3.5293   10.3868 H   0  0  0  0  0  0  0  0  0  0  0  0
    1.1496   -4.4469   10.3182 H   0  0  0  0  0  0  0  0  0  0  0  0
   -0.3952   -2.4606    8.9006 H   0  0  0  0  0  0  0  0  0  0  0  0
   -0.4366   -4.1617    8.4298 H   0  0  0  0  0  0  0  0  0  0  0  0
   -0.1000   -2.8859    7.2393 H   0  0  0  0  0  0  0  0  0  0  0  0
    1.6547   -3.4142    5.9000 H   0  0  0  0  0  0  0  0  0  0  0  0
    0.4600   -6.1069    6.6359 H   0  0  0  0  0  0  0  0  0  0  0  0
   -0.1996   -4.7511    5.8527 H   0  0  0  0  0  0  0  0  0  0  0  0
    0.1634   -5.3382    3.7004 H   0  0  0  0  0  0  0  0  0  0  0  0
  1  2  1  0
  1 49  1  0
  1 50  1  0
  1 51  1  0
  2  3  1  0
  3  4  2  0
  3  5  1  0
  5 32  1  0
  5  6  1  0
  5 52  1  6
  6  7  1  0
  6  8  1  6
  6  9  1  0
  7 53  1  0
  7 54  1  0
  7 55  1  0
  8 56  1  0
  9 10  1  0
  9 14  1  0
 10 11  2  0
 10 12  1  0
 12 13  1  0
 13 57  1  0
 13 58  1  0
 13 59  1  0
 14 32  1  0
 14 15  1  6
 14 16  1  0
 15 60  1  0
 15 61  1  0
 15 62  1  0
 16 17  1  0
 18 17  1  6
 18 29  1  0
 18 46  1  0
 18 19  1  0
 19 20  1  0
 19 63  1  0
 19 64  1  0
 20 28  2  0
 20 21  1  0
 21 22  1  0
 21 23  2  0
 22 65  1  0
 23 24  1  0
 23 25  1  0
 24 66  1  0
 24 67  1  0
 24 68  1  0
 25 26  1  0
 25 27  2  0
 26 69  1  0
 47 27  1  1
 27 28  1  0
 29 28  1  1
 29 30  1  0
 29 35  1  0
 30 31  1  0
 30 32  1  0
 30 70  1  1
 31 71  1  0
 32 33  1  6
 33 34  1  0
 33 72  1  0
 33 73  1  0
 34 74  1  0
 35 44  1  0
 35 36  1  6
 35 37  1  0
 36 75  1  0
 37 38  1  0
 37 76  1  0
 37 77  1  0
 38 39  2  0
 38 40  1  0
 40 41  1  0
 40 44  1  0
 40 78  1  1
 41 42  1  0
 41 43  1  0
 42 79  1  0
 42 80  1  0
 42 81  1  0
 43 82  1  0
 43 83  1  0
 43 84  1  0
 44 45  1  0
 44 85  1  6
 45 46  1  0
 45 86  1  0
 45 87  1  0
 46 47  1  0
 46 88  1  6
 47 48  2  0
M  END
>  <i_m_ct_stereo_status>  (40) 
1

>  <s_m_source_file>  (40) 
/var/tmp/pbs.5075288.sched01/tmpye5xf5zc/0p3ozm_yu.sdf

>  <i_m_source_file_index>  (40) 
55

>  <i_lp_mmshare_version>  (40) 
48012

>  <i_f3d_flags>  (40) 
0

>  <s_epik_input>  (40) 
W0NIM11PQyg9TylbQ0BASF0xW0NAQF0oW0NIM10pKFtPSF0pTihDKD1PKU9bQ0gzXSlbQ0BdKFtDSDNdKShPTzIpW0NAXTEoW0NIMl1bT0hdKVtDQEhdKFtPSF0pW0NAQF0zKEMyNDUpYzZjKFtDSDJdNCljKFtPSF0pYyhbQ0gzXSljKFtPSF0pYzZbUytdKFtPLV0pW0NIXTVbQ0gyXVtDQEBIXTdbQ0BAXTMoW09IXSlbQ0gyXUMoPU8pW0NASF03TihbQ0gzXSlbQ0gzXQ==

>  <s_epik_cmdline>  (40) 
J2VwaWtfcHl0aG9uJywgJy1waHQnLCAnMi4wJywgJy1waCcsICc3LjAnLCAnLXRuJywgJzgnLCAnLW1hJywgJzIwMCcsICctaW1hZScsICc8aW5maWxlLm1hZT4nLCAnLW9tYWUnLCAnPG91dGZpbGUubWFlPic=

>  <r_lp_tautomer_probability>  (40) 
1

>  <r_epik_Ionization_Penalty>  (40) 
1.47942

>  <r_epik_Ionization_Penalty_Charging>  (40) 
0

>  <r_epik_Ionization_Penalty_Neutral>  (40) 
1.47942

>  <r_epik_State_Penalty>  (40) 
1.56776

>  <r_epik_Charging_Adjusted_Penalty>  (40) 
1.56776

>  <i_epik_Tot_Q>  (40) 
0

>  <i_epik_Tot_abs_Q>  (40) 
2

>  <s_epik_Chemistry_Notes>  (40) 
This compound has an ester and may undergo hydrolysis at high or low pH.

>  <s_lp_Force_Field>  (40) 
OPLS3e

>  <r_lp_Energy>  (40) 
494.505

>  <b_lp_Chiralities_Consistent>  (40) 
1

>  <s_lp_Variant>  (40) 
20:0-3

>  <s_i_glide_gridfile>  (40) 
pfpi4k_grid

>  <i_i_glide_lignum>  (40) 
55

>  <i_i_glide_rotatable_bonds>  (40) 
12

>  <r_i_docking_score>  (40) 
-2.59758

>  <r_i_glide_ligand_efficiency>  (40) 
-0.0541162

>  <r_i_glide_ligand_efficiency_sa>  (40) 
-0.196671

>  <r_i_glide_ligand_efficiency_ln>  (40) 
-0.533252

>  <r_i_glide_gscore>  (40) 
-2.59758

>  <r_i_glide_lipo>  (40) 
-0.295357

>  <r_i_glide_hbond>  (40) 
-0.00229982

>  <r_i_glide_metal>  (40) 
-0

>  <r_i_glide_rewards>  (40) 
-0.697832

>  <r_i_glide_evdw>  (40) 
-32.3425

>  <r_i_glide_ecoul>  (40) 
-0.395841

>  <r_i_glide_erotb>  (40) 
0.132411

>  <r_i_glide_esite>  (40) 
-0.0579987

>  <r_i_glide_emodel>  (40) 
-41.7493

>  <r_i_glide_energy>  (40) 
-32.7384

>  <r_i_glide_einternal>  (40) 
1.54609

>  <r_i_glide_intrahb_reward>  (40) 
-0.5

>  <i_i_glide_confnum>  (40) 
1

>  <i_i_glide_posenum>  (40) 
3

>  <r_i_glide_eff_state_penalty>  (40) 
0

>  <ligand_id>  (40) 
20

>  <original_smiles>  (40) 
COC(=O)C1C(C)(O)N(C(=O)OC)C2(C)OOC34Cc5c(O)c(C)c(O)c6c5C3(C(O)C12CO)C1(O)CC(=O)C(N(C)C)C1CC4[S+]6[O-]

>  <smiles>  (40) 
[H]Oc1c2c3c(c(O[H])c1C([H])([H])[H])C([H])([H])C14OOC5(C([H])([H])[H])N(C(=O)OC([H])([H])[H])C(O[H])(C([H])([H])[H])C([H])(C(=O)OC([H])([H])[H])C5(C([H])([H])O[H])C([H])(O[H])C31C1(O[H])C([H])([H])C(=O)C([H])(N(C([H])([H])[H])C([H])([H])[H])C1([H])C([H])([H])C4([H])S2=O

$$$$
27:1:0
     RDKit          3D

103112  0  0  1  0  0  0  0  0999 V2000
    1.4888    5.5585    3.2456 C   0  0  0  0  0  0  0  0  0  0  0  0
    1.4755    4.4810    4.0096 C   0  0  0  0  0  0  0  0  0  0  0  0
    0.3156    3.4035    3.8768 C   0  0  1  0  0  0  0  0  0  0  0  0
   -0.7838    4.0568    3.2736 O   0  0  0  0  0  0  0  0  0  0  0  0
    0.6768    2.3905    2.9804 O   0  0  0  0  0  0  0  0  0  0  0  0
    1.9160    1.8382    2.9747 C   0  0  0  0  0  0  0  0  0  0  0  0
    2.4396    1.3643    1.9774 O   0  0  0  0  0  0  0  0  0  0  0  0
    2.5836    1.6469    4.3196 C   0  0  1  0  0  0  0  0  0  0  0  0
    2.7131    0.2064    4.6083 C   0  0  0  0  0  0  0  0  0  0  0  0
    3.8402    2.2829    4.3034 O   0  0  0  0  0  0  0  0  0  0  0  0
    2.9449    2.8108    5.2917 C   0  0  2  0  0  0  0  0  0  0  0  0
    3.4438    2.2912    7.0800 S   0  0  0  0  0  0  0  0  0  0  0  0
    4.6812    3.0795    7.5153 O   0  0  0  0  0  0  0  0  0  0  0  0
    2.1823    2.3401    8.5221 C   0  0  1  0  0  0  0  0  0  0  0  0
    1.4419    3.7432    8.8805 C   0  0  2  0  0  0  0  0  0  0  0  0
    0.8655    3.8242   10.3287 C   0  0  0  0  0  0  0  0  0  0  0  0
    1.5383    2.9656   11.3906 C   0  0  0  0  0  0  0  0  0  0  0  0
    0.9985    1.5088   11.4510 C   0  0  2  0  0  0  0  0  0  0  0  0
   -0.1732    1.4667   12.4372 C   0  0  0  0  0  0  0  0  0  0  0  0
    2.0655    0.5975   12.0326 C   0  0  0  0  0  0  0  0  0  0  0  0
    3.0825    0.2620   10.9480 C   0  0  0  0  0  0  0  0  0  0  0  0
    2.5181   -0.2246    9.5541 C   0  0  1  0  0  0  0  0  0  0  0  0
    3.6271   -0.9360    8.6196 C   0  0  2  0  0  0  0  0  0  0  0  0
    3.1248   -1.7653    7.4085 C   0  0  0  0  0  0  0  0  0  0  0  0
    3.9963   -3.0011    7.3810 C   0  0  2  0  0  0  0  0  0  0  0  0
    3.5582   -3.9578    8.4974 C   0  0  2  0  0  0  0  0  0  0  0  0
    3.7153   -3.1001    9.6559 O   0  0  0  0  0  0  0  0  0  0  0  0
    4.5808   -2.0354    9.2584 C   0  0  2  0  0  0  0  0  0  0  0  0
    5.5036   -1.5943   10.2500 O   0  0  0  0  0  0  0  0  0  0  0  0
    6.1300   -0.3161   10.1791 C   0  0  0  0  0  0  0  0  0  0  0  0
    5.3158   -2.6896    8.0393 C   0  0  2  0  0  0  0  0  0  0  0  0
    6.3008   -1.7724    7.2498 C   0  0  0  0  0  0  0  0  0  0  0  0
    5.9221   -4.0764    8.3590 C   0  0  0  0  0  0  0  0  0  0  0  0
    4.6911   -4.9792    8.4918 C   0  0  1  0  0  0  0  0  0  0  0  0
    4.6626   -5.7846    9.6482 O   0  0  0  0  0  0  0  0  0  0  0  0
    1.5368   -1.1866    9.9224 O   0  0  0  0  0  0  0  0  0  0  0  0
    0.2501   -0.4399   10.2364 O   0  0  0  0  0  0  0  0  0  0  0  0
    0.5359    0.9360   10.0604 C   0  0  2  0  0  0  0  0  0  0  0  0
    1.5715    0.8929    8.8986 C   0  0  1  0  0  0  0  0  0  0  0  0
    0.8079    0.3483    7.6603 C   0  0  0  0  0  0  0  0  0  0  0  0
    0.4311    4.5313    7.9129 C   0  0  1  0  0  0  0  0  0  0  0  0
   -0.1134    5.6420    8.6008 O   0  0  0  0  0  0  0  0  0  0  0  0
    1.0645    5.1693    6.7015 C   0  0  0  0  0  0  0  0  0  0  0  0
    2.3175    4.9358    6.3534 C   0  0  0  0  0  0  0  0  0  0  0  0
    2.6307    4.2710    5.0376 C   0  0  2  0  0  0  0  0  0  0  0  0
    3.8137    4.9043    4.5609 O   0  0  0  0  0  0  0  0  0  0  0  0
   -0.7203    3.5606    7.4251 C   0  0  1  0  0  0  0  0  0  0  0  0
   -1.8699    3.7926    8.1813 O   0  0  0  0  0  0  0  0  0  0  0  0
   -2.9018    2.8430    7.9607 C   0  0  0  0  0  0  0  0  0  0  0  0
   -0.9669    3.6523    6.0298 O   0  0  0  0  0  0  0  0  0  0  0  0
   -0.2024    2.7686    5.2474 C   0  0  1  0  0  0  0  0  0  0  0  0
   -0.8324    1.5291    5.0720 O   0  0  0  0  0  0  0  0  0  0  0  0
   -2.0332    1.5271    4.3160 C   0  0  0  0  0  0  0  0  0  0  0  0
    2.2772    6.3081    3.2971 H   0  0  0  0  0  0  0  0  0  0  0  0
    0.7224    5.7496    2.5084 H   0  0  0  0  0  0  0  0  0  0  0  0
   -0.5448    4.1850    2.3468 H   0  0  0  0  0  0  0  0  0  0  0  0
    1.7519   -0.2583    4.7998 H   0  0  0  0  0  0  0  0  0  0  0  0
    3.3348    0.2162    5.4710 H   0  0  0  0  0  0  0  0  0  0  0  0
    3.2493   -0.3450    3.8347 H   0  0  0  0  0  0  0  0  0  0  0  0
    2.9784    2.4026    9.2655 H   0  0  0  0  0  0  0  0  0  0  0  0
    2.2907    4.4251    8.9817 H   0  0  0  0  0  0  0  0  0  0  0  0
    0.9661    4.8535   10.6716 H   0  0  0  0  0  0  0  0  0  0  0  0
   -0.2047    3.6219   10.3303 H   0  0  0  0  0  0  0  0  0  0  0  0
    2.6206    3.0323   11.2805 H   0  0  0  0  0  0  0  0  0  0  0  0
    1.3732    3.4407   12.3608 H   0  0  0  0  0  0  0  0  0  0  0  0
   -0.5589    0.4536   12.5500 H   0  0  0  0  0  0  0  0  0  0  0  0
   -0.9816    2.1016   12.0794 H   0  0  0  0  0  0  0  0  0  0  0  0
    0.1131    1.8102   13.4352 H   0  0  0  0  0  0  0  0  0  0  0  0
    2.5949    1.1179   12.8307 H   0  0  0  0  0  0  0  0  0  0  0  0
    1.6506   -0.3159   12.4796 H   0  0  0  0  0  0  0  0  0  0  0  0
    3.6672    1.1735   10.8457 H   0  0  0  0  0  0  0  0  0  0  0  0
    3.6952   -0.5005   11.4166 H   0  0  0  0  0  0  0  0  0  0  0  0
    4.2461   -0.1284    8.2624 H   0  0  0  0  0  0  0  0  0  0  0  0
    2.1236   -2.2007    7.4866 H   0  0  0  0  0  0  0  0  0  0  0  0
    3.3849   -1.3250    6.4627 H   0  0  0  0  0  0  0  0  0  0  0  0
    4.0938   -3.4510    6.4042 H   0  0  0  0  0  0  0  0  0  0  0  0
    2.5633   -4.3773    8.3369 H   0  0  0  0  0  0  0  0  0  0  0  0
    6.9744   -0.3299   10.8646 H   0  0  0  0  0  0  0  0  0  0  0  0
    5.4958    0.4962   10.4661 H   0  0  0  0  0  0  0  0  0  0  0  0
    6.4308   -0.0399    9.1832 H   0  0  0  0  0  0  0  0  0  0  0  0
    7.1199   -1.4228    7.8868 H   0  0  0  0  0  0  0  0  0  0  0  0
    5.8138   -0.9090    6.7922 H   0  0  0  0  0  0  0  0  0  0  0  0
    6.8211   -2.3249    6.4662 H   0  0  0  0  0  0  0  0  0  0  0  0
    6.4790   -4.4099    7.4851 H   0  0  0  0  0  0  0  0  0  0  0  0
    6.5852   -4.0680    9.2293 H   0  0  0  0  0  0  0  0  0  0  0  0
    4.5906   -5.6241    7.6132 H   0  0  0  0  0  0  0  0  0  0  0  0
    5.3962   -6.3687    9.5942 H   0  0  0  0  0  0  0  0  0  0  0  0
   -0.3759    1.4383    9.7589 H   0  0  0  0  0  0  0  0  0  0  0  0
    0.7906   -0.7326    7.6227 H   0  0  0  0  0  0  0  0  0  0  0  0
    1.2597    0.7080    6.7468 H   0  0  0  0  0  0  0  0  0  0  0  0
   -0.2515    0.6013    7.6616 H   0  0  0  0  0  0  0  0  0  0  0  0
   -0.5931    5.3134    9.3436 H   0  0  0  0  0  0  0  0  0  0  0  0
    0.3462    5.4268    5.9403 H   0  0  0  0  0  0  0  0  0  0  0  0
    3.0697    4.7784    7.1020 H   0  0  0  0  0  0  0  0  0  0  0  0
    3.9072    4.6710    3.6491 H   0  0  0  0  0  0  0  0  0  0  0  0
   -0.4616    2.5500    7.6622 H   0  0  0  0  0  0  0  0  0  0  0  0
   -3.7484    3.0885    8.5984 H   0  0  0  0  0  0  0  0  0  0  0  0
   -2.5816    1.8329    8.2127 H   0  0  0  0  0  0  0  0  0  0  0  0
   -3.2550    2.8506    6.9299 H   0  0  0  0  0  0  0  0  0  0  0  0
    0.6402    2.4917    5.8556 H   0  0  0  0  0  0  0  0  0  0  0  0
   -2.5603    0.5880    4.4909 H   0  0  0  0  0  0  0  0  0  0  0  0
   -1.8423    1.5884    3.2445 H   0  0  0  0  0  0  0  0  0  0  0  0
   -2.6986    2.3429    4.5934 H   0  0  0  0  0  0  0  0  0  0  0  0
  1  2  2  0
  1 54  1  0
  1 55  1  0
  2 45  1  0
  2  3  1  0
  3 51  1  0
  3  4  1  6
  3  5  1  0
  4 56  1  0
  5  6  1  0
  6  7  2  0
  6  8  1  0
  8 11  1  0
  8  9  1  1
  8 10  1  0
  9 57  1  0
  9 58  1  0
  9 59  1  0
 11 10  1  6
 11 45  1  0
 12 11  1  6
 12 13  2  0
 12 14  1  0
 14 39  1  0
 14 15  1  0
 14 60  1  1
 15 16  1  0
 15 41  1  0
 15 61  1  1
 16 17  1  0
 16 62  1  0
 16 63  1  0
 17 18  1  0
 17 64  1  0
 17 65  1  0
 18 38  1  0
 18 19  1  1
 18 20  1  0
 19 66  1  0
 19 67  1  0
 19 68  1  0
 20 21  1  0
 20 69  1  0
 20 70  1  0
 21 22  1  0
 21 71  1  0
 21 72  1  0
 22 39  1  0
 22 23  1  0
 22 36  1  1
 23 28  1  0
 23 24  1  0
 23 73  1  6
 24 25  1  0
 24 74  1  0
 24 75  1  0
 25 31  1  0
 25 26  1  0
 25 76  1  6
 26 34  1  0
 26 27  1  0
 26 77  1  6
 27 28  1  0
 28 29  1  1
 28 31  1  0
 29 30  1  0
 30 78  1  0
 30 79  1  0
 30 80  1  0
 31 32  1  6
 31 33  1  0
 32 81  1  0
 32 82  1  0
 32 83  1  0
 33 34  1  0
 33 84  1  0
 33 85  1  0
 34 35  1  0
 34 86  1  6
 35 87  1  0
 36 37  1  0
 37 38  1  0
 38 39  1  0
 38 88  1  6
 39 40  1  6
 40 89  1  0
 40 90  1  0
 40 91  1  0
 41 42  1  1
 41 43  1  0
 41 47  1  0
 42 92  1  0
 43 44  2  3
 43 93  1  0
 44 45  1  0
 44 94  1  0
 45 46  1  6
 46 95  1  0
 47 48  1  0
 47 50  1  0
 47 96  1  6
 48 49  1  0
 49 97  1  0
 49 98  1  0
 49 99  1  0
 50 51  1  0
 51 52  1  0
 51100  1  1
 52 53  1  0
 53101  1  0
 53102  1  0
 53103  1  0
M  END
>  <i_m_ct_stereo_status>  (41) 
1

>  <s_m_source_file>  (41) 
/var/tmp/pbs.5075288.sched01/tmp228mwnki/64h1usuhcs.sdf

>  <i_m_source_file_index>  (41) 
5

>  <i_lp_mmshare_version>  (41) 
48012

>  <i_f3d_flags>  (41) 
0

>  <s_epik_input>  (41) 
W0NIM11bQ0BdKE8xKShDMTIzKUMoPU8pT1tDQF00KFtPSF0pQyg9W0NIMl0pW0NAQF0zKFtPSF0pL1tDSF09W0NIXVxbQ0BAXShbT0hdKShbQ0BASF0oT1tDSDNdKU9bQ0BIXTRPW0NIM10pW0NAQEhdNVtDQEhdKFtTK10yW08tXSlbQ0BAXTYoW0NIM10pW0NAXTcoW0NIMl1bQ0gyXVtDQEBdKFtDSDNdKShbQ0gyXVtDSDJdNSlbQ0BASF02T083KVtDQEBIXThbQ0gyXVtDQEhdKFtDQEhdKE85KVtDQEBIXShbQ0gyXTEpW09IXSlbQ0BAXTEoW0NIM10pW0NAQF04OU9bQ0gzXQ==

>  <s_epik_cmdline>  (41) 
J2VwaWtfcHl0aG9uJywgJy1waHQnLCAnMi4wJywgJy1waCcsICc3LjAnLCAnLXRuJywgJzgnLCAnLW1hJywgJzIwMCcsICctaW1hZScsICc8aW5maWxlLm1hZT4nLCAnLW9tYWUnLCAnPG91dGZpbGUubWFlPic=

>  <r_epik_Ionization_Penalty>  (41) 
0.00583982

>  <r_epik_Ionization_Penalty_Charging>  (41) 
0

>  <r_epik_Ionization_Penalty_Neutral>  (41) 
0.00583982

>  <r_epik_State_Penalty>  (41) 
0.00424056

>  <r_epik_Charging_Adjusted_Penalty>  (41) 
0.00424056

>  <i_epik_Tot_Q>  (41) 
0

>  <i_epik_Tot_abs_Q>  (41) 
2

>  <s_epik_Chemistry_Notes>  (41) 
This compound has an ester and may undergo hydrolysis at high or low pH. This compound contains an acetal/aminal-like group ( X-CH(R)-Y where X, Y are N, S, or O) that may be acid/base labile, releasing an aldehyde.

>  <s_lp_Force_Field>  (41) 
OPLS3e

>  <r_lp_Energy>  (41) 
213.286

>  <b_lp_Chiralities_Consistent>  (41) 
1

>  <s_lp_Variant>  (41) 
27:0-2

>  <s_i_glide_gridfile>  (41) 
pfpi4k_grid

>  <i_i_glide_lignum>  (41) 
5

>  <i_i_glide_rotatable_bonds>  (41) 
8

>  <r_i_docking_score>  (41) 
-1.96059

>  <r_i_glide_ligand_efficiency>  (41) 
-0.0369923

>  <r_i_glide_ligand_efficiency_sa>  (41) 
-0.138954

>  <r_i_glide_ligand_efficiency_ln>  (41) 
-0.394462

>  <r_i_glide_gscore>  (41) 
-1.96059

>  <r_i_glide_lipo>  (41) 
-0.160927

>  <r_i_glide_hbond>  (41) 
0

>  <r_i_glide_metal>  (41) 
-0

>  <r_i_glide_rewards>  (41) 
0

>  <r_i_glide_evdw>  (41) 
-23.5412

>  <r_i_glide_ecoul>  (41) 
-6.60705

>  <r_i_glide_erotb>  (41) 
0.0368563

>  <r_i_glide_esite>  (41) 
-0.0844116

>  <r_i_glide_emodel>  (41) 
-26.5211

>  <r_i_glide_energy>  (41) 
-30.1483

>  <r_i_glide_einternal>  (41) 
5.86627

>  <r_i_glide_intrahb_reward>  (41) 
-0

>  <i_i_glide_confnum>  (41) 
2

>  <i_i_glide_posenum>  (41) 
8

>  <r_i_glide_eff_state_penalty>  (41) 
0

>  <ligand_id>  (41) 
27

>  <original_smiles>  (41) 
C=C1C2(O)OC(=O)C3(C)OC34[S+]([O-])C3C(CCC5(C)CCC6(C7CC8C9OC7(OC)C8(C)CC9O)OOC5C36C)C(O)(C=CC14O)C(OC)OC2OC

>  <smiles>  (41) 
[H]OC12OC(=O)C3(C([H])([H])[H])OC34S(=O)C3([H])C([H])(C([H])([H])C([H])([H])C5(C([H])([H])[H])C([H])([H])C([H])([H])C6(C7([H])C([H])([H])C8([H])C9([H])OC7(OC([H])([H])[H])C8(C([H])([H])[H])C([H])([H])C9([H])O[H])OOC5([H])C36C([H])([H])[H])C(O[H])(C([H])=C([H])C4(O[H])C1=C([H])[H])C([H])(OC([H])([H])[H])OC2([H])OC([H])([H])[H]

$$$$
27:1:1
     RDKit          3D

103112  0  0  1  0  0  0  0  0999 V2000
    2.1548    6.2688    7.4327 C   0  0  0  0  0  0  0  0  0  0  0  0
    1.9761    5.1703    6.7356 C   0  0  0  0  0  0  0  0  0  0  0  0
    0.7808    5.0448    5.6916 C   0  0  1  0  0  0  0  0  0  0  0  0
   -0.2023    5.9503    6.1293 O   0  0  0  0  0  0  0  0  0  0  0  0
    1.1922    5.4963    4.4303 O   0  0  0  0  0  0  0  0  0  0  0  0
    2.3676    5.0765    3.8912 C   0  0  0  0  0  0  0  0  0  0  0  0
    3.0363    5.7456    3.1102 O   0  0  0  0  0  0  0  0  0  0  0  0
    2.8240    3.6881    4.2166 C   0  0  1  0  0  0  0  0  0  0  0  0
    2.8135    2.8673    2.9679 C   0  0  0  0  0  0  0  0  0  0  0  0
    4.1163    3.7805    4.7966 O   0  0  0  0  0  0  0  0  0  0  0  0
    3.1363    3.1699    5.6364 C   0  0  2  0  0  0  0  0  0  0  0  0
    3.3506    1.2588    5.7684 S   0  0  0  0  0  0  0  0  0  0  0  0
    4.5694    0.9461    6.6373 O   0  0  0  0  0  0  0  0  0  0  0  0
    1.9195    0.1250    6.3497 C   0  0  1  0  0  0  0  0  0  0  0  0
    1.2354    0.3989    7.7920 C   0  0  2  0  0  0  0  0  0  0  0  0
    0.4993   -0.8224    8.4049 C   0  0  0  0  0  0  0  0  0  0  0  0
    0.9374   -2.2143    7.9744 C   0  0  0  0  0  0  0  0  0  0  0  0
    0.3066   -2.7090    6.6387 C   0  0  2  0  0  0  0  0  0  0  0  0
   -0.9682   -3.4942    6.9681 C   0  0  0  0  0  0  0  0  0  0  0  0
    1.2060   -3.7329    5.9647 C   0  0  0  0  0  0  0  0  0  0  0  0
    2.3532   -3.0121    5.2743 C   0  0  0  0  0  0  0  0  0  0  0  0
    1.9538   -1.7968    4.3436 C   0  0  1  0  0  0  0  0  0  0  0  0
    3.1095   -1.3334    3.3374 C   0  0  2  0  0  0  0  0  0  0  0  0
    2.6624   -0.6257    2.0019 C   0  0  0  0  0  0  0  0  0  0  0  0
    3.5839   -1.2218    0.9347 C   0  0  2  0  0  0  0  0  0  0  0  0
    3.1341   -2.6388    0.5991 C   0  0  2  0  0  0  0  0  0  0  0  0
    3.2132   -3.2545    1.9206 O   0  0  0  0  0  0  0  0  0  0  0  0
    4.0620   -2.4149    2.7078 C   0  0  2  0  0  0  0  0  0  0  0  0
    4.9312   -3.0999    3.5989 O   0  0  0  0  0  0  0  0  0  0  0  0
    5.4972   -2.4635    4.7586 C   0  0  0  0  0  0  0  0  0  0  0  0
    4.8584   -1.6833    1.5884 C   0  0  2  0  0  0  0  0  0  0  0  0
    5.8529   -0.6131    2.0756 C   0  0  0  0  0  0  0  0  0  0  0  0
    5.4973   -2.6505    0.5595 C   0  0  0  0  0  0  0  0  0  0  0  0
    4.3051   -3.1586   -0.2401 C   0  0  1  0  0  0  0  0  0  0  0  0
    4.3005   -4.5616   -0.4172 O   0  0  0  0  0  0  0  0  0  0  0  0
    0.8733   -2.3338    3.5997 O   0  0  0  0  0  0  0  0  0  0  0  0
   -0.3997   -2.1795    4.4280 O   0  0  0  0  0  0  0  0  0  0  0  0
   -0.0085   -1.5546    5.6274 C   0  0  2  0  0  0  0  0  0  0  0  0
    1.1738   -0.6571    5.1541 C   0  0  1  0  0  0  0  0  0  0  0  0
    0.5569    0.4064    4.1896 C   0  0  0  0  0  0  0  0  0  0  0  0
    0.4092    1.7160    8.1993 C   0  0  1  0  0  0  0  0  0  0  0  0
   -0.1617    1.5445    9.4820 O   0  0  0  0  0  0  0  0  0  0  0  0
    1.2435    2.9666    8.3692 C   0  0  0  0  0  0  0  0  0  0  0  0
    2.5122    3.0320    8.0083 C   0  0  0  0  0  0  0  0  0  0  0  0
    2.9594    3.9643    6.9174 C   0  0  2  0  0  0  0  0  0  0  0  0
    4.2517    4.4493    7.2834 O   0  0  0  0  0  0  0  0  0  0  0  0
   -0.7202    2.0157    7.1292 C   0  0  1  0  0  0  0  0  0  0  0  0
   -1.9634    1.5946    7.6171 O   0  0  0  0  0  0  0  0  0  0  0  0
   -3.0310    2.4698    7.2527 C   0  0  0  0  0  0  0  0  0  0  0  0
   -0.7184    3.3735    6.7198 O   0  0  0  0  0  0  0  0  0  0  0  0
    0.0578    3.6337    5.5916 C   0  0  1  0  0  0  0  0  0  0  0  0
   -0.6479    3.4492    4.3963 O   0  0  0  0  0  0  0  0  0  0  0  0
   -1.7218    4.3318    4.1141 C   0  0  0  0  0  0  0  0  0  0  0  0
    2.9742    6.3518    8.1481 H   0  0  0  0  0  0  0  0  0  0  0  0
    1.5211    7.1455    7.3562 H   0  0  0  0  0  0  0  0  0  0  0  0
    0.2374    6.7734    6.2937 H   0  0  0  0  0  0  0  0  0  0  0  0
    1.7877    2.6885    2.6055 H   0  0  0  0  0  0  0  0  0  0  0  0
    3.3237    1.9318    3.1990 H   0  0  0  0  0  0  0  0  0  0  0  0
    3.3485    3.3637    2.1591 H   0  0  0  0  0  0  0  0  0  0  0  0
    2.6058   -0.6592    6.6623 H   0  0  0  0  0  0  0  0  0  0  0  0
    2.0978    0.4224    8.4546 H   0  0  0  0  0  0  0  0  0  0  0  0
    0.5950   -0.7838    9.4867 H   0  0  0  0  0  0  0  0  0  0  0  0
   -0.5601   -0.7070    8.2257 H   0  0  0  0  0  0  0  0  0  0  0  0
    2.0226   -2.2413    7.9887 H   0  0  0  0  0  0  0  0  0  0  0  0
    0.6716   -2.9098    8.7726 H   0  0  0  0  0  0  0  0  0  0  0  0
   -1.3752   -3.9370    6.0808 H   0  0  0  0  0  0  0  0  0  0  0  0
   -1.7670   -2.8698    7.3098 H   0  0  0  0  0  0  0  0  0  0  0  0
   -0.7903   -4.3211    7.6632 H   0  0  0  0  0  0  0  0  0  0  0  0
    1.6525   -4.3518    6.7421 H   0  0  0  0  0  0  0  0  0  0  0  0
    0.6610   -4.4111    5.2955 H   0  0  0  0  0  0  0  0  0  0  0  0
    2.9841   -2.7084    6.1076 H   0  0  0  0  0  0  0  0  0  0  0  0
    2.8521   -3.7962    4.7061 H   0  0  0  0  0  0  0  0  0  0  0  0
    3.7314   -0.6400    3.8913 H   0  0  0  0  0  0  0  0  0  0  0  0
    1.6482   -0.9027    1.6525 H   0  0  0  0  0  0  0  0  0  0  0  0
    2.8383    0.4465    1.9643 H   0  0  0  0  0  0  0  0  0  0  0  0
    3.7396   -0.5636    0.0771 H   0  0  0  0  0  0  0  0  0  0  0  0
    2.1617   -2.6844    0.1019 H   0  0  0  0  0  0  0  0  0  0  0  0
    6.2923   -3.1181    5.1302 H   0  0  0  0  0  0  0  0  0  0  0  0
    4.7895   -2.3038    5.5529 H   0  0  0  0  0  0  0  0  0  0  0  0
    5.8660   -1.4900    4.5354 H   0  0  0  0  0  0  0  0  0  0  0  0
    6.6446   -1.0267    2.6995 H   0  0  0  0  0  0  0  0  0  0  0  0
    5.3698    0.2103    2.6153 H   0  0  0  0  0  0  0  0  0  0  0  0
    6.4025   -0.2512    1.2081 H   0  0  0  0  0  0  0  0  0  0  0  0
    6.1210   -2.0658   -0.1150 H   0  0  0  0  0  0  0  0  0  0  0  0
    6.1141   -3.4268    1.0117 H   0  0  0  0  0  0  0  0  0  0  0  0
    4.2799   -2.6791   -1.2232 H   0  0  0  0  0  0  0  0  0  0  0  0
    3.6940   -4.7668   -1.1108 H   0  0  0  0  0  0  0  0  0  0  0  0
   -0.8303   -0.9468    5.9933 H   0  0  0  0  0  0  0  0  0  0  0  0
    0.5247    0.0806    3.1516 H   0  0  0  0  0  0  0  0  0  0  0  0
    1.1380    1.3269    4.2132 H   0  0  0  0  0  0  0  0  0  0  0  0
   -0.4919    0.6338    4.4131 H   0  0  0  0  0  0  0  0  0  0  0  0
    0.5158    1.5789   10.1386 H   0  0  0  0  0  0  0  0  0  0  0  0
    0.6622    3.8752    8.3392 H   0  0  0  0  0  0  0  0  0  0  0  0
    3.1422    2.1668    8.1021 H   0  0  0  0  0  0  0  0  0  0  0  0
    4.6279    4.8435    6.5122 H   0  0  0  0  0  0  0  0  0  0  0  0
   -0.6168    1.4090    6.2520 H   0  0  0  0  0  0  0  0  0  0  0  0
   -3.9956    2.1915    7.6686 H   0  0  0  0  0  0  0  0  0  0  0  0
   -3.1199    2.5402    6.1645 H   0  0  0  0  0  0  0  0  0  0  0  0
   -2.8796    3.4526    7.6930 H   0  0  0  0  0  0  0  0  0  0  0  0
    0.7777    2.8378    5.5391 H   0  0  0  0  0  0  0  0  0  0  0  0
   -2.3416    3.9371    3.3086 H   0  0  0  0  0  0  0  0  0  0  0  0
   -1.3580    5.3018    3.7789 H   0  0  0  0  0  0  0  0  0  0  0  0
   -2.3620    4.4742    4.9809 H   0  0  0  0  0  0  0  0  0  0  0  0
  1  2  2  0
  1 54  1  0
  1 55  1  0
  2 45  1  0
  2  3  1  0
  3 51  1  0
  3  4  1  1
  3  5  1  0
  4 56  1  0
  5  6  1  0
  6  7  2  0
  6  8  1  0
  8 11  1  0
  8  9  1  6
  8 10  1  0
  9 57  1  0
  9 58  1  0
  9 59  1  0
 11 10  1  6
 11 45  1  0
 12 11  1  1
 12 13  2  0
 12 14  1  0
 14 39  1  0
 14 15  1  0
 14 60  1  1
 15 16  1  0
 15 41  1  0
 15 61  1  1
 16 17  1  0
 16 62  1  0
 16 63  1  0
 17 18  1  0
 17 64  1  0
 17 65  1  0
 18 38  1  0
 18 19  1  1
 18 20  1  0
 19 66  1  0
 19 67  1  0
 19 68  1  0
 20 21  1  0
 20 69  1  0
 20 70  1  0
 21 22  1  0
 21 71  1  0
 21 72  1  0
 22 39  1  0
 22 23  1  0
 22 36  1  6
 23 28  1  0
 23 24  1  0
 23 73  1  1
 24 25  1  0
 24 74  1  0
 24 75  1  0
 25 31  1  0
 25 26  1  0
 25 76  1  6
 26 34  1  0
 26 27  1  0
 26 77  1  6
 27 28  1  0
 28 29  1  1
 28 31  1  0
 29 30  1  0
 30 78  1  0
 30 79  1  0
 30 80  1  0
 31 32  1  1
 31 33  1  0
 32 81  1  0
 32 82  1  0
 32 83  1  0
 33 34  1  0
 33 84  1  0
 33 85  1  0
 34 35  1  0
 34 86  1  6
 35 87  1  0
 36 37  1  0
 37 38  1  0
 38 39  1  0
 38 88  1  1
 39 40  1  6
 40 89  1  0
 40 90  1  0
 40 91  1  0
 41 42  1  1
 41 43  1  0
 41 47  1  0
 42 92  1  0
 43 44  2  3
 43 93  1  0
 44 45  1  0
 44 94  1  0
 45 46  1  1
 46 95  1  0
 47 48  1  0
 47 50  1  0
 47 96  1  6
 48 49  1  0
 49 97  1  0
 49 98  1  0
 49 99  1  0
 50 51  1  0
 51 52  1  0
 51100  1  6
 52 53  1  0
 53101  1  0
 53102  1  0
 53103  1  0
M  END
>  <i_m_ct_stereo_status>  (42) 
1

>  <s_m_source_file>  (42) 
/var/tmp/pbs.5075288.sched01/tmp228mwnki/64h1usuhcs.sdf

>  <i_m_source_file_index>  (42) 
5

>  <i_lp_mmshare_version>  (42) 
48012

>  <i_f3d_flags>  (42) 
0

>  <s_epik_input>  (42) 
W0NIM11bQ0BdKE8xKShDMTIzKUMoPU8pT1tDQF00KFtPSF0pQyg9W0NIMl0pW0NAQF0zKFtPSF0pL1tDSF09W0NIXVxbQ0BAXShbT0hdKShbQ0BASF0oT1tDSDNdKU9bQ0BIXTRPW0NIM10pW0NAQEhdNVtDQEhdKFtTK10yW08tXSlbQ0BAXTYoW0NIM10pW0NAXTcoW0NIMl1bQ0gyXVtDQEBdKFtDSDNdKShbQ0gyXVtDSDJdNSlbQ0BASF02T083KVtDQEBIXThbQ0gyXVtDQEhdKFtDQEhdKE85KVtDQEBIXShbQ0gyXTEpW09IXSlbQ0BAXTEoW0NIM10pW0NAQF04OU9bQ0gzXQ==

>  <s_epik_cmdline>  (42) 
J2VwaWtfcHl0aG9uJywgJy1waHQnLCAnMi4wJywgJy1waCcsICc3LjAnLCAnLXRuJywgJzgnLCAnLW1hJywgJzIwMCcsICctaW1hZScsICc8aW5maWxlLm1hZT4nLCAnLW9tYWUnLCAnPG91dGZpbGUubWFlPic=

>  <r_epik_Ionization_Penalty>  (42) 
0.00583982

>  <r_epik_Ionization_Penalty_Charging>  (42) 
0

>  <r_epik_Ionization_Penalty_Neutral>  (42) 
0.00583982

>  <r_epik_State_Penalty>  (42) 
0.00424056

>  <r_epik_Charging_Adjusted_Penalty>  (42) 
0.00424056

>  <i_epik_Tot_Q>  (42) 
0

>  <i_epik_Tot_abs_Q>  (42) 
2

>  <s_epik_Chemistry_Notes>  (42) 
This compound has an ester and may undergo hydrolysis at high or low pH. This compound contains an acetal/aminal-like group ( X-CH(R)-Y where X, Y are N, S, or O) that may be acid/base labile, releasing an aldehyde.

>  <s_lp_Force_Field>  (42) 
OPLS3e

>  <r_lp_Energy>  (42) 
213.286

>  <b_lp_Chiralities_Consistent>  (42) 
1

>  <s_lp_Variant>  (42) 
27:0-2

>  <s_i_glide_gridfile>  (42) 
pfpi4k_grid

>  <i_i_glide_lignum>  (42) 
5

>  <i_i_glide_rotatable_bonds>  (42) 
8

>  <r_i_docking_score>  (42) 
-1.67564

>  <r_i_glide_ligand_efficiency>  (42) 
-0.0316159

>  <r_i_glide_ligand_efficiency_sa>  (42) 
-0.118758

>  <r_i_glide_ligand_efficiency_ln>  (42) 
-0.337131

>  <r_i_glide_gscore>  (42) 
-1.67564

>  <r_i_glide_lipo>  (42) 
-0.328968

>  <r_i_glide_hbond>  (42) 
-0.0499786

>  <r_i_glide_metal>  (42) 
-0

>  <r_i_glide_rewards>  (42) 
-0.00014334

>  <r_i_glide_evdw>  (42) 
-26.4736

>  <r_i_glide_ecoul>  (42) 
-1.10474

>  <r_i_glide_erotb>  (42) 
0.0368563

>  <r_i_glide_esite>  (42) 
-0.0409011

>  <r_i_glide_emodel>  (42) 
-21.7661

>  <r_i_glide_energy>  (42) 
-27.5783

>  <r_i_glide_einternal>  (42) 
9.88111

>  <r_i_glide_intrahb_reward>  (42) 
-0

>  <i_i_glide_confnum>  (42) 
1

>  <i_i_glide_posenum>  (42) 
9

>  <r_i_glide_eff_state_penalty>  (42) 
0

>  <ligand_id>  (42) 
27

>  <original_smiles>  (42) 
C=C1C2(O)OC(=O)C3(C)OC34[S+]([O-])C3C(CCC5(C)CCC6(C7CC8C9OC7(OC)C8(C)CC9O)OOC5C36C)C(O)(C=CC14O)C(OC)OC2OC

>  <smiles>  (42) 
[H]OC12OC(=O)C3(C([H])([H])[H])OC34S(=O)C3([H])C([H])(C([H])([H])C([H])([H])C5(C([H])([H])[H])C([H])([H])C([H])([H])C6(C7([H])C([H])([H])C8([H])C9([H])OC7(OC([H])([H])[H])C8(C([H])([H])[H])C([H])([H])C9([H])O[H])OOC5([H])C36C([H])([H])[H])C(O[H])(C([H])=C([H])C4(O[H])C1=C([H])[H])C([H])(OC([H])([H])[H])OC2([H])OC([H])([H])[H]

$$$$
27:1:2
     RDKit          3D

103112  0  0  1  0  0  0  0  0999 V2000
    3.7887    3.1191    4.5363 C   0  0  0  0  0  0  0  0  0  0  0  0
    3.2676    1.8719    4.4442 C   0  0  0  0  0  0  0  0  0  0  0  0
    1.9528    1.6211    3.6295 C   0  0  1  0  0  0  0  0  0  0  0  0
    1.2519    2.8626    3.5762 O   0  0  0  0  0  0  0  0  0  0  0  0
    2.2460    1.2925    2.3015 O   0  0  0  0  0  0  0  0  0  0  0  0
    3.2205    0.3998    1.9843 C   0  0  0  0  0  0  0  0  0  0  0  0
    3.8436    0.4190    0.9445 O   0  0  0  0  0  0  0  0  0  0  0  0
    3.4354   -0.7771    2.9238 C   0  0  1  0  0  0  0  0  0  0  0  0
    3.0648   -2.0186    2.2433 C   0  0  0  0  0  0  0  0  0  0  0  0
    4.7986   -0.7648    3.3473 O   0  0  0  0  0  0  0  0  0  0  0  0
    3.8408   -0.6074    4.4245 C   0  0  2  0  0  0  0  0  0  0  0  0
    3.6556   -2.2254    5.4811 S   0  0  0  0  0  0  0  0  0  0  0  0
    4.8950   -2.3852    6.3627 O   0  0  0  0  0  0  0  0  0  0  0  0
    2.1194   -2.5293    6.5851 C   0  0  1  0  0  0  0  0  0  0  0  0
    1.7316   -1.4459    7.7306 C   0  0  2  0  0  0  0  0  0  0  0  0
    0.8386   -1.9949    8.8856 C   0  0  0  0  0  0  0  0  0  0  0  0
    0.9177   -3.4840    9.1841 C   0  0  0  0  0  0  0  0  0  0  0  0
   -0.0092   -4.3509    8.2912 C   0  0  2  0  0  0  0  0  0  0  0  0
   -1.3751   -4.4916    8.9834 C   0  0  0  0  0  0  0  0  0  0  0  0
    0.5606   -5.7599    8.1904 C   0  0  0  0  0  0  0  0  0  0  0  0
    1.6973   -5.7785    7.1722 C   0  0  0  0  0  0  0  0  0  0  0  0
    1.4225   -5.1015    5.7776 C   0  0  1  0  0  0  0  0  0  0  0  0
    2.4982   -5.4977    4.6261 C   0  0  2  0  0  0  0  0  0  0  0  0
    2.0956   -5.2505    3.1538 C   0  0  0  0  0  0  0  0  0  0  0  0
    2.5902   -6.4584    2.3795 C   0  0  2  0  0  0  0  0  0  0  0  0
    1.6408   -7.6433    2.6629 C   0  0  2  0  0  0  0  0  0  0  0  0
    1.7292   -7.7041    4.1040 O   0  0  0  0  0  0  0  0  0  0  0  0
    2.9174   -7.0221    4.4814 C   0  0  2  0  0  0  0  0  0  0  0  0
    3.6434   -7.5960    5.5567 O   0  0  0  0  0  0  0  0  0  0  0  0
    4.5851   -6.8386    6.3171 C   0  0  0  0  0  0  0  0  0  0  0  0
    3.7344   -7.0852    3.1441 C   0  0  2  0  0  0  0  0  0  0  0  0
    5.0923   -6.3187    3.1237 C   0  0  0  0  0  0  0  0  0  0  0  0
    3.8454   -8.5100    2.5580 C   0  0  0  0  0  0  0  0  0  0  0  0
    2.4279   -8.8071    2.0661 C   0  0  1  0  0  0  0  0  0  0  0  0
    1.9089  -10.0439    2.4971 O   0  0  0  0  0  0  0  0  0  0  0  0
    0.1560   -5.6241    5.4082 O   0  0  0  0  0  0  0  0  0  0  0  0
   -0.8970   -4.8000    6.1266 O   0  0  0  0  0  0  0  0  0  0  0  0
   -0.2079   -3.7906    6.8378 C   0  0  2  0  0  0  0  0  0  0  0  0
    1.0455   -3.5534    5.9428 C   0  0  1  0  0  0  0  0  0  0  0  0
    0.5248   -2.9329    4.6153 C   0  0  0  0  0  0  0  0  0  0  0  0
    1.2777    0.0707    7.4518 C   0  0  1  0  0  0  0  0  0  0  0  0
    0.8876    0.6738    8.6775 O   0  0  0  0  0  0  0  0  0  0  0  0
    2.3708    0.9876    6.9622 C   0  0  0  0  0  0  0  0  0  0  0  0
    3.5547    0.5306    6.5734 C   0  0  0  0  0  0  0  0  0  0  0  0
    4.0157    0.6913    5.1481 C   0  0  2  0  0  0  0  0  0  0  0  0
    5.4294    0.9220    5.2050 O   0  0  0  0  0  0  0  0  0  0  0  0
    0.0879    0.1094    6.4116 C   0  0  1  0  0  0  0  0  0  0  0  0
   -1.1062    0.3148    7.0934 O   0  0  0  0  0  0  0  0  0  0  0  0
   -2.2269    0.4993    6.2513 C   0  0  0  0  0  0  0  0  0  0  0  0
    0.2867    1.0719    5.3907 O   0  0  0  0  0  0  0  0  0  0  0  0
    0.9294    0.5792    4.2519 C   0  0  1  0  0  0  0  0  0  0  0  0
    0.0317    0.0512    3.3095 O   0  0  0  0  0  0  0  0  0  0  0  0
   -0.8670    0.9612    2.6853 C   0  0  0  0  0  0  0  0  0  0  0  0
    4.6852    3.3003    5.0890 H   0  0  0  0  0  0  0  0  0  0  0  0
    3.3381    3.9542    4.0363 H   0  0  0  0  0  0  0  0  0  0  0  0
    0.9790    2.9989    2.6827 H   0  0  0  0  0  0  0  0  0  0  0  0
    1.9940   -2.0858    2.0545 H   0  0  0  0  0  0  0  0  0  0  0  0
    3.3926   -2.7776    2.9336 H   0  0  0  0  0  0  0  0  0  0  0  0
    3.6044   -2.1917    1.3032 H   0  0  0  0  0  0  0  0  0  0  0  0
    2.6595   -3.2283    7.2260 H   0  0  0  0  0  0  0  0  0  0  0  0
    2.6764   -1.3452    8.2714 H   0  0  0  0  0  0  0  0  0  0  0  0
    1.1194   -1.4915    9.8102 H   0  0  0  0  0  0  0  0  0  0  0  0
   -0.1966   -1.7118    8.7204 H   0  0  0  0  0  0  0  0  0  0  0  0
    1.9608   -3.7974    9.1716 H   0  0  0  0  0  0  0  0  0  0  0  0
    0.6386   -3.6376   10.2299 H   0  0  0  0  0  0  0  0  0  0  0  0
   -2.0330   -5.1386    8.4060 H   0  0  0  0  0  0  0  0  0  0  0  0
   -1.8757   -3.5374    9.1043 H   0  0  0  0  0  0  0  0  0  0  0  0
   -1.2740   -4.9414    9.9754 H   0  0  0  0  0  0  0  0  0  0  0  0
    0.9808   -6.0543    9.1527 H   0  0  0  0  0  0  0  0  0  0  0  0
   -0.1964   -6.5155    7.9389 H   0  0  0  0  0  0  0  0  0  0  0  0
    2.5202   -5.2968    7.6997 H   0  0  0  0  0  0  0  0  0  0  0  0
    1.9201   -6.8357    7.0645 H   0  0  0  0  0  0  0  0  0  0  0  0
    3.3806   -4.9309    4.8651 H   0  0  0  0  0  0  0  0  0  0  0  0
    1.0180   -5.2434    2.9242 H   0  0  0  0  0  0  0  0  0  0  0  0
    2.6667   -4.4449    2.6834 H   0  0  0  0  0  0  0  0  0  0  0  0
    2.8014   -6.2716    1.3478 H   0  0  0  0  0  0  0  0  0  0  0  0
    0.6460   -7.4996    2.2441 H   0  0  0  0  0  0  0  0  0  0  0  0
    5.1975   -7.5428    6.8837 H   0  0  0  0  0  0  0  0  0  0  0  0
    4.1500   -6.1495    7.0174 H   0  0  0  0  0  0  0  0  0  0  0  0
    5.2040   -6.1800    5.7116 H   0  0  0  0  0  0  0  0  0  0  0  0
    5.7882   -6.7238    3.8694 H   0  0  0  0  0  0  0  0  0  0  0  0
    4.9871   -5.2448    3.2813 H   0  0  0  0  0  0  0  0  0  0  0  0
    5.6282   -6.4793    2.1881 H   0  0  0  0  0  0  0  0  0  0  0  0
    4.4925   -8.4711    1.6821 H   0  0  0  0  0  0  0  0  0  0  0  0
    4.2477   -9.2408    3.2656 H   0  0  0  0  0  0  0  0  0  0  0  0
    2.3761   -8.7634    0.9758 H   0  0  0  0  0  0  0  0  0  0  0  0
    2.4294  -10.7174    2.0887 H   0  0  0  0  0  0  0  0  0  0  0  0
   -0.8291   -2.9025    6.8770 H   0  0  0  0  0  0  0  0  0  0  0  0
    0.2324   -3.6824    3.8839 H   0  0  0  0  0  0  0  0  0  0  0  0
    1.2853   -2.3134    4.1557 H   0  0  0  0  0  0  0  0  0  0  0  0
   -0.3944   -2.3571    4.7283 H   0  0  0  0  0  0  0  0  0  0  0  0
    1.6235    0.7083    9.2517 H   0  0  0  0  0  0  0  0  0  0  0  0
    1.9923    1.8916    6.5139 H   0  0  0  0  0  0  0  0  0  0  0  0
    3.9994   -0.3071    7.0732 H   0  0  0  0  0  0  0  0  0  0  0  0
    5.7960    0.5165    4.4398 H   0  0  0  0  0  0  0  0  0  0  0  0
   -0.0558   -0.8513    5.9598 H   0  0  0  0  0  0  0  0  0  0  0  0
   -3.1105    0.6015    6.8736 H   0  0  0  0  0  0  0  0  0  0  0  0
   -2.3919   -0.3441    5.5824 H   0  0  0  0  0  0  0  0  0  0  0  0
   -2.1542    1.4143    5.6684 H   0  0  0  0  0  0  0  0  0  0  0  0
    1.4652   -0.2990    4.5736 H   0  0  0  0  0  0  0  0  0  0  0  0
   -1.6727    0.4152    2.1982 H   0  0  0  0  0  0  0  0  0  0  0  0
   -0.3811    1.5414    1.8998 H   0  0  0  0  0  0  0  0  0  0  0  0
   -1.3294    1.6426    3.3976 H   0  0  0  0  0  0  0  0  0  0  0  0
  1  2  2  0
  1 54  1  0
  1 55  1  0
  2 45  1  0
  2  3  1  0
  3 51  1  0
  3  4  1  6
  3  5  1  0
  4 56  1  0
  5  6  1  0
  6  7  2  0
  6  8  1  0
  8 11  1  0
  8  9  1  1
  8 10  1  0
  9 57  1  0
  9 58  1  0
  9 59  1  0
 11 10  1  6
 11 45  1  0
 12 11  1  1
 12 13  2  0
 12 14  1  0
 14 39  1  0
 14 15  1  0
 14 60  1  1
 15 16  1  0
 15 41  1  0
 15 61  1  1
 16 17  1  0
 16 62  1  0
 16 63  1  0
 17 18  1  0
 17 64  1  0
 17 65  1  0
 18 38  1  0
 18 19  1  1
 18 20  1  0
 19 66  1  0
 19 67  1  0
 19 68  1  0
 20 21  1  0
 20 69  1  0
 20 70  1  0
 21 22  1  0
 21 71  1  0
 21 72  1  0
 22 39  1  0
 22 23  1  0
 22 36  1  6
 23 28  1  0
 23 24  1  0
 23 73  1  1
 24 25  1  0
 24 74  1  0
 24 75  1  0
 25 31  1  0
 25 26  1  0
 25 76  1  6
 26 34  1  0
 26 27  1  0
 26 77  1  1
 27 28  1  0
 28 29  1  1
 28 31  1  0
 29 30  1  0
 30 78  1  0
 30 79  1  0
 30 80  1  0
 31 32  1  1
 31 33  1  0
 32 81  1  0
 32 82  1  0
 32 83  1  0
 33 34  1  0
 33 84  1  0
 33 85  1  0
 34 35  1  0
 34 86  1  6
 35 87  1  0
 36 37  1  0
 37 38  1  0
 38 39  1  0
 38 88  1  1
 39 40  1  6
 40 89  1  0
 40 90  1  0
 40 91  1  0
 41 42  1  1
 41 43  1  0
 41 47  1  0
 42 92  1  0
 43 44  2  3
 43 93  1  0
 44 45  1  0
 44 94  1  0
 45 46  1  1
 46 95  1  0
 47 48  1  0
 47 50  1  0
 47 96  1  6
 48 49  1  0
 49 97  1  0
 49 98  1  0
 49 99  1  0
 50 51  1  0
 51 52  1  0
 51100  1  1
 52 53  1  0
 53101  1  0
 53102  1  0
 53103  1  0
M  END
>  <i_m_ct_stereo_status>  (43) 
1

>  <s_m_source_file>  (43) 
/var/tmp/pbs.5075288.sched01/tmp228mwnki/64h1usuhcs.sdf

>  <i_m_source_file_index>  (43) 
5

>  <i_lp_mmshare_version>  (43) 
48012

>  <i_f3d_flags>  (43) 
0

>  <s_epik_input>  (43) 
W0NIM11bQ0BdKE8xKShDMTIzKUMoPU8pT1tDQF00KFtPSF0pQyg9W0NIMl0pW0NAQF0zKFtPSF0pL1tDSF09W0NIXVxbQ0BAXShbT0hdKShbQ0BASF0oT1tDSDNdKU9bQ0BIXTRPW0NIM10pW0NAQEhdNVtDQEhdKFtTK10yW08tXSlbQ0BAXTYoW0NIM10pW0NAXTcoW0NIMl1bQ0gyXVtDQEBdKFtDSDNdKShbQ0gyXVtDSDJdNSlbQ0BASF02T083KVtDQEBIXThbQ0gyXVtDQEhdKFtDQEhdKE85KVtDQEBIXShbQ0gyXTEpW09IXSlbQ0BAXTEoW0NIM10pW0NAQF04OU9bQ0gzXQ==

>  <s_epik_cmdline>  (43) 
J2VwaWtfcHl0aG9uJywgJy1waHQnLCAnMi4wJywgJy1waCcsICc3LjAnLCAnLXRuJywgJzgnLCAnLW1hJywgJzIwMCcsICctaW1hZScsICc8aW5maWxlLm1hZT4nLCAnLW9tYWUnLCAnPG91dGZpbGUubWFlPic=

>  <r_epik_Ionization_Penalty>  (43) 
0.00583982

>  <r_epik_Ionization_Penalty_Charging>  (43) 
0

>  <r_epik_Ionization_Penalty_Neutral>  (43) 
0.00583982

>  <r_epik_State_Penalty>  (43) 
0.00424056

>  <r_epik_Charging_Adjusted_Penalty>  (43) 
0.00424056

>  <i_epik_Tot_Q>  (43) 
0

>  <i_epik_Tot_abs_Q>  (43) 
2

>  <s_epik_Chemistry_Notes>  (43) 
This compound has an ester and may undergo hydrolysis at high or low pH. This compound contains an acetal/aminal-like group ( X-CH(R)-Y where X, Y are N, S, or O) that may be acid/base labile, releasing an aldehyde.

>  <s_lp_Force_Field>  (43) 
OPLS3e

>  <r_lp_Energy>  (43) 
213.286

>  <b_lp_Chiralities_Consistent>  (43) 
1

>  <s_lp_Variant>  (43) 
27:0-2

>  <s_i_glide_gridfile>  (43) 
pfpi4k_grid

>  <i_i_glide_lignum>  (43) 
5

>  <i_i_glide_rotatable_bonds>  (43) 
8

>  <r_i_docking_score>  (43) 
-1.45962

>  <r_i_glide_ligand_efficiency>  (43) 
-0.02754

>  <r_i_glide_ligand_efficiency_sa>  (43) 
-0.103448

>  <r_i_glide_ligand_efficiency_ln>  (43) 
-0.293668

>  <r_i_glide_gscore>  (43) 
-1.45962

>  <r_i_glide_lipo>  (43) 
-0.02726

>  <r_i_glide_hbond>  (43) 
-0.130335

>  <r_i_glide_metal>  (43) 
-0

>  <r_i_glide_rewards>  (43) 
-0.111077

>  <r_i_glide_evdw>  (43) 
-27.2757

>  <r_i_glide_ecoul>  (43) 
-2.93239

>  <r_i_glide_erotb>  (43) 
0.0368563

>  <r_i_glide_esite>  (43) 
-0.0353714

>  <r_i_glide_emodel>  (43) 
-24.4421

>  <r_i_glide_energy>  (43) 
-30.2081

>  <r_i_glide_einternal>  (43) 
7.30358

>  <r_i_glide_intrahb_reward>  (43) 
-0

>  <i_i_glide_confnum>  (43) 
2

>  <i_i_glide_posenum>  (43) 
3

>  <r_i_glide_eff_state_penalty>  (43) 
0

>  <ligand_id>  (43) 
27

>  <original_smiles>  (43) 
C=C1C2(O)OC(=O)C3(C)OC34[S+]([O-])C3C(CCC5(C)CCC6(C7CC8C9OC7(OC)C8(C)CC9O)OOC5C36C)C(O)(C=CC14O)C(OC)OC2OC

>  <smiles>  (43) 
[H]OC12OC(=O)C3(C([H])([H])[H])OC34S(=O)C3([H])C([H])(C([H])([H])C([H])([H])C5(C([H])([H])[H])C([H])([H])C([H])([H])C6(C7([H])C([H])([H])C8([H])C9([H])OC7(OC([H])([H])[H])C8(C([H])([H])[H])C([H])([H])C9([H])O[H])OOC5([H])C36C([H])([H])[H])C(O[H])(C([H])=C([H])C4(O[H])C1=C([H])[H])C([H])(OC([H])([H])[H])OC2([H])OC([H])([H])[H]

$$$$
28:0:0
     RDKit          3D

 94101  0  0  1  0  0  0  0  0999 V2000
    3.0695   -3.0489   -1.1202 C   0  0  0  0  0  0  0  0  0  0  0  0
    3.9180   -3.4509   -0.1625 C   0  0  0  0  0  0  0  0  0  0  0  0
    3.5880   -3.6005    1.3195 C   0  0  1  0  0  0  0  0  0  0  0  0
    3.4975   -5.1157    1.6061 C   0  0  0  0  0  0  0  0  0  0  0  0
    4.6108   -2.8775    2.2113 C   0  0  0  0  0  0  0  0  0  0  0  0
    3.8366   -2.4738    3.5088 C   0  0  2  0  0  0  0  0  0  0  0  0
    4.3787   -3.5198    4.3186 O   0  0  0  0  0  0  0  0  0  0  0  0
    2.3004   -2.6637    3.0444 C   0  0  2  0  0  0  0  0  0  0  0  0
    1.5856   -3.7482    3.5963 O   0  0  0  0  0  0  0  0  0  0  0  0
    2.3749   -2.9306    1.6721 O   0  0  0  0  0  0  0  0  0  0  0  0
    1.5489   -1.2705    3.2082 C   0  0  2  0  0  0  0  0  0  0  0  0
    2.9456   -0.2720    2.5743 S   0  0  0  0  0  0  0  0  0  0  0  0
    3.3968   -0.5960    1.1356 O   0  0  0  0  0  0  0  0  0  0  0  0
    4.0067   -0.9191    3.9784 C   0  0  2  0  0  0  0  0  0  0  0  0
    5.3705   -0.5821    3.8736 O   0  0  0  0  0  0  0  0  0  0  0  0
    3.3386   -0.1004    5.3206 C   0  0  2  0  0  0  0  0  0  0  0  0
    3.9560    0.3754    6.6797 C   0  0  0  0  0  0  0  0  0  0  0  0
    3.0323    1.4398    7.5145 C   0  0  1  0  0  0  0  0  0  0  0  0
    3.6997    1.4884    8.9202 C   0  0  0  0  0  0  0  0  0  0  0  0
    3.2310    2.8138    7.2851 O   0  0  0  0  0  0  0  0  0  0  0  0
    1.4156    1.3015    7.5659 C   0  0  2  0  0  0  0  0  0  0  0  0
    1.1940    0.0614    8.3476 C   0  0  0  0  0  0  0  0  0  0  0  0
    1.5690   -1.0699    7.4553 C   0  0  1  0  0  0  0  0  0  0  0  0
    0.5524   -2.0482    7.7153 O   0  0  0  0  0  0  0  0  0  0  0  0
    2.1121   -0.9898    5.8854 C   0  0  2  0  0  0  0  0  0  0  0  0
    2.7242   -2.4288    6.1488 C   0  0  0  0  0  0  0  0  0  0  0  0
    1.0824   -0.6744    4.6875 C   0  0  2  0  0  0  0  0  0  0  0  0
    0.0163   -1.5732    4.8723 O   0  0  0  0  0  0  0  0  0  0  0  0
    0.6139    0.9813    4.8044 C   0  0  1  0  0  0  0  0  0  0  0  0
   -0.7071    1.3281    3.8826 C   0  0  1  0  0  0  0  0  0  0  0  0
   -0.6013    1.1759    2.3311 C   0  0  0  0  0  0  0  0  0  0  0  0
   -1.7617    0.3969    4.1149 O   0  0  0  0  0  0  0  0  0  0  0  0
   -1.2457    2.7894    4.1185 C   0  0  1  0  0  0  0  0  0  0  0  0
   -2.3713    3.1108    3.3204 O   0  0  0  0  0  0  0  0  0  0  0  0
   -1.4493    3.3418    5.5383 C   0  0  1  0  0  0  0  0  0  0  0  0
   -2.7383    3.0788    6.0819 O   0  0  0  0  0  0  0  0  0  0  0  0
   -2.7366    3.0678    7.4141 C   0  0  0  0  0  0  0  0  0  0  0  0
   -3.6995    2.9518    8.1566 O   0  0  0  0  0  0  0  0  0  0  0  0
   -1.3128    3.1514    7.8991 C   0  0  0  0  0  0  0  0  0  0  0  0
   -0.4455    2.9177    6.6248 C   0  0  2  0  0  0  0  0  0  0  0  0
    0.4383    3.9978    6.8349 O   0  0  0  0  0  0  0  0  0  0  0  0
    0.2452    1.4455    6.3974 C   0  0  2  0  0  0  0  0  0  0  0  0
   -1.0001    0.5703    6.8391 C   0  0  0  0  0  0  0  0  0  0  0  0
    1.8238    1.9559    4.3135 C   0  0  1  0  0  0  0  0  0  0  0  0
    1.9153    2.5692    2.8582 C   0  0  0  0  0  0  0  0  0  0  0  0
    1.8151    3.2409    4.8790 O   0  0  0  0  0  0  0  0  0  0  0  0
    3.2023    1.3969    4.7183 C   0  0  1  0  0  0  0  0  0  0  0  0
    4.2036    2.3811    4.9129 O   0  0  0  0  0  0  0  0  0  0  0  0
    2.0503   -2.7899   -0.8942 H   0  0  0  0  0  0  0  0  0  0  0  0
    3.3862   -2.9756   -2.1531 H   0  0  0  0  0  0  0  0  0  0  0  0
    4.9291   -3.6958   -0.4494 H   0  0  0  0  0  0  0  0  0  0  0  0
    4.4190   -5.6272    1.3199 H   0  0  0  0  0  0  0  0  0  0  0  0
    2.6900   -5.5733    1.0323 H   0  0  0  0  0  0  0  0  0  0  0  0
    3.3267   -5.3459    2.6558 H   0  0  0  0  0  0  0  0  0  0  0  0
    5.4983   -3.4971    2.3549 H   0  0  0  0  0  0  0  0  0  0  0  0
    5.0241   -2.0183    1.6937 H   0  0  0  0  0  0  0  0  0  0  0  0
    5.3246   -3.4182    4.3767 H   0  0  0  0  0  0  0  0  0  0  0  0
    0.6762   -3.6384    3.3574 H   0  0  0  0  0  0  0  0  0  0  0  0
    0.6980   -1.3354    2.5024 H   0  0  0  0  0  0  0  0  0  0  0  0
    5.8955   -1.3402    4.1192 H   0  0  0  0  0  0  0  0  0  0  0  0
    4.1737   -0.4834    7.3101 H   0  0  0  0  0  0  0  0  0  0  0  0
    4.9496    0.7869    6.5384 H   0  0  0  0  0  0  0  0  0  0  0  0
    3.8188    0.5031    9.3770 H   0  0  0  0  0  0  0  0  0  0  0  0
    3.1429    2.1127    9.6267 H   0  0  0  0  0  0  0  0  0  0  0  0
    4.7143    1.8965    8.8736 H   0  0  0  0  0  0  0  0  0  0  0  0
    3.0528    2.9646    6.3605 H   0  0  0  0  0  0  0  0  0  0  0  0
    1.1483    2.0584    8.3033 H   0  0  0  0  0  0  0  0  0  0  0  0
    1.7718    0.0440    9.2657 H   0  0  0  0  0  0  0  0  0  0  0  0
    0.2308   -0.0366    8.8285 H   0  0  0  0  0  0  0  0  0  0  0  0
    2.3983   -1.3724    8.1082 H   0  0  0  0  0  0  0  0  0  0  0  0
    0.8848   -2.8938    7.4365 H   0  0  0  0  0  0  0  0  0  0  0  0
    2.6105   -3.0000    7.0772 H   0  0  0  0  0  0  0  0  0  0  0  0
    3.8063   -2.3678    6.2004 H   0  0  0  0  0  0  0  0  0  0  0  0
    2.3539   -3.2265    5.5664 H   0  0  0  0  0  0  0  0  0  0  0  0
   -0.6352   -1.3584    4.2159 H   0  0  0  0  0  0  0  0  0  0  0  0
   -0.4321    2.1263    1.8276 H   0  0  0  0  0  0  0  0  0  0  0  0
   -1.5249    0.8184    1.8764 H   0  0  0  0  0  0  0  0  0  0  0  0
    0.1767    0.5241    1.9745 H   0  0  0  0  0  0  0  0  0  0  0  0
   -2.4699    0.5444    3.4808 H   0  0  0  0  0  0  0  0  0  0  0  0
   -0.5081    3.4769    3.7340 H   0  0  0  0  0  0  0  0  0  0  0  0
   -2.9802    2.3716    3.3433 H   0  0  0  0  0  0  0  0  0  0  0  0
   -1.4118    4.4291    5.4600 H   0  0  0  0  0  0  0  0  0  0  0  0
   -1.2172    4.1658    8.2925 H   0  0  0  0  0  0  0  0  0  0  0  0
   -1.1182    2.4841    8.7431 H   0  0  0  0  0  0  0  0  0  0  0  0
    1.0929    3.9274    6.1399 H   0  0  0  0  0  0  0  0  0  0  0  0
   -1.9212    0.8101    6.3353 H   0  0  0  0  0  0  0  0  0  0  0  0
   -1.3261    0.6882    7.8699 H   0  0  0  0  0  0  0  0  0  0  0  0
   -0.9045   -0.4861    6.6975 H   0  0  0  0  0  0  0  0  0  0  0  0
    1.8234    1.8952    2.0176 H   0  0  0  0  0  0  0  0  0  0  0  0
    2.8776    3.0547    2.6814 H   0  0  0  0  0  0  0  0  0  0  0  0
    1.1981    3.3620    2.6478 H   0  0  0  0  0  0  0  0  0  0  0  0
    2.4739    3.7528    4.4190 H   0  0  0  0  0  0  0  0  0  0  0  0
    3.8274    1.4399    3.8434 H   0  0  0  0  0  0  0  0  0  0  0  0
    4.5065    2.6438    4.0466 H   0  0  0  0  0  0  0  0  0  0  0  0
  1  2  2  0
  1 49  1  0
  1 50  1  0
  2  3  1  0
  2 51  1  0
  3 10  1  0
  3  4  1  1
  3  5  1  0
  4 52  1  0
  4 53  1  0
  4 54  1  0
  5  6  1  0
  5 55  1  0
  5 56  1  0
  6 14  1  0
  6  7  1  1
  6  8  1  0
  7 57  1  0
  8  9  1  1
  8 10  1  0
  8 11  1  0
  9 58  1  0
 11 27  1  0
 11 12  1  0
 11 59  1  6
 12 13  2  0
 12 14  1  1
 14 15  1  6
 14 16  1  0
 15 60  1  0
 16 25  1  0
 16 47  1  0
 16 17  1  1
 17 18  1  0
 17 61  1  0
 17 62  1  0
 18 19  1  0
 18 20  1  6
 18 21  1  0
 19 63  1  0
 19 64  1  0
 19 65  1  0
 20 66  1  0
 21 42  1  0
 21 22  1  0
 21 67  1  1
 22 23  1  0
 22 68  1  0
 22 69  1  0
 23 24  1  0
 23 25  1  0
 23 70  1  1
 24 71  1  0
 25 26  1  6
 25 27  1  0
 26 72  1  0
 26 73  1  0
 26 74  1  0
 27 28  1  1
 27 29  1  0
 28 75  1  0
 29 42  1  0
 29 30  1  6
 29 44  1  0
 30 31  1  0
 30 32  1  1
 30 33  1  0
 31 76  1  0
 31 77  1  0
 31 78  1  0
 32 79  1  0
 33 34  1  0
 33 35  1  0
 33 80  1  6
 34 81  1  0
 35 40  1  0
 35 36  1  0
 35 82  1  6
 36 37  1  0
 37 38  2  0
 37 39  1  0
 39 40  1  0
 39 83  1  0
 39 84  1  0
 40 41  1  1
 40 42  1  0
 41 85  1  0
 42 43  1  1
 43 86  1  0
 43 87  1  0
 43 88  1  0
 44 45  1  0
 44 46  1  1
 44 47  1  0
 45 89  1  0
 45 90  1  0
 45 91  1  0
 46 92  1  0
 47 48  1  0
 47 93  1  6
 48 94  1  0
M  END
>  <i_m_ct_stereo_status>  (44) 
1

>  <s_m_source_file>  (44) 
/var/tmp/pbs.5075288.sched01/tmp228mwnki/64h1usuhcs.sdf

>  <i_m_source_file_index>  (44) 
6

>  <i_lp_mmshare_version>  (44) 
48012

>  <i_f3d_flags>  (44) 
0

>  <s_epik_input>  (44) 
W0NIMl09W0NIXVtDQEBdKFtDSDNdKShbQ0gyXTEpT1tDQEBdKFtPSF0pKFtDQF0xKFtPSF0pW0NAQF0yKFtDQF0zNDUpW09IXSlbQ0BIXShbUytdMltPLV0pW0NAXTYoW09IXSlbQ0BdNyhbQ0BAXShbQ0gzXSkoW09IXSlbQ0BIXTVbT0hdKVtDQEBdKFtDSDNdKShbQ0BIXShbQ0BdKFtDSDJdMykoW0NIM10pW09IXSlbQ0gyXVtDQEBIXShbT0hdKVtDQF00NltDSDNdKVtDQEBdOChbT0hdKVtDQEBIXShbQ0BIXShbT0hdKVtDQF03KFtDSDNdKVtPSF0pT0MoPU8pW0NIMl04

>  <s_epik_cmdline>  (44) 
J2VwaWtfcHl0aG9uJywgJy1waHQnLCAnMi4wJywgJy1waCcsICc3LjAnLCAnLXRuJywgJzgnLCAnLW1hJywgJzIwMCcsICctaW1hZScsICc8aW5maWxlLm1hZT4nLCAnLW9tYWUnLCAnPG91dGZpbGUubWFlPic=

>  <r_lp_tautomer_probability>  (44) 
1

>  <r_epik_Ionization_Penalty>  (44) 
3.5903e-06

>  <r_epik_Ionization_Penalty_Charging>  (44) 
0

>  <r_epik_Ionization_Penalty_Neutral>  (44) 
3.5903e-06

>  <r_epik_State_Penalty>  (44) 
-0

>  <r_epik_Charging_Adjusted_Penalty>  (44) 
0

>  <i_epik_Tot_Q>  (44) 
0

>  <i_epik_Tot_abs_Q>  (44) 
2

>  <s_epik_Chemistry_Notes>  (44) 
This compound has an ester and may undergo hydrolysis at high or low pH.

>  <s_lp_Force_Field>  (44) 
OPLS3e

>  <r_lp_Energy>  (44) 
401.03

>  <b_lp_Chiralities_Consistent>  (44) 
1

>  <s_lp_Variant>  (44) 
28:0-1

>  <s_i_glide_gridfile>  (44) 
pfpi4k_grid

>  <i_i_glide_lignum>  (44) 
6

>  <i_i_glide_rotatable_bonds>  (44) 
12

>  <r_i_docking_score>  (44) 
-5.49452

>  <r_i_glide_ligand_efficiency>  (44) 
-0.114469

>  <r_i_glide_ligand_efficiency_sa>  (44) 
-0.416008

>  <r_i_glide_ligand_efficiency_ln>  (44) 
-1.12796

>  <r_i_glide_gscore>  (44) 
-5.49452

>  <r_i_glide_lipo>  (44) 
-0.0721512

>  <r_i_glide_hbond>  (44) 
0

>  <r_i_glide_metal>  (44) 
-0

>  <r_i_glide_rewards>  (44) 
-1.71216

>  <r_i_glide_evdw>  (44) 
-39.5189

>  <r_i_glide_ecoul>  (44) 
-11.7971

>  <r_i_glide_erotb>  (44) 
0.0434278

>  <r_i_glide_esite>  (44) 
-0.0081175

>  <r_i_glide_emodel>  (44) 
-82.646

>  <r_i_glide_energy>  (44) 
-51.3161

>  <r_i_glide_einternal>  (44) 
2.10011

>  <r_i_glide_intrahb_reward>  (44) 
-1.5

>  <i_i_glide_confnum>  (44) 
5

>  <i_i_glide_posenum>  (44) 
13

>  <r_i_glide_eff_state_penalty>  (44) 
0

>  <ligand_id>  (44) 
28

>  <original_smiles>  (44) 
C=CC1(C)CC2(O)C(O)(O1)C1[S+]([O-])C2(O)C23CC(C)(O)C4CC(O)C2(C)C1(O)C1(C(C)(O)C(O)C2OC(=O)CC2(O)C41C)C(C)(O)C3O

>  <smiles>  (44) 
[H]OC1([H])C2([H])OC(=O)C([H])([H])C2(O[H])C2(C([H])([H])[H])C3([H])C([H])([H])C([H])(O[H])C4(C([H])([H])[H])C5(O[H])C6([H])S(=O)C(O[H])(C7(O[H])C([H])([H])C(C([H])=C([H])[H])(C([H])([H])[H])OC67O[H])C4(C([H])([H])C3(O[H])C([H])([H])[H])C([H])(O[H])C(O[H])(C([H])([H])[H])C52C1(O[H])C([H])([H])[H]

$$$$
28:0:1
     RDKit          3D

 94101  0  0  1  0  0  0  0  0999 V2000
    5.9399   -2.4132   -0.7506 C   0  0  0  0  0  0  0  0  0  0  0  0
    4.7156   -2.8016   -0.3524 C   0  0  0  0  0  0  0  0  0  0  0  0
    4.2745   -3.1077    1.0729 C   0  0  1  0  0  0  0  0  0  0  0  0
    4.1286   -4.6419    1.1874 C   0  0  0  0  0  0  0  0  0  0  0  0
    5.1758   -2.4969    2.1634 C   0  0  0  0  0  0  0  0  0  0  0  0
    4.2599   -2.2144    3.3885 C   0  0  2  0  0  0  0  0  0  0  0  0
    4.7288   -3.3377    4.1295 O   0  0  0  0  0  0  0  0  0  0  0  0
    2.7914   -2.3472    2.7381 C   0  0  2  0  0  0  0  0  0  0  0  0
    2.0448   -3.4756    3.1140 O   0  0  0  0  0  0  0  0  0  0  0  0
    3.0278   -2.4710    1.3528 O   0  0  0  0  0  0  0  0  0  0  0  0
    2.0066   -0.9933    2.9699 C   0  0  2  0  0  0  0  0  0  0  0  0
    3.4452    0.0560    2.5707 S   0  0  0  0  0  0  0  0  0  0  0  0
    4.0629   -0.0952    1.1784 O   0  0  0  0  0  0  0  0  0  0  0  0
    4.3743   -0.7098    4.0204 C   0  0  2  0  0  0  0  0  0  0  0  0
    5.7319   -0.3292    4.0946 O   0  0  0  0  0  0  0  0  0  0  0  0
    3.5834   -0.0417    5.3617 C   0  0  2  0  0  0  0  0  0  0  0  0
    4.0620    0.2650    6.8230 C   0  0  0  0  0  0  0  0  0  0  0  0
    3.0723    1.2649    7.6474 C   0  0  1  0  0  0  0  0  0  0  0  0
    3.5820    1.1679    9.1164 C   0  0  0  0  0  0  0  0  0  0  0  0
    3.3219    2.6425    7.5360 O   0  0  0  0  0  0  0  0  0  0  0  0
    1.4543    1.1436    7.5244 C   0  0  2  0  0  0  0  0  0  0  0  0
    1.1516   -0.1603    8.1516 C   0  0  0  0  0  0  0  0  0  0  0  0
    1.6128   -1.2085    7.1934 C   0  0  1  0  0  0  0  0  0  0  0  0
    0.5813   -2.1979    7.2624 O   0  0  0  0  0  0  0  0  0  0  0  0
    2.3068   -0.9755    5.7134 C   0  0  2  0  0  0  0  0  0  0  0  0
    2.8930   -2.4346    5.8750 C   0  0  0  0  0  0  0  0  0  0  0  0
    1.4041   -0.5359    4.4596 C   0  0  2  0  0  0  0  0  0  0  0  0
    0.3258   -1.4326    4.4428 O   0  0  0  0  0  0  0  0  0  0  0  0
    0.9313    1.1102    4.6986 C   0  0  1  0  0  0  0  0  0  0  0  0
   -0.2809    1.5543    3.6862 C   0  0  1  0  0  0  0  0  0  0  0  0
   -0.0325    1.5436    2.1475 C   0  0  0  0  0  0  0  0  0  0  0  0
   -1.3623    0.6306    3.6971 O   0  0  0  0  0  0  0  0  0  0  0  0
   -0.8448    2.9865    4.0074 C   0  0  1  0  0  0  0  0  0  0  0  0
   -1.8945    3.3811    3.1451 O   0  0  0  0  0  0  0  0  0  0  0  0
   -1.2121    3.4014    5.4410 C   0  0  1  0  0  0  0  0  0  0  0  0
   -2.5357    3.1003    5.8372 O   0  0  0  0  0  0  0  0  0  0  0  0
   -2.6616    2.9523    7.1415 C   0  0  0  0  0  0  0  0  0  0  0  0
   -3.6875    2.7885    7.7705 O   0  0  0  0  0  0  0  0  0  0  0  0
   -1.2918    2.9671    7.7773 C   0  0  0  0  0  0  0  0  0  0  0  0
   -0.3109    2.8585    6.5731 C   0  0  2  0  0  0  0  0  0  0  0  0
    0.5473    3.8941    6.9810 O   0  0  0  0  0  0  0  0  0  0  0  0
    0.4012    1.4147    6.2732 C   0  0  2  0  0  0  0  0  0  0  0  0
   -0.8837    0.5091    6.4889 C   0  0  0  0  0  0  0  0  0  0  0  0
    2.1945    2.1251    4.4425 C   0  0  1  0  0  0  0  0  0  0  0  0
    2.4053    2.8907    3.0766 C   0  0  0  0  0  0  0  0  0  0  0  0
    2.1668    3.3271    5.1572 O   0  0  0  0  0  0  0  0  0  0  0  0
    3.5364    1.5106    4.9123 C   0  0  1  0  0  0  0  0  0  0  0  0
    4.5643    2.4131    5.3111 O   0  0  0  0  0  0  0  0  0  0  0  0
    6.7479   -2.2788   -0.0518 H   0  0  0  0  0  0  0  0  0  0  0  0
    6.1455   -2.2342   -1.7923 H   0  0  0  0  0  0  0  0  0  0  0  0
    3.9509   -2.9194   -1.1057 H   0  0  0  0  0  0  0  0  0  0  0  0
    5.0719   -5.1267    0.9420 H   0  0  0  0  0  0  0  0  0  0  0  0
    3.3834   -5.0214    0.4876 H   0  0  0  0  0  0  0  0  0  0  0  0
    3.8527   -4.9807    2.1839 H   0  0  0  0  0  0  0  0  0  0  0  0
    6.0453   -3.1322    2.3488 H   0  0  0  0  0  0  0  0  0  0  0  0
    5.6398   -1.5703    1.8433 H   0  0  0  0  0  0  0  0  0  0  0  0
    4.1666   -3.4833    4.8818 H   0  0  0  0  0  0  0  0  0  0  0  0
    1.1665   -3.3751    2.7490 H   0  0  0  0  0  0  0  0  0  0  0  0
    1.2505   -0.9841    2.1755 H   0  0  0  0  0  0  0  0  0  0  0  0
    5.8856    0.1271    4.9171 H   0  0  0  0  0  0  0  0  0  0  0  0
    4.2065   -0.6556    7.3861 H   0  0  0  0  0  0  0  0  0  0  0  0
    5.0705    0.6715    6.8390 H   0  0  0  0  0  0  0  0  0  0  0  0
    3.6468    0.1402    9.4806 H   0  0  0  0  0  0  0  0  0  0  0  0
    2.9464    1.7255    9.8098 H   0  0  0  0  0  0  0  0  0  0  0  0
    4.5942    1.5679    9.2182 H   0  0  0  0  0  0  0  0  0  0  0  0
    2.7966    2.9649    6.7970 H   0  0  0  0  0  0  0  0  0  0  0  0
    1.1170    1.8234    8.3022 H   0  0  0  0  0  0  0  0  0  0  0  0
    1.6287   -0.2940    9.1137 H   0  0  0  0  0  0  0  0  0  0  0  0
    0.1478   -0.3181    8.5119 H   0  0  0  0  0  0  0  0  0  0  0  0
    2.3771   -1.5719    7.8880 H   0  0  0  0  0  0  0  0  0  0  0  0
    0.9066   -3.0017    6.8672 H   0  0  0  0  0  0  0  0  0  0  0  0
    2.6852   -3.0949    6.7184 H   0  0  0  0  0  0  0  0  0  0  0  0
    3.9656   -2.3837    6.0533 H   0  0  0  0  0  0  0  0  0  0  0  0
    2.5579   -3.1647    5.1866 H   0  0  0  0  0  0  0  0  0  0  0  0
   -0.2765   -1.1198    3.7645 H   0  0  0  0  0  0  0  0  0  0  0  0
    0.1961    2.5343    1.7769 H   0  0  0  0  0  0  0  0  0  0  0  0
   -0.9087    1.2410    1.5669 H   0  0  0  0  0  0  0  0  0  0  0  0
    0.7717    0.9245    1.7965 H   0  0  0  0  0  0  0  0  0  0  0  0
   -2.0707    1.0131    3.1890 H   0  0  0  0  0  0  0  0  0  0  0  0
   -0.0720    3.7098    3.7747 H   0  0  0  0  0  0  0  0  0  0  0  0
   -1.5175    3.5182    2.2729 H   0  0  0  0  0  0  0  0  0  0  0  0
   -1.1500    4.4899    5.4844 H   0  0  0  0  0  0  0  0  0  0  0  0
   -1.2442    3.9349    8.2754 H   0  0  0  0  0  0  0  0  0  0  0  0
   -1.1976    2.2115    8.5607 H   0  0  0  0  0  0  0  0  0  0  0  0
    1.2482    3.9118    6.3245 H   0  0  0  0  0  0  0  0  0  0  0  0
   -1.7448    0.8081    5.9180 H   0  0  0  0  0  0  0  0  0  0  0  0
   -1.3079    0.5390    7.4866 H   0  0  0  0  0  0  0  0  0  0  0  0
   -0.7695   -0.5363    6.2603 H   0  0  0  0  0  0  0  0  0  0  0  0
    2.3969    2.3048    2.1669 H   0  0  0  0  0  0  0  0  0  0  0  0
    3.3833    3.3767    3.0504 H   0  0  0  0  0  0  0  0  0  0  0  0
    1.7152    3.7082    2.8793 H   0  0  0  0  0  0  0  0  0  0  0  0
    2.8523    3.8741    4.7714 H   0  0  0  0  0  0  0  0  0  0  0  0
    4.2115    1.6742    4.0953 H   0  0  0  0  0  0  0  0  0  0  0  0
    4.4386    2.5615    6.2577 H   0  0  0  0  0  0  0  0  0  0  0  0
  1  2  2  0
  1 49  1  0
  1 50  1  0
  2  3  1  0
  2 51  1  0
  3 10  1  0
  3  4  1  6
  3  5  1  0
  4 52  1  0
  4 53  1  0
  4 54  1  0
  5  6  1  0
  5 55  1  0
  5 56  1  0
  6 14  1  0
  6  7  1  1
  6  8  1  0
  7 57  1  0
  8  9  1  1
  8 10  1  0
  8 11  1  0
  9 58  1  0
 11 27  1  0
 11 12  1  0
 11 59  1  6
 12 13  2  0
 12 14  1  1
 14 15  1  6
 14 16  1  0
 15 60  1  0
 16 25  1  0
 16 47  1  0
 16 17  1  1
 17 18  1  0
 17 61  1  0
 17 62  1  0
 18 19  1  0
 18 20  1  6
 18 21  1  0
 19 63  1  0
 19 64  1  0
 19 65  1  0
 20 66  1  0
 21 42  1  0
 21 22  1  0
 21 67  1  1
 22 23  1  0
 22 68  1  0
 22 69  1  0
 23 24  1  0
 23 25  1  0
 23 70  1  1
 24 71  1  0
 25 26  1  6
 25 27  1  0
 26 72  1  0
 26 73  1  0
 26 74  1  0
 27 28  1  1
 27 29  1  0
 28 75  1  0
 29 42  1  0
 29 30  1  6
 29 44  1  0
 30 31  1  0
 30 32  1  6
 30 33  1  0
 31 76  1  0
 31 77  1  0
 31 78  1  0
 32 79  1  0
 33 34  1  0
 33 35  1  0
 33 80  1  6
 34 81  1  0
 35 40  1  0
 35 36  1  0
 35 82  1  6
 36 37  1  0
 37 38  2  0
 37 39  1  0
 39 40  1  0
 39 83  1  0
 39 84  1  0
 40 41  1  1
 40 42  1  0
 41 85  1  0
 42 43  1  1
 43 86  1  0
 43 87  1  0
 43 88  1  0
 44 45  1  0
 44 46  1  1
 44 47  1  0
 45 89  1  0
 45 90  1  0
 45 91  1  0
 46 92  1  0
 47 48  1  0
 47 93  1  6
 48 94  1  0
M  END
>  <i_m_ct_stereo_status>  (45) 
1

>  <s_m_source_file>  (45) 
/var/tmp/pbs.5075288.sched01/tmp228mwnki/64h1usuhcs.sdf

>  <i_m_source_file_index>  (45) 
6

>  <i_lp_mmshare_version>  (45) 
48012

>  <i_f3d_flags>  (45) 
0

>  <s_epik_input>  (45) 
W0NIMl09W0NIXVtDQEBdKFtDSDNdKShbQ0gyXTEpT1tDQEBdKFtPSF0pKFtDQF0xKFtPSF0pW0NAQF0yKFtDQF0zNDUpW09IXSlbQ0BIXShbUytdMltPLV0pW0NAXTYoW09IXSlbQ0BdNyhbQ0BAXShbQ0gzXSkoW09IXSlbQ0BIXTVbT0hdKVtDQEBdKFtDSDNdKShbQ0BIXShbQ0BdKFtDSDJdMykoW0NIM10pW09IXSlbQ0gyXVtDQEBIXShbT0hdKVtDQF00NltDSDNdKVtDQEBdOChbT0hdKVtDQEBIXShbQ0BIXShbT0hdKVtDQF03KFtDSDNdKVtPSF0pT0MoPU8pW0NIMl04

>  <s_epik_cmdline>  (45) 
J2VwaWtfcHl0aG9uJywgJy1waHQnLCAnMi4wJywgJy1waCcsICc3LjAnLCAnLXRuJywgJzgnLCAnLW1hJywgJzIwMCcsICctaW1hZScsICc8aW5maWxlLm1hZT4nLCAnLW9tYWUnLCAnPG91dGZpbGUubWFlPic=

>  <r_lp_tautomer_probability>  (45) 
1

>  <r_epik_Ionization_Penalty>  (45) 
3.5903e-06

>  <r_epik_Ionization_Penalty_Charging>  (45) 
0

>  <r_epik_Ionization_Penalty_Neutral>  (45) 
3.5903e-06

>  <r_epik_State_Penalty>  (45) 
-0

>  <r_epik_Charging_Adjusted_Penalty>  (45) 
0

>  <i_epik_Tot_Q>  (45) 
0

>  <i_epik_Tot_abs_Q>  (45) 
2

>  <s_epik_Chemistry_Notes>  (45) 
This compound has an ester and may undergo hydrolysis at high or low pH.

>  <s_lp_Force_Field>  (45) 
OPLS3e

>  <r_lp_Energy>  (45) 
401.03

>  <b_lp_Chiralities_Consistent>  (45) 
1

>  <s_lp_Variant>  (45) 
28:0-1

>  <s_i_glide_gridfile>  (45) 
pfpi4k_grid

>  <i_i_glide_lignum>  (45) 
6

>  <i_i_glide_rotatable_bonds>  (45) 
12

>  <r_i_docking_score>  (45) 
-5.04271

>  <r_i_glide_ligand_efficiency>  (45) 
-0.105057

>  <r_i_glide_ligand_efficiency_sa>  (45) 
-0.381801

>  <r_i_glide_ligand_efficiency_ln>  (45) 
-1.03521

>  <r_i_glide_gscore>  (45) 
-5.04271

>  <r_i_glide_lipo>  (45) 
-0.131952

>  <r_i_glide_hbond>  (45) 
0

>  <r_i_glide_metal>  (45) 
-0

>  <r_i_glide_rewards>  (45) 
-1.73638

>  <r_i_glide_evdw>  (45) 
-38.5442

>  <r_i_glide_ecoul>  (45) 
-8.58818

>  <r_i_glide_erotb>  (45) 
0.0434278

>  <r_i_glide_esite>  (45) 
-0.0023751

>  <r_i_glide_emodel>  (45) 
-77.3487

>  <r_i_glide_energy>  (45) 
-47.1324

>  <r_i_glide_einternal>  (45) 
1.68074

>  <r_i_glide_intrahb_reward>  (45) 
-1.5

>  <i_i_glide_confnum>  (45) 
2

>  <i_i_glide_posenum>  (45) 
11

>  <r_i_glide_eff_state_penalty>  (45) 
0

>  <ligand_id>  (45) 
28

>  <original_smiles>  (45) 
C=CC1(C)CC2(O)C(O)(O1)C1[S+]([O-])C2(O)C23CC(C)(O)C4CC(O)C2(C)C1(O)C1(C(C)(O)C(O)C2OC(=O)CC2(O)C41C)C(C)(O)C3O

>  <smiles>  (45) 
[H]OC1([H])C2([H])OC(=O)C([H])([H])C2(O[H])C2(C([H])([H])[H])C3([H])C([H])([H])C([H])(O[H])C4(C([H])([H])[H])C5(O[H])C6([H])S(=O)C(O[H])(C7(O[H])C([H])([H])C(C([H])=C([H])[H])(C([H])([H])[H])OC67O[H])C4(C([H])([H])C3(O[H])C([H])([H])[H])C([H])(O[H])C(O[H])(C([H])([H])[H])C52C1(O[H])C([H])([H])[H]

$$$$
28:0:2
     RDKit          3D

 94101  0  0  1  0  0  0  0  0999 V2000
    4.5659   -3.8115   -1.1355 C   0  0  0  0  0  0  0  0  0  0  0  0
    4.0929   -2.9290   -0.2534 C   0  0  0  0  0  0  0  0  0  0  0  0
    3.7864   -3.1643    1.2343 C   0  0  1  0  0  0  0  0  0  0  0  0
    3.7477   -4.6799    1.5597 C   0  0  0  0  0  0  0  0  0  0  0  0
    4.7494   -2.3853    2.1422 C   0  0  0  0  0  0  0  0  0  0  0  0
    3.9477   -2.0376    3.4401 C   0  0  2  0  0  0  0  0  0  0  0  0
    4.5574   -3.0546    4.2359 O   0  0  0  0  0  0  0  0  0  0  0  0
    2.4404   -2.3040    2.9680 C   0  0  2  0  0  0  0  0  0  0  0  0
    1.7934   -3.4187    3.5214 O   0  0  0  0  0  0  0  0  0  0  0  0
    2.5404   -2.5652    1.5897 O   0  0  0  0  0  0  0  0  0  0  0  0
    1.6209   -0.9613    3.1699 C   0  0  2  0  0  0  0  0  0  0  0  0
    2.9564    0.1263    2.5224 S   0  0  0  0  0  0  0  0  0  0  0  0
    3.4399   -0.1360    1.1003 O   0  0  0  0  0  0  0  0  0  0  0  0
    4.0428   -0.4777    3.9371 C   0  0  2  0  0  0  0  0  0  0  0  0
    5.4016   -0.1046    3.8545 O   0  0  0  0  0  0  0  0  0  0  0  0
    3.3563    0.2812    5.2977 C   0  0  2  0  0  0  0  0  0  0  0  0
    3.9559    0.7696    6.6616 C   0  0  0  0  0  0  0  0  0  0  0  0
    2.9816    1.7850    7.5022 C   0  0  1  0  0  0  0  0  0  0  0  0
    3.6451    1.8369    8.9105 C   0  0  0  0  0  0  0  0  0  0  0  0
    3.0985    3.1730    7.2808 O   0  0  0  0  0  0  0  0  0  0  0  0
    1.3723    1.5594    7.5597 C   0  0  2  0  0  0  0  0  0  0  0  0
    1.2154    0.3074    8.3252 C   0  0  0  0  0  0  0  0  0  0  0  0
    1.6380   -0.7986    7.4109 C   0  0  1  0  0  0  0  0  0  0  0  0
    0.6788   -1.8328    7.6676 O   0  0  0  0  0  0  0  0  0  0  0  0
    2.1750   -0.6748    5.8521 C   0  0  2  0  0  0  0  0  0  0  0  0
    2.8674   -2.0766    6.0800 C   0  0  0  0  0  0  0  0  0  0  0  0
    1.1249   -0.4021    4.6668 C   0  0  2  0  0  0  0  0  0  0  0  0
    0.0896   -1.3310    4.8603 O   0  0  0  0  0  0  0  0  0  0  0  0
    0.5811    1.2323    4.7974 C   0  0  1  0  0  0  0  0  0  0  0  0
   -0.7549    1.5285    3.8846 C   0  0  1  0  0  0  0  0  0  0  0  0
   -0.6472    1.4015    2.3331 C   0  0  0  0  0  0  0  0  0  0  0  0
   -1.7800    0.5685    4.0949 O   0  0  0  0  0  0  0  0  0  0  0  0
   -1.3642    2.9574    4.1446 C   0  0  1  0  0  0  0  0  0  0  0  0
   -2.5326    3.2109    3.3745 O   0  0  0  0  0  0  0  0  0  0  0  0
   -1.6045    3.4790    5.5728 C   0  0  1  0  0  0  0  0  0  0  0  0
   -2.8642    3.1504    6.1338 O   0  0  0  0  0  0  0  0  0  0  0  0
   -2.8441    3.1162    7.4630 C   0  0  0  0  0  0  0  0  0  0  0  0
   -3.7880    2.9577    8.2122 O   0  0  0  0  0  0  0  0  0  0  0  0
   -1.4216    3.2750    7.9403 C   0  0  0  0  0  0  0  0  0  0  0  0
   -0.5631    3.1025    6.6508 C   0  0  2  0  0  0  0  0  0  0  0  0
    0.2698    4.2203    6.8817 O   0  0  0  0  0  0  0  0  0  0  0  0
    0.1941    1.6661    6.3934 C   0  0  2  0  0  0  0  0  0  0  0  0
   -1.0073    0.7231    6.8203 C   0  0  0  0  0  0  0  0  0  0  0  0
    1.7509    2.2734    4.3230 C   0  0  1  0  0  0  0  0  0  0  0  0
    1.8170    2.9259    2.8837 C   0  0  0  0  0  0  0  0  0  0  0  0
    1.6731    3.5435    4.9041 O   0  0  0  0  0  0  0  0  0  0  0  0
    3.1613    1.7775    4.7303 C   0  0  1  0  0  0  0  0  0  0  0  0
    4.1441    2.7881    4.9337 O   0  0  0  0  0  0  0  0  0  0  0  0
    4.7964   -4.8369   -0.8727 H   0  0  0  0  0  0  0  0  0  0  0  0
    4.7290   -3.5271   -2.1691 H   0  0  0  0  0  0  0  0  0  0  0  0
    3.8798   -1.9231   -0.6046 H   0  0  0  0  0  0  0  0  0  0  0  0
    4.7002   -5.1528    1.3229 H   0  0  0  0  0  0  0  0  0  0  0  0
    2.9701   -5.1677    0.9695 H   0  0  0  0  0  0  0  0  0  0  0  0
    3.5580   -4.9120    2.6051 H   0  0  0  0  0  0  0  0  0  0  0  0
    5.6705   -2.9510    2.3018 H   0  0  0  0  0  0  0  0  0  0  0  0
    5.1407   -1.5027    1.6466 H   0  0  0  0  0  0  0  0  0  0  0  0
    4.1073   -3.0983    5.0737 H   0  0  0  0  0  0  0  0  0  0  0  0
    2.3866   -4.1532    3.4156 H   0  0  0  0  0  0  0  0  0  0  0  0
    0.7839   -1.0461    2.4674 H   0  0  0  0  0  0  0  0  0  0  0  0
    5.9441   -0.8382    4.1209 H   0  0  0  0  0  0  0  0  0  0  0  0
    4.2162   -0.0862    7.2780 H   0  0  0  0  0  0  0  0  0  0  0  0
    4.9362    1.2255    6.5306 H   0  0  0  0  0  0  0  0  0  0  0  0
    3.8126    0.8491    9.3508 H   0  0  0  0  0  0  0  0  0  0  0  0
    3.0549    2.4233    9.6232 H   0  0  0  0  0  0  0  0  0  0  0  0
    4.6385    2.2943    8.8606 H   0  0  0  0  0  0  0  0  0  0  0  0
    2.9949    3.3158    6.3412 H   0  0  0  0  0  0  0  0  0  0  0  0
    1.0666    2.2953    8.3036 H   0  0  0  0  0  0  0  0  0  0  0  0
    1.7907    0.2948    9.2394 H   0  0  0  0  0  0  0  0  0  0  0  0
    0.2639    0.1350    8.7989 H   0  0  0  0  0  0  0  0  0  0  0  0
    2.4908   -1.0545    8.0513 H   0  0  0  0  0  0  0  0  0  0  0  0
    1.0210   -2.6495    7.3256 H   0  0  0  0  0  0  0  0  0  0  0  0
    2.7812   -2.6668    6.9939 H   0  0  0  0  0  0  0  0  0  0  0  0
    3.9469   -1.9609    6.1406 H   0  0  0  0  0  0  0  0  0  0  0  0
    2.4995   -2.8868    5.5127 H   0  0  0  0  0  0  0  0  0  0  0  0
   -0.5574   -1.1519    4.1840 H   0  0  0  0  0  0  0  0  0  0  0  0
   -0.5211    2.3652    1.8406 H   0  0  0  0  0  0  0  0  0  0  0  0
   -1.5523    1.0042    1.8671 H   0  0  0  0  0  0  0  0  0  0  0  0
    0.1641    0.8029    1.9557 H   0  0  0  0  0  0  0  0  0  0  0  0
   -2.5350    0.7969    3.5387 H   0  0  0  0  0  0  0  0  0  0  0  0
   -0.6714    3.6906    3.7453 H   0  0  0  0  0  0  0  0  0  0  0  0
   -2.3115    3.0807    2.4543 H   0  0  0  0  0  0  0  0  0  0  0  0
   -1.5999    4.5614    5.4955 H   0  0  0  0  0  0  0  0  0  0  0  0
   -1.3807    4.2855    8.3370 H   0  0  0  0  0  0  0  0  0  0  0  0
   -1.1903    2.5954    8.7571 H   0  0  0  0  0  0  0  0  0  0  0  0
    1.0042    4.1504    6.2703 H   0  0  0  0  0  0  0  0  0  0  0  0
   -1.9386    0.9268    6.3246 H   0  0  0  0  0  0  0  0  0  0  0  0
   -1.3282    0.8135    7.8511 H   0  0  0  0  0  0  0  0  0  0  0  0
   -0.8571   -0.3316    6.6838 H   0  0  0  0  0  0  0  0  0  0  0  0
    1.7517    2.2613    2.0343 H   0  0  0  0  0  0  0  0  0  0  0  0
    2.7549    3.4625    2.7322 H   0  0  0  0  0  0  0  0  0  0  0  0
    1.0606    3.6856    2.6877 H   0  0  0  0  0  0  0  0  0  0  0  0
    1.1545    4.1007    4.3283 H   0  0  0  0  0  0  0  0  0  0  0  0
    3.7633    1.8609    3.8400 H   0  0  0  0  0  0  0  0  0  0  0  0
    4.4434    3.0450    4.0668 H   0  0  0  0  0  0  0  0  0  0  0  0
  1  2  2  0
  1 49  1  0
  1 50  1  0
  2  3  1  0
  2 51  1  0
  3 10  1  0
  3  4  1  1
  3  5  1  0
  4 52  1  0
  4 53  1  0
  4 54  1  0
  5  6  1  0
  5 55  1  0
  5 56  1  0
  6 14  1  0
  6  7  1  1
  6  8  1  0
  7 57  1  0
  8  9  1  1
  8 10  1  0
  8 11  1  0
  9 58  1  0
 11 27  1  0
 11 12  1  0
 11 59  1  6
 12 13  2  0
 12 14  1  1
 14 15  1  6
 14 16  1  0
 15 60  1  0
 16 25  1  0
 16 47  1  0
 16 17  1  1
 17 18  1  0
 17 61  1  0
 17 62  1  0
 18 19  1  0
 18 20  1  6
 18 21  1  0
 19 63  1  0
 19 64  1  0
 19 65  1  0
 20 66  1  0
 21 42  1  0
 21 22  1  0
 21 67  1  1
 22 23  1  0
 22 68  1  0
 22 69  1  0
 23 24  1  0
 23 25  1  0
 23 70  1  1
 24 71  1  0
 25 26  1  6
 25 27  1  0
 26 72  1  0
 26 73  1  0
 26 74  1  0
 27 28  1  1
 27 29  1  0
 28 75  1  0
 29 42  1  0
 29 30  1  6
 29 44  1  0
 30 31  1  0
 30 32  1  1
 30 33  1  0
 31 76  1  0
 31 77  1  0
 31 78  1  0
 32 79  1  0
 33 34  1  0
 33 35  1  0
 33 80  1  6
 34 81  1  0
 35 40  1  0
 35 36  1  0
 35 82  1  6
 36 37  1  0
 37 38  2  0
 37 39  1  0
 39 40  1  0
 39 83  1  0
 39 84  1  0
 40 41  1  1
 40 42  1  0
 41 85  1  0
 42 43  1  1
 43 86  1  0
 43 87  1  0
 43 88  1  0
 44 45  1  0
 44 46  1  1
 44 47  1  0
 45 89  1  0
 45 90  1  0
 45 91  1  0
 46 92  1  0
 47 48  1  0
 47 93  1  6
 48 94  1  0
M  END
>  <i_m_ct_stereo_status>  (46) 
1

>  <s_m_source_file>  (46) 
/var/tmp/pbs.5075288.sched01/tmp228mwnki/64h1usuhcs.sdf

>  <i_m_source_file_index>  (46) 
6

>  <i_lp_mmshare_version>  (46) 
48012

>  <i_f3d_flags>  (46) 
0

>  <s_epik_input>  (46) 
W0NIMl09W0NIXVtDQEBdKFtDSDNdKShbQ0gyXTEpT1tDQEBdKFtPSF0pKFtDQF0xKFtPSF0pW0NAQF0yKFtDQF0zNDUpW09IXSlbQ0BIXShbUytdMltPLV0pW0NAXTYoW09IXSlbQ0BdNyhbQ0BAXShbQ0gzXSkoW09IXSlbQ0BIXTVbT0hdKVtDQEBdKFtDSDNdKShbQ0BIXShbQ0BdKFtDSDJdMykoW0NIM10pW09IXSlbQ0gyXVtDQEBIXShbT0hdKVtDQF00NltDSDNdKVtDQEBdOChbT0hdKVtDQEBIXShbQ0BIXShbT0hdKVtDQF03KFtDSDNdKVtPSF0pT0MoPU8pW0NIMl04

>  <s_epik_cmdline>  (46) 
J2VwaWtfcHl0aG9uJywgJy1waHQnLCAnMi4wJywgJy1waCcsICc3LjAnLCAnLXRuJywgJzgnLCAnLW1hJywgJzIwMCcsICctaW1hZScsICc8aW5maWxlLm1hZT4nLCAnLW9tYWUnLCAnPG91dGZpbGUubWFlPic=

>  <r_lp_tautomer_probability>  (46) 
1

>  <r_epik_Ionization_Penalty>  (46) 
3.5903e-06

>  <r_epik_Ionization_Penalty_Charging>  (46) 
0

>  <r_epik_Ionization_Penalty_Neutral>  (46) 
3.5903e-06

>  <r_epik_State_Penalty>  (46) 
-0

>  <r_epik_Charging_Adjusted_Penalty>  (46) 
0

>  <i_epik_Tot_Q>  (46) 
0

>  <i_epik_Tot_abs_Q>  (46) 
2

>  <s_epik_Chemistry_Notes>  (46) 
This compound has an ester and may undergo hydrolysis at high or low pH.

>  <s_lp_Force_Field>  (46) 
OPLS3e

>  <r_lp_Energy>  (46) 
401.03

>  <b_lp_Chiralities_Consistent>  (46) 
1

>  <s_lp_Variant>  (46) 
28:0-1

>  <s_i_glide_gridfile>  (46) 
pfpi4k_grid

>  <i_i_glide_lignum>  (46) 
6

>  <i_i_glide_rotatable_bonds>  (46) 
12

>  <r_i_docking_score>  (46) 
-4.94212

>  <r_i_glide_ligand_efficiency>  (46) 
-0.102961

>  <r_i_glide_ligand_efficiency_sa>  (46) 
-0.374184

>  <r_i_glide_ligand_efficiency_ln>  (46) 
-1.01456

>  <r_i_glide_gscore>  (46) 
-4.94212

>  <r_i_glide_lipo>  (46) 
-0.0606687

>  <r_i_glide_hbond>  (46) 
0

>  <r_i_glide_metal>  (46) 
-0

>  <r_i_glide_rewards>  (46) 
-1.74573

>  <r_i_glide_evdw>  (46) 
-39.9955

>  <r_i_glide_ecoul>  (46) 
-7.84023

>  <r_i_glide_erotb>  (46) 
0.0434278

>  <r_i_glide_esite>  (46) 
-0.00333697

>  <r_i_glide_emodel>  (46) 
-77.2601

>  <r_i_glide_energy>  (46) 
-47.8358

>  <r_i_glide_einternal>  (46) 
2.35366

>  <r_i_glide_intrahb_reward>  (46) 
-1.5

>  <i_i_glide_confnum>  (46) 
3

>  <i_i_glide_posenum>  (46) 
33

>  <r_i_glide_eff_state_penalty>  (46) 
0

>  <ligand_id>  (46) 
28

>  <original_smiles>  (46) 
C=CC1(C)CC2(O)C(O)(O1)C1[S+]([O-])C2(O)C23CC(C)(O)C4CC(O)C2(C)C1(O)C1(C(C)(O)C(O)C2OC(=O)CC2(O)C41C)C(C)(O)C3O

>  <smiles>  (46) 
[H]OC1([H])C2([H])OC(=O)C([H])([H])C2(O[H])C2(C([H])([H])[H])C3([H])C([H])([H])C([H])(O[H])C4(C([H])([H])[H])C5(O[H])C6([H])S(=O)C(O[H])(C7(O[H])C([H])([H])C(C([H])=C([H])[H])(C([H])([H])[H])OC67O[H])C4(C([H])([H])C3(O[H])C([H])([H])[H])C([H])(O[H])C(O[H])(C([H])([H])[H])C52C1(O[H])C([H])([H])[H]

$$$$
41:0:0
     RDKit          3D

 93100  0  0  1  0  0  0  0  0999 V2000
    3.4549   -4.1065    7.9707 C   0  0  0  0  0  0  0  0  0  0  0  0
    3.2906   -3.9334    6.6483 C   0  0  0  0  0  0  0  0  0  0  0  0
    2.8131   -2.5374    6.1212 C   0  0  0  0  0  0  0  0  0  0  0  0
    1.9302   -2.4687    4.8023 C   0  0  1  0  0  0  0  0  0  0  0  0
    0.6366   -2.0738    5.3236 O   0  0  0  0  0  0  0  0  0  0  0  0
   -0.4945   -1.8037    4.4832 C   0  0  0  0  0  0  0  0  0  0  0  0
    2.3969   -1.3621    3.7552 C   0  0  1  0  0  0  0  0  0  0  0  0
    2.2695    0.1860    4.1708 C   0  0  0  0  0  0  0  0  0  0  0  0
    3.3239    0.7094    5.1684 C   0  0  0  0  0  0  0  0  0  0  0  0
    2.2425    1.0887    2.9173 C   0  0  0  0  0  0  0  0  0  0  0  0
    1.0609    0.5457    4.8088 O   0  0  0  0  0  0  0  0  0  0  0  0
    3.8172   -1.5943    3.1358 C   0  0  0  0  0  0  0  0  0  0  0  0
    4.2542   -2.9123    2.4103 C   0  0  1  0  0  0  0  0  0  0  0  0
    5.6545   -2.8418    2.1213 O   0  0  0  0  0  0  0  0  0  0  0  0
    6.0597   -1.8849    1.1454 C   0  0  0  0  0  0  0  0  0  0  0  0
    3.9199   -4.3315    3.0253 C   0  0  1  0  0  0  0  0  0  0  0  0
    4.3677   -5.3700    1.9517 C   0  0  0  0  0  0  0  0  0  0  0  0
    4.2706   -6.7223    1.7522 C   0  0  0  0  0  0  0  0  0  0  0  0
    3.6834   -7.8847    2.5725 C   0  0  1  0  0  0  0  0  0  0  0  0
    4.1800   -7.7218    3.9854 C   0  0  0  0  0  0  0  0  0  0  0  0
    3.4457   -7.6035    5.0969 C   0  0  0  0  0  0  0  0  0  0  0  0
    3.7013   -6.5462    6.1573 C   0  0  1  0  0  0  0  0  0  0  0  0
    5.4256   -6.8137    6.8300 S   0  0  0  0  0  0  0  0  0  0  0  0
    5.5701   -6.2564    8.2477 O   0  0  0  0  0  0  0  0  0  0  0  0
    6.3674   -5.7713    5.6261 C   0  0  0  0  0  0  0  0  0  0  0  0
    6.9813   -4.6055    6.4504 C   0  0  0  0  0  0  0  0  0  0  0  0
    7.5208   -6.6690    5.1297 C   0  0  0  0  0  0  0  0  0  0  0  0
    5.6070   -5.4196    4.4401 O   0  0  0  0  0  0  0  0  0  0  0  0
    4.4835   -4.5798    4.4976 C   0  0  1  0  0  0  0  0  0  0  0  0
    5.0886   -3.3772    4.8875 O   0  0  0  0  0  0  0  0  0  0  0  0
    3.3234   -5.0853    5.5809 C   0  0  2  0  0  0  0  0  0  0  0  0
    1.7290   -5.0972    5.0436 C   0  0  1  0  0  0  0  0  0  0  0  0
    0.7801   -4.7683    6.2985 C   0  0  0  0  0  0  0  0  0  0  0  0
    1.7248   -3.8793    4.1195 C   0  0  2  0  0  0  0  0  0  0  0  0
    2.5119   -4.1970    2.9753 O   0  0  0  0  0  0  0  0  0  0  0  0
    0.9061   -6.2982    4.2766 C   0  0  2  0  0  0  0  0  0  0  0  0
   -0.5966   -6.4355    4.6286 C   0  0  0  0  0  0  0  0  0  0  0  0
    0.3851   -7.3478    5.0988 O   0  0  0  0  0  0  0  0  0  0  0  0
    1.1894   -6.8067    2.7980 C   0  0  1  0  0  0  0  0  0  0  0  0
    1.0277   -5.8538    1.7643 O   0  0  0  0  0  0  0  0  0  0  0  0
    2.1563   -7.9709    2.3972 C   0  0  2  0  0  0  0  0  0  0  0  0
    1.7739   -9.4086    2.8004 C   0  0  0  0  0  0  0  0  0  0  0  0
    3.0729  -10.2340    2.7044 C   0  0  0  0  0  0  0  0  0  0  0  0
    4.1409   -9.3057    2.1103 C   0  0  1  0  0  0  0  0  0  0  0  0
    4.1267   -9.4709    0.7068 O   0  0  0  0  0  0  0  0  0  0  0  0
    3.6469   -5.0643    8.4179 H   0  0  0  0  0  0  0  0  0  0  0  0
    3.3291   -3.2782    8.6502 H   0  0  0  0  0  0  0  0  0  0  0  0
    2.2750   -2.0360    6.9281 H   0  0  0  0  0  0  0  0  0  0  0  0
    3.6858   -1.9076    6.0217 H   0  0  0  0  0  0  0  0  0  0  0  0
   -1.2389   -1.2787    5.0797 H   0  0  0  0  0  0  0  0  0  0  0  0
   -0.9805   -2.6784    4.0838 H   0  0  0  0  0  0  0  0  0  0  0  0
   -0.2755   -1.1598    3.6381 H   0  0  0  0  0  0  0  0  0  0  0  0
    1.7248   -1.5032    2.9084 H   0  0  0  0  0  0  0  0  0  0  0  0
    4.3270    0.7071    4.7443 H   0  0  0  0  0  0  0  0  0  0  0  0
    3.3331    0.1568    6.1062 H   0  0  0  0  0  0  0  0  0  0  0  0
    3.1047    1.7414    5.4482 H   0  0  0  0  0  0  0  0  0  0  0  0
    3.1856    1.0853    2.3767 H   0  0  0  0  0  0  0  0  0  0  0  0
    2.0632    2.1306    3.1807 H   0  0  0  0  0  0  0  0  0  0  0  0
    1.4585    0.7825    2.2218 H   0  0  0  0  0  0  0  0  0  0  0  0
    0.3548    0.4189    4.1965 H   0  0  0  0  0  0  0  0  0  0  0  0
    3.9110   -0.8508    2.3551 H   0  0  0  0  0  0  0  0  0  0  0  0
    4.5801   -1.2972    3.8502 H   0  0  0  0  0  0  0  0  0  0  0  0
    3.7421   -2.8842    1.4440 H   0  0  0  0  0  0  0  0  0  0  0  0
    7.1354   -1.9694    0.9882 H   0  0  0  0  0  0  0  0  0  0  0  0
    5.8739   -0.8558    1.4560 H   0  0  0  0  0  0  0  0  0  0  0  0
    5.5707   -2.0550    0.1845 H   0  0  0  0  0  0  0  0  0  0  0  0
    4.8816   -4.9017    1.1254 H   0  0  0  0  0  0  0  0  0  0  0  0
    4.7158   -7.0512    0.8246 H   0  0  0  0  0  0  0  0  0  0  0  0
    5.2101   -7.4514    3.9653 H   0  0  0  0  0  0  0  0  0  0  0  0
    2.4667   -8.0182    5.0990 H   0  0  0  0  0  0  0  0  0  0  0  0
    3.0312   -6.7958    6.9829 H   0  0  0  0  0  0  0  0  0  0  0  0
    7.5066   -3.9057    5.8072 H   0  0  0  0  0  0  0  0  0  0  0  0
    7.6904   -4.9674    7.1945 H   0  0  0  0  0  0  0  0  0  0  0  0
    6.2289   -4.0504    7.0091 H   0  0  0  0  0  0  0  0  0  0  0  0
    8.1033   -6.1730    4.3545 H   0  0  0  0  0  0  0  0  0  0  0  0
    7.1718   -7.6134    4.7148 H   0  0  0  0  0  0  0  0  0  0  0  0
    8.2042   -6.9312    5.9374 H   0  0  0  0  0  0  0  0  0  0  0  0
    5.3963   -3.4909    5.7711 H   0  0  0  0  0  0  0  0  0  0  0  0
   -0.1659   -4.3416    5.9486 H   0  0  0  0  0  0  0  0  0  0  0  0
    1.0130   -4.0286    7.0378 H   0  0  0  0  0  0  0  0  0  0  0  0
    0.5774   -5.6504    6.9017 H   0  0  0  0  0  0  0  0  0  0  0  0
    0.7470   -3.8637    3.6578 H   0  0  0  0  0  0  0  0  0  0  0  0
   -1.0789   -5.9849    5.4868 H   0  0  0  0  0  0  0  0  0  0  0  0
   -1.2459   -6.8192    3.8522 H   0  0  0  0  0  0  0  0  0  0  0  0
    0.2811   -7.3361    2.5849 H   0  0  0  0  0  0  0  0  0  0  0  0
    1.8036   -5.3193    1.7616 H   0  0  0  0  0  0  0  0  0  0  0  0
    2.0422   -8.0194    1.3109 H   0  0  0  0  0  0  0  0  0  0  0  0
    1.3695   -9.4592    3.8089 H   0  0  0  0  0  0  0  0  0  0  0  0
    1.0125   -9.8149    2.1328 H   0  0  0  0  0  0  0  0  0  0  0  0
    3.3751  -10.5320    3.7078 H   0  0  0  0  0  0  0  0  0  0  0  0
    2.9512  -11.1569    2.1364 H   0  0  0  0  0  0  0  0  0  0  0  0
    5.1410   -9.5623    2.4627 H   0  0  0  0  0  0  0  0  0  0  0  0
    4.2147  -10.4309    0.4874 H   0  0  0  0  0  0  0  0  0  0  0  0
  1  2  2  0
  1 46  1  0
  1 47  1  0
 31  2  1  1
  2  3  1  0
  3  4  1  0
  3 48  1  0
  3 49  1  0
  4 34  1  0
  4  5  1  1
  4  7  1  0
  5  6  1  0
  6 50  1  0
  6 51  1  0
  6 52  1  0
  7  8  1  0
  7 12  1  0
  7 53  1  6
  8  9  1  0
  8 10  1  0
  8 11  1  0
  9 54  1  0
  9 55  1  0
  9 56  1  0
 10 57  1  0
 10 58  1  0
 10 59  1  0
 11 60  1  0
 12 13  1  0
 12 61  1  0
 12 62  1  0
 13 14  1  0
 13 16  1  0
 13 63  1  6
 14 15  1  0
 15 64  1  0
 15 65  1  0
 15 66  1  0
 16 29  1  0
 16 35  1  1
 16 17  1  0
 17 18  2  3
 17 67  1  0
 19 18  1  6
 18 68  1  0
 19 41  1  0
 19 44  1  0
 19 20  1  0
 20 21  2  3
 20 69  1  0
 21 22  1  0
 21 70  1  0
 22 31  1  0
 22 23  1  0
 22 71  1  1
 23 24  2  0
 23 25  1  6
 25 26  1  0
 25 27  1  0
 25 28  1  0
 26 72  1  0
 26 73  1  0
 26 74  1  0
 27 75  1  0
 27 76  1  0
 27 77  1  0
 28 29  1  0
 29 30  1  1
 29 31  1  0
 30 78  1  0
 31 32  1  0
 32 33  1  1
 32 34  1  0
 32 36  1  0
 33 79  1  0
 33 80  1  0
 33 81  1  0
 34 35  1  0
 34 82  1  6
 36 38  1  1
 36 37  1  0
 36 39  1  0
 37 38  1  0
 37 83  1  0
 37 84  1  0
 39 40  1  0
 39 41  1  0
 39 85  1  6
 40 86  1  0
 41 42  1  0
 41 87  1  6
 42 43  1  0
 42 88  1  0
 42 89  1  0
 43 44  1  0
 43 90  1  0
 43 91  1  0
 44 45  1  0
 44 92  1  1
 45 93  1  0
M  END
>  <i_m_ct_stereo_status>  (47) 
1

>  <s_m_source_file>  (47) 
/var/tmp/pbs.5075288.sched01/tmp228mwnki/64h1usuhcs.sdf

>  <i_m_source_file_index>  (47) 
28

>  <i_lp_mmshare_version>  (47) 
48012

>  <i_f3d_flags>  (47) 
0

>  <s_epik_input>  (47) 
W0NIM11PW0NAQEhdMVtDSDJdW0NASF0oQyhbQ0gzXSkoW0NIM10pW09IXSlbQ0BdKE9bQ0gzXSkoW0NIMl1DMj1bQ0gyXSlbQ0BASF0oTzMpW0NAQF00KFtDSDNdKUM1KFtDSDJdTzUpW0NAQEhdKFtPSF0pW0NASF0oW0NIMl1bQ0gyXVtDQEhdNltPSF0pW0NAQF02KC9bQ0hdPVtDSF1cNykvW0NIXT1bQ0hdL1tDQEBIXShbUytdKFtPLV0pQyhPOCkoW0NIM10pW0NIM10pW0NAXTI0W0NAQF04KFtDQF0xMzcpW09IXQ==

>  <s_epik_cmdline>  (47) 
J2VwaWtfcHl0aG9uJywgJy1waHQnLCAnMi4wJywgJy1waCcsICc3LjAnLCAnLXRuJywgJzgnLCAnLW1hJywgJzIwMCcsICctaW1hZScsICc8aW5maWxlLm1hZT4nLCAnLW9tYWUnLCAnPG91dGZpbGUubWFlPic=

>  <r_lp_tautomer_probability>  (47) 
1

>  <r_epik_Ionization_Penalty>  (47) 
6.47439e-06

>  <r_epik_Ionization_Penalty_Charging>  (47) 
0

>  <r_epik_Ionization_Penalty_Neutral>  (47) 
6.47439e-06

>  <r_epik_State_Penalty>  (47) 
-0

>  <r_epik_Charging_Adjusted_Penalty>  (47) 
0

>  <i_epik_Tot_Q>  (47) 
0

>  <i_epik_Tot_abs_Q>  (47) 
2

>  <s_lp_Force_Field>  (47) 
OPLS3e

>  <r_lp_Energy>  (47) 
232.636

>  <b_lp_Chiralities_Consistent>  (47) 
1

>  <s_lp_Variant>  (47) 
41:0-1

>  <s_i_glide_gridfile>  (47) 
pfpi4k_grid

>  <i_i_glide_lignum>  (47) 
28

>  <i_i_glide_rotatable_bonds>  (47) 
7

>  <r_i_docking_score>  (47) 
-3.37947

>  <r_i_glide_ligand_efficiency>  (47) 
-0.0750993

>  <r_i_glide_ligand_efficiency_sa>  (47) 
-0.26712

>  <r_i_glide_ligand_efficiency_ln>  (47) 
-0.70308

>  <r_i_glide_gscore>  (47) 
-3.37947

>  <r_i_glide_lipo>  (47) 
-0.290345

>  <r_i_glide_hbond>  (47) 
-0.16

>  <r_i_glide_metal>  (47) 
-0

>  <r_i_glide_rewards>  (47) 
-0.500296

>  <r_i_glide_evdw>  (47) 
-21.9416

>  <r_i_glide_ecoul>  (47) 
-9.21452

>  <r_i_glide_erotb>  (47) 
0.0504293

>  <r_i_glide_esite>  (47) 
0

>  <r_i_glide_emodel>  (47) 
-42.1135

>  <r_i_glide_energy>  (47) 
-31.1561

>  <r_i_glide_einternal>  (47) 
0.610331

>  <r_i_glide_intrahb_reward>  (47) 
-0.5

>  <i_i_glide_confnum>  (47) 
1

>  <i_i_glide_posenum>  (47) 
15

>  <r_i_glide_eff_state_penalty>  (47) 
0

>  <ligand_id>  (47) 
41

>  <original_smiles>  (47) 
C=C1CC2(OC)C(C(C)(C)O)CC(OC)C34C=CC56C=CC7[S+]([O-])C(C)(C)OC3(O)C17C(C)(C2O4)C1(CO1)C(O)C5CCC6O

>  <smiles>  (47) 
[H]OC1([H])C([H])([H])C([H])([H])C2([H])C([H])(O[H])C3(OC3([H])[H])C3(C([H])([H])[H])C4([H])OC56C([H])=C([H])C12C([H])=C([H])C1([H])S(=O)C(C([H])([H])[H])(C([H])([H])[H])OC5(O[H])C13C(=C([H])[H])C([H])([H])C4(OC([H])([H])[H])C([H])(C(O[H])(C([H])([H])[H])C([H])([H])[H])C([H])([H])C6([H])OC([H])([H])[H]

$$$$
41:0:1
     RDKit          3D

 93100  0  0  1  0  0  0  0  0999 V2000
    3.4728   -4.1106    7.9808 C   0  0  0  0  0  0  0  0  0  0  0  0
    3.3041   -3.9363    6.6551 C   0  0  0  0  0  0  0  0  0  0  0  0
    2.8238   -2.5401    6.1332 C   0  0  0  0  0  0  0  0  0  0  0  0
    1.9364   -2.4709    4.8156 C   0  0  1  0  0  0  0  0  0  0  0  0
    0.6405   -2.0896    5.3413 O   0  0  0  0  0  0  0  0  0  0  0  0
   -0.4859   -1.7933    4.4997 C   0  0  0  0  0  0  0  0  0  0  0  0
    2.4020   -1.3628    3.7712 C   0  0  1  0  0  0  0  0  0  0  0  0
    2.2703    0.1835    4.1908 C   0  0  0  0  0  0  0  0  0  0  0  0
    3.3581    0.7205    5.1477 C   0  0  0  0  0  0  0  0  0  0  0  0
    2.1984    1.0822    2.9327 C   0  0  0  0  0  0  0  0  0  0  0  0
    1.0815    0.5205    4.8853 O   0  0  0  0  0  0  0  0  0  0  0  0
    3.8180   -1.5944    3.1434 C   0  0  0  0  0  0  0  0  0  0  0  0
    4.2513   -2.9129    2.4162 C   0  0  1  0  0  0  0  0  0  0  0  0
    5.6506   -2.8431    2.1224 O   0  0  0  0  0  0  0  0  0  0  0  0
    6.0549   -1.8751    1.1569 C   0  0  0  0  0  0  0  0  0  0  0  0
    3.9174   -4.3316    3.0327 C   0  0  1  0  0  0  0  0  0  0  0  0
    4.3626   -5.3755    1.9550 C   0  0  0  0  0  0  0  0  0  0  0  0
    4.2651   -6.7206    1.7568 C   0  0  0  0  0  0  0  0  0  0  0  0
    3.6816   -7.8916    2.5792 C   0  0  1  0  0  0  0  0  0  0  0  0
    4.1828   -7.7239    3.9878 C   0  0  0  0  0  0  0  0  0  0  0  0
    3.4517   -7.6065    5.1036 C   0  0  0  0  0  0  0  0  0  0  0  0
    3.7117   -6.5492    6.1630 C   0  0  1  0  0  0  0  0  0  0  0  0
    5.4385   -6.8179    6.8301 S   0  0  0  0  0  0  0  0  0  0  0  0
    5.5881   -6.2602    8.2474 O   0  0  0  0  0  0  0  0  0  0  0  0
    6.3757   -5.7748    5.6228 C   0  0  0  0  0  0  0  0  0  0  0  0
    6.9931   -4.6092    6.4459 C   0  0  0  0  0  0  0  0  0  0  0  0
    7.5276   -6.6721    5.1222 C   0  0  0  0  0  0  0  0  0  0  0  0
    5.6112   -5.4217    4.4398 O   0  0  0  0  0  0  0  0  0  0  0  0
    4.4882   -4.5824    4.5002 C   0  0  1  0  0  0  0  0  0  0  0  0
    5.0962   -3.3798    4.8922 O   0  0  0  0  0  0  0  0  0  0  0  0
    3.3326   -5.0863    5.5908 C   0  0  2  0  0  0  0  0  0  0  0  0
    1.7345   -5.1006    5.0554 C   0  0  1  0  0  0  0  0  0  0  0  0
    0.7926   -4.7694    6.3182 C   0  0  0  0  0  0  0  0  0  0  0  0
    1.7282   -3.8798    4.1339 C   0  0  2  0  0  0  0  0  0  0  0  0
    2.5097   -4.2003    2.9850 O   0  0  0  0  0  0  0  0  0  0  0  0
    0.9087   -6.3001    4.2959 C   0  0  2  0  0  0  0  0  0  0  0  0
   -0.5945   -6.4371    4.6498 C   0  0  0  0  0  0  0  0  0  0  0  0
    0.3916   -7.3478    5.1172 O   0  0  0  0  0  0  0  0  0  0  0  0
    1.1878   -6.8079    2.8066 C   0  0  1  0  0  0  0  0  0  0  0  0
    1.0208   -5.8528    1.7769 O   0  0  0  0  0  0  0  0  0  0  0  0
    2.1548   -7.9759    2.4097 C   0  0  2  0  0  0  0  0  0  0  0  0
    1.7720   -9.4119    2.8128 C   0  0  0  0  0  0  0  0  0  0  0  0
    3.0683  -10.2384    2.7122 C   0  0  0  0  0  0  0  0  0  0  0  0
    4.1354   -9.3044    2.1144 C   0  0  1  0  0  0  0  0  0  0  0  0
    4.1189   -9.4712    0.6967 O   0  0  0  0  0  0  0  0  0  0  0  0
    3.6655   -5.0681    8.4244 H   0  0  0  0  0  0  0  0  0  0  0  0
    3.3488   -3.2828    8.6586 H   0  0  0  0  0  0  0  0  0  0  0  0
    2.2881   -2.0387    6.9413 H   0  0  0  0  0  0  0  0  0  0  0  0
    3.6959   -1.9100    6.0303 H   0  0  0  0  0  0  0  0  0  0  0  0
   -1.2232   -1.2656    5.1070 H   0  0  0  0  0  0  0  0  0  0  0  0
   -0.9729   -2.6663    4.0852 H   0  0  0  0  0  0  0  0  0  0  0  0
   -0.2628   -1.1265    3.6705 H   0  0  0  0  0  0  0  0  0  0  0  0
    1.7255   -1.5024    2.9281 H   0  0  0  0  0  0  0  0  0  0  0  0
    4.3481    0.7240    4.6900 H   0  0  0  0  0  0  0  0  0  0  0  0
    3.4031    0.1656    6.0840 H   0  0  0  0  0  0  0  0  0  0  0  0
    3.1432    1.7523    5.4345 H   0  0  0  0  0  0  0  0  0  0  0  0
    3.1230    1.0785    2.3579 H   0  0  0  0  0  0  0  0  0  0  0  0
    2.0238    2.1258    3.1923 H   0  0  0  0  0  0  0  0  0  0  0  0
    1.3937    0.7672    2.2656 H   0  0  0  0  0  0  0  0  0  0  0  0
    1.0018    1.4568    4.9114 H   0  0  0  0  0  0  0  0  0  0  0  0
    3.9063   -0.8465    2.3661 H   0  0  0  0  0  0  0  0  0  0  0  0
    4.5837   -1.3007    3.8554 H   0  0  0  0  0  0  0  0  0  0  0  0
    3.7366   -2.8845    1.4518 H   0  0  0  0  0  0  0  0  0  0  0  0
    7.1297   -1.9605    0.9941 H   0  0  0  0  0  0  0  0  0  0  0  0
    5.8744   -0.8495    1.4819 H   0  0  0  0  0  0  0  0  0  0  0  0
    5.5607   -2.0309    0.1961 H   0  0  0  0  0  0  0  0  0  0  0  0
    4.8743   -4.9023    1.1283 H   0  0  0  0  0  0  0  0  0  0  0  0
    4.7072   -7.0536    0.8261 H   0  0  0  0  0  0  0  0  0  0  0  0
    5.2118   -7.4537    3.9656 H   0  0  0  0  0  0  0  0  0  0  0  0
    2.4729   -8.0208    5.1091 H   0  0  0  0  0  0  0  0  0  0  0  0
    3.0437   -6.7997    6.9915 H   0  0  0  0  0  0  0  0  0  0  0  0
    7.5161   -3.9101    5.8011 H   0  0  0  0  0  0  0  0  0  0  0  0
    7.7046   -4.9721    7.1871 H   0  0  0  0  0  0  0  0  0  0  0  0
    6.2428   -4.0547    7.0076 H   0  0  0  0  0  0  0  0  0  0  0  0
    8.1072   -6.1760    4.3452 H   0  0  0  0  0  0  0  0  0  0  0  0
    7.1768   -7.6163    4.7082 H   0  0  0  0  0  0  0  0  0  0  0  0
    8.2136   -6.9349    5.9273 H   0  0  0  0  0  0  0  0  0  0  0  0
    5.4232   -3.5007    5.7635 H   0  0  0  0  0  0  0  0  0  0  0  0
   -0.1577   -4.3488    5.9677 H   0  0  0  0  0  0  0  0  0  0  0  0
    1.0280   -4.0338    7.0544 H   0  0  0  0  0  0  0  0  0  0  0  0
    0.5908   -5.6529    6.9192 H   0  0  0  0  0  0  0  0  0  0  0  0
    0.7476   -3.8629    3.6783 H   0  0  0  0  0  0  0  0  0  0  0  0
   -1.0711   -5.9836    5.5136 H   0  0  0  0  0  0  0  0  0  0  0  0
   -1.2425   -6.8228    3.8732 H   0  0  0  0  0  0  0  0  0  0  0  0
    0.2793   -7.3377    2.6074 H   0  0  0  0  0  0  0  0  0  0  0  0
    1.8190   -5.3304    1.7656 H   0  0  0  0  0  0  0  0  0  0  0  0
    2.0355   -8.0212    1.3236 H   0  0  0  0  0  0  0  0  0  0  0  0
    1.3712   -9.4610    3.8220 H   0  0  0  0  0  0  0  0  0  0  0  0
    1.0081   -9.8156    2.1473 H   0  0  0  0  0  0  0  0  0  0  0  0
    3.3763  -10.5344    3.7149 H   0  0  0  0  0  0  0  0  0  0  0  0
    2.9459  -11.1585    2.1440 H   0  0  0  0  0  0  0  0  0  0  0  0
    5.1389   -9.5658    2.4634 H   0  0  0  0  0  0  0  0  0  0  0  0
    4.2159  -10.4007    0.5012 H   0  0  0  0  0  0  0  0  0  0  0  0
  1  2  2  0
  1 46  1  0
  1 47  1  0
 31  2  1  1
  2  3  1  0
  3  4  1  0
  3 48  1  0
  3 49  1  0
  4 34  1  0
  4  5  1  1
  4  7  1  0
  5  6  1  0
  6 50  1  0
  6 51  1  0
  6 52  1  0
  7  8  1  0
  7 12  1  0
  7 53  1  6
  8  9  1  0
  8 10  1  0
  8 11  1  0
  9 54  1  0
  9 55  1  0
  9 56  1  0
 10 57  1  0
 10 58  1  0
 10 59  1  0
 11 60  1  0
 12 13  1  0
 12 61  1  0
 12 62  1  0
 13 14  1  0
 13 16  1  0
 13 63  1  6
 14 15  1  0
 15 64  1  0
 15 65  1  0
 15 66  1  0
 16 29  1  0
 16 35  1  1
 16 17  1  0
 17 18  2  3
 17 67  1  0
 19 18  1  6
 18 68  1  0
 19 41  1  0
 19 44  1  0
 19 20  1  0
 20 21  2  3
 20 69  1  0
 21 22  1  0
 21 70  1  0
 22 31  1  0
 22 23  1  0
 22 71  1  1
 23 24  2  0
 23 25  1  6
 25 26  1  0
 25 27  1  0
 25 28  1  0
 26 72  1  0
 26 73  1  0
 26 74  1  0
 27 75  1  0
 27 76  1  0
 27 77  1  0
 28 29  1  0
 29 30  1  1
 29 31  1  0
 30 78  1  0
 31 32  1  0
 32 33  1  1
 32 34  1  0
 32 36  1  0
 33 79  1  0
 33 80  1  0
 33 81  1  0
 34 35  1  0
 34 82  1  6
 36 38  1  1
 36 37  1  0
 36 39  1  0
 37 38  1  0
 37 83  1  0
 37 84  1  0
 39 40  1  0
 39 41  1  0
 39 85  1  6
 40 86  1  0
 41 42  1  0
 41 87  1  6
 42 43  1  0
 42 88  1  0
 42 89  1  0
 43 44  1  0
 43 90  1  0
 43 91  1  0
 44 45  1  0
 44 92  1  1
 45 93  1  0
M  END
>  <i_m_ct_stereo_status>  (48) 
1

>  <s_m_source_file>  (48) 
/var/tmp/pbs.5075288.sched01/tmp228mwnki/64h1usuhcs.sdf

>  <i_m_source_file_index>  (48) 
28

>  <i_lp_mmshare_version>  (48) 
48012

>  <i_f3d_flags>  (48) 
0

>  <s_epik_input>  (48) 
W0NIM11PW0NAQEhdMVtDSDJdW0NASF0oQyhbQ0gzXSkoW0NIM10pW09IXSlbQ0BdKE9bQ0gzXSkoW0NIMl1DMj1bQ0gyXSlbQ0BASF0oTzMpW0NAQF00KFtDSDNdKUM1KFtDSDJdTzUpW0NAQEhdKFtPSF0pW0NASF0oW0NIMl1bQ0gyXVtDQEhdNltPSF0pW0NAQF02KC9bQ0hdPVtDSF1cNykvW0NIXT1bQ0hdL1tDQEBIXShbUytdKFtPLV0pQyhPOCkoW0NIM10pW0NIM10pW0NAXTI0W0NAQF04KFtDQF0xMzcpW09IXQ==

>  <s_epik_cmdline>  (48) 
J2VwaWtfcHl0aG9uJywgJy1waHQnLCAnMi4wJywgJy1waCcsICc3LjAnLCAnLXRuJywgJzgnLCAnLW1hJywgJzIwMCcsICctaW1hZScsICc8aW5maWxlLm1hZT4nLCAnLW9tYWUnLCAnPG91dGZpbGUubWFlPic=

>  <r_lp_tautomer_probability>  (48) 
1

>  <r_epik_Ionization_Penalty>  (48) 
6.47439e-06

>  <r_epik_Ionization_Penalty_Charging>  (48) 
0

>  <r_epik_Ionization_Penalty_Neutral>  (48) 
6.47439e-06

>  <r_epik_State_Penalty>  (48) 
-0

>  <r_epik_Charging_Adjusted_Penalty>  (48) 
0

>  <i_epik_Tot_Q>  (48) 
0

>  <i_epik_Tot_abs_Q>  (48) 
2

>  <s_lp_Force_Field>  (48) 
OPLS3e

>  <r_lp_Energy>  (48) 
232.636

>  <b_lp_Chiralities_Consistent>  (48) 
1

>  <s_lp_Variant>  (48) 
41:0-1

>  <s_i_glide_gridfile>  (48) 
pfpi4k_grid

>  <i_i_glide_lignum>  (48) 
28

>  <i_i_glide_rotatable_bonds>  (48) 
7

>  <r_i_docking_score>  (48) 
-3.24935

>  <r_i_glide_ligand_efficiency>  (48) 
-0.0722078

>  <r_i_glide_ligand_efficiency_sa>  (48) 
-0.256835

>  <r_i_glide_ligand_efficiency_ln>  (48) 
-0.676009

>  <r_i_glide_gscore>  (48) 
-3.24935

>  <r_i_glide_lipo>  (48) 
-0.290584

>  <r_i_glide_hbond>  (48) 
-0.16

>  <r_i_glide_metal>  (48) 
-0

>  <r_i_glide_rewards>  (48) 
-0.500298

>  <r_i_glide_evdw>  (48) 
-21.8963

>  <r_i_glide_ecoul>  (48) 
-8.36055

>  <r_i_glide_erotb>  (48) 
0.0504293

>  <r_i_glide_esite>  (48) 
0

>  <r_i_glide_emodel>  (48) 
-40.9076

>  <r_i_glide_energy>  (48) 
-30.2568

>  <r_i_glide_einternal>  (48) 
0.638372

>  <r_i_glide_intrahb_reward>  (48) 
-0.5

>  <i_i_glide_confnum>  (48) 
2

>  <i_i_glide_posenum>  (48) 
1

>  <r_i_glide_eff_state_penalty>  (48) 
0

>  <ligand_id>  (48) 
41

>  <original_smiles>  (48) 
C=C1CC2(OC)C(C(C)(C)O)CC(OC)C34C=CC56C=CC7[S+]([O-])C(C)(C)OC3(O)C17C(C)(C2O4)C1(CO1)C(O)C5CCC6O

>  <smiles>  (48) 
[H]OC1([H])C([H])([H])C([H])([H])C2([H])C([H])(O[H])C3(OC3([H])[H])C3(C([H])([H])[H])C4([H])OC56C([H])=C([H])C12C([H])=C([H])C1([H])S(=O)C(C([H])([H])[H])(C([H])([H])[H])OC5(O[H])C13C(=C([H])[H])C([H])([H])C4(OC([H])([H])[H])C([H])(C(O[H])(C([H])([H])[H])C([H])([H])[H])C([H])([H])C6([H])OC([H])([H])[H]

$$$$
41:0:2
     RDKit          3D

 93100  0  0  1  0  0  0  0  0999 V2000
    5.6740   -4.1069    6.6823 C   0  0  0  0  0  0  0  0  0  0  0  0
    4.6987   -4.1826    5.7316 C   0  0  0  0  0  0  0  0  0  0  0  0
    4.1743   -2.8486    5.1049 C   0  0  0  0  0  0  0  0  0  0  0  0
    2.6635   -2.7891    4.6142 C   0  0  1  0  0  0  0  0  0  0  0  0
    2.0563   -1.9064    5.5893 O   0  0  0  0  0  0  0  0  0  0  0  0
    0.6791   -1.5058    5.5315 C   0  0  0  0  0  0  0  0  0  0  0  0
    2.4718   -2.1359    3.1720 C   0  0  1  0  0  0  0  0  0  0  0  0
    2.8162   -0.5791    2.9834 C   0  0  0  0  0  0  0  0  0  0  0  0
    4.3152   -0.2094    2.9923 C   0  0  0  0  0  0  0  0  0  0  0  0
    2.1546   -0.0085    1.7067 C   0  0  0  0  0  0  0  0  0  0  0  0
    2.2809    0.2580    3.9903 O   0  0  0  0  0  0  0  0  0  0  0  0
    3.1279   -2.9333    1.9995 C   0  0  0  0  0  0  0  0  0  0  0  0
    2.8464   -4.4467    1.6975 C   0  0  1  0  0  0  0  0  0  0  0  0
    3.7327   -4.8907    0.6585 O   0  0  0  0  0  0  0  0  0  0  0  0
    3.6378   -4.2208   -0.5955 C   0  0  0  0  0  0  0  0  0  0  0  0
    2.8190   -5.5204    2.8542 C   0  0  1  0  0  0  0  0  0  0  0  0
    2.3494   -6.8550    2.1915 C   0  0  0  0  0  0  0  0  0  0  0  0
    1.9942   -8.1089    2.5933 C   0  0  0  0  0  0  0  0  0  0  0  0
    1.9448   -8.8202    3.9634 C   0  0  1  0  0  0  0  0  0  0  0  0
    3.2444   -8.5255    4.6577 C   0  0  0  0  0  0  0  0  0  0  0  0
    3.4124   -7.9451    5.8533 C   0  0  0  0  0  0  0  0  0  0  0  0
    4.4094   -6.8301    6.1025 C   0  0  1  0  0  0  0  0  0  0  0  0
    6.1193   -7.4743    5.7161 S   0  0  0  0  0  0  0  0  0  0  0  0
    7.1994   -6.7039    6.4697 O   0  0  0  0  0  0  0  0  0  0  0  0
    6.1830   -7.0780    3.9066 C   0  0  0  0  0  0  0  0  0  0  0  0
    7.3058   -6.0251    3.7380 C   0  0  0  0  0  0  0  0  0  0  0  0
    6.6332   -8.3793    3.2221 C   0  0  0  0  0  0  0  0  0  0  0  0
    4.8830   -6.7626    3.3413 O   0  0  0  0  0  0  0  0  0  0  0  0
    4.1667   -5.6112    3.7155 C   0  0  1  0  0  0  0  0  0  0  0  0
    5.0049   -4.6177    3.2087 O   0  0  0  0  0  0  0  0  0  0  0  0
    3.9199   -5.4858    5.3552 C   0  0  2  0  0  0  0  0  0  0  0  0
    2.3810   -5.0861    5.8651 C   0  0  1  0  0  0  0  0  0  0  0  0
    2.4663   -4.2361    7.2040 C   0  0  0  0  0  0  0  0  0  0  0  0
    1.9108   -4.1670    4.7381 C   0  0  2  0  0  0  0  0  0  0  0  0
    1.7345   -4.9490    3.5648 O   0  0  0  0  0  0  0  0  0  0  0  0
    1.1100   -6.1127    6.1981 C   0  0  2  0  0  0  0  0  0  0  0  0
    0.2048   -5.6589    7.3805 C   0  0  0  0  0  0  0  0  0  0  0  0
    1.1218   -6.7334    7.5063 O   0  0  0  0  0  0  0  0  0  0  0  0
    0.3426   -6.9672    5.1552 C   0  0  1  0  0  0  0  0  0  0  0  0
   -0.3392   -6.2791    4.1254 O   0  0  0  0  0  0  0  0  0  0  0  0
    0.6681   -8.4507    4.7323 C   0  0  2  0  0  0  0  0  0  0  0  0
    0.4740   -9.5674    5.7778 C   0  0  0  0  0  0  0  0  0  0  0  0
    1.2968  -10.7638    5.2684 C   0  0  0  0  0  0  0  0  0  0  0  0
    1.8303  -10.3710    3.8779 C   0  0  1  0  0  0  0  0  0  0  0  0
    0.9056  -10.8146    2.9043 O   0  0  0  0  0  0  0  0  0  0  0  0
    5.9881   -4.9595    7.2527 H   0  0  0  0  0  0  0  0  0  0  0  0
    6.1001   -3.1583    6.9488 H   0  0  0  0  0  0  0  0  0  0  0  0
    4.3383   -2.0459    5.8241 H   0  0  0  0  0  0  0  0  0  0  0  0
    4.8440   -2.5685    4.3054 H   0  0  0  0  0  0  0  0  0  0  0  0
    0.5578   -0.6452    6.1872 H   0  0  0  0  0  0  0  0  0  0  0  0
   -0.0221   -2.2662    5.8746 H   0  0  0  0  0  0  0  0  0  0  0  0
    0.3503   -1.1785    4.5490 H   0  0  0  0  0  0  0  0  0  0  0  0
    1.4015   -2.2241    2.9755 H   0  0  0  0  0  0  0  0  0  0  0  0
    4.8518   -0.6282    2.1384 H   0  0  0  0  0  0  0  0  0  0  0  0
    4.8224   -0.5042    3.9086 H   0  0  0  0  0  0  0  0  0  0  0  0
    4.4338    0.8728    2.9423 H   0  0  0  0  0  0  0  0  0  0  0  0
    2.5759   -0.4264    0.7906 H   0  0  0  0  0  0  0  0  0  0  0  0
    2.2968    1.0692    1.6179 H   0  0  0  0  0  0  0  0  0  0  0  0
    1.0817   -0.2062    1.6963 H   0  0  0  0  0  0  0  0  0  0  0  0
    2.4323    1.1653    3.7419 H   0  0  0  0  0  0  0  0  0  0  0  0
    2.7658   -2.4512    1.1036 H   0  0  0  0  0  0  0  0  0  0  0  0
    4.1980   -2.7433    1.9843 H   0  0  0  0  0  0  0  0  0  0  0  0
    1.8499   -4.4629    1.2594 H   0  0  0  0  0  0  0  0  0  0  0  0
    4.3297   -4.6793   -1.3011 H   0  0  0  0  0  0  0  0  0  0  0  0
    3.9327   -3.1741   -0.5420 H   0  0  0  0  0  0  0  0  0  0  0  0
    2.6311   -4.2741   -1.0180 H   0  0  0  0  0  0  0  0  0  0  0  0
    2.2722   -6.7588    1.1179 H   0  0  0  0  0  0  0  0  0  0  0  0
    1.7084   -8.7601    1.7803 H   0  0  0  0  0  0  0  0  0  0  0  0
    4.0418   -8.6081    3.9591 H   0  0  0  0  0  0  0  0  0  0  0  0
    2.6270   -8.0171    6.5617 H   0  0  0  0  0  0  0  0  0  0  0  0
    4.3977   -6.6680    7.1799 H   0  0  0  0  0  0  0  0  0  0  0  0
    7.3878   -5.6850    2.7008 H   0  0  0  0  0  0  0  0  0  0  0  0
    8.2831   -6.4252    4.0204 H   0  0  0  0  0  0  0  0  0  0  0  0
    7.1529   -5.1615    4.3806 H   0  0  0  0  0  0  0  0  0  0  0  0
    6.6368   -8.2730    2.1356 H   0  0  0  0  0  0  0  0  0  0  0  0
    5.9982   -9.2270    3.4619 H   0  0  0  0  0  0  0  0  0  0  0  0
    7.6449   -8.6628    3.5232 H   0  0  0  0  0  0  0  0  0  0  0  0
    5.8173   -4.6531    3.7141 H   0  0  0  0  0  0  0  0  0  0  0  0
    1.5571   -3.6594    7.3450 H   0  0  0  0  0  0  0  0  0  0  0  0
    3.2113   -3.4603    7.3491 H   0  0  0  0  0  0  0  0  0  0  0  0
    2.6239   -4.8535    8.0940 H   0  0  0  0  0  0  0  0  0  0  0  0
    0.8739   -3.9423    4.9511 H   0  0  0  0  0  0  0  0  0  0  0  0
    0.4308   -4.9045    8.0864 H   0  0  0  0  0  0  0  0  0  0  0  0
   -0.8495   -5.9756    7.3181 H   0  0  0  0  0  0  0  0  0  0  0  0
   -0.5659   -7.2222    5.7029 H   0  0  0  0  0  0  0  0  0  0  0  0
    0.3403   -5.9170    3.5663 H   0  0  0  0  0  0  0  0  0  0  0  0
   -0.1253   -8.6827    4.0166 H   0  0  0  0  0  0  0  0  0  0  0  0
    0.8101   -9.2713    6.7657 H   0  0  0  0  0  0  0  0  0  0  0  0
   -0.5795   -9.8334    5.8748 H   0  0  0  0  0  0  0  0  0  0  0  0
    2.1404  -10.9234    5.9414 H   0  0  0  0  0  0  0  0  0  0  0  0
    0.7322  -11.7003    5.2613 H   0  0  0  0  0  0  0  0  0  0  0  0
    2.7849  -10.8525    3.6637 H   0  0  0  0  0  0  0  0  0  0  0  0
    0.0237  -10.5881    3.1925 H   0  0  0  0  0  0  0  0  0  0  0  0
  1  2  2  0
  1 46  1  0
  1 47  1  0
 31  2  1  1
  2  3  1  0
  3  4  1  0
  3 48  1  0
  3 49  1  0
  4 34  1  0
  4  5  1  1
  4  7  1  0
  5  6  1  0
  6 50  1  0
  6 51  1  0
  6 52  1  0
  7  8  1  0
  7 12  1  0
  7 53  1  6
  8  9  1  0
  8 10  1  0
  8 11  1  0
  9 54  1  0
  9 55  1  0
  9 56  1  0
 10 57  1  0
 10 58  1  0
 10 59  1  0
 11 60  1  0
 12 13  1  0
 12 61  1  0
 12 62  1  0
 13 14  1  0
 13 16  1  0
 13 63  1  6
 14 15  1  0
 15 64  1  0
 15 65  1  0
 15 66  1  0
 16 29  1  0
 16 35  1  1
 16 17  1  0
 17 18  2  3
 17 67  1  0
 19 18  1  6
 18 68  1  0
 19 41  1  0
 19 44  1  0
 19 20  1  0
 20 21  2  3
 20 69  1  0
 21 22  1  0
 21 70  1  0
 22 31  1  0
 22 23  1  0
 22 71  1  1
 23 24  2  0
 23 25  1  6
 25 26  1  0
 25 27  1  0
 25 28  1  0
 26 72  1  0
 26 73  1  0
 26 74  1  0
 27 75  1  0
 27 76  1  0
 27 77  1  0
 28 29  1  0
 29 30  1  6
 29 31  1  0
 30 78  1  0
 31 32  1  0
 32 33  1  1
 32 34  1  0
 32 36  1  0
 33 79  1  0
 33 80  1  0
 33 81  1  0
 34 35  1  0
 34 82  1  1
 36 38  1  1
 36 37  1  0
 36 39  1  0
 37 38  1  0
 37 83  1  0
 37 84  1  0
 39 40  1  0
 39 41  1  0
 39 85  1  1
 40 86  1  0
 41 42  1  0
 41 87  1  6
 42 43  1  0
 42 88  1  0
 42 89  1  0
 43 44  1  0
 43 90  1  0
 43 91  1  0
 44 45  1  0
 44 92  1  6
 45 93  1  0
M  END
>  <i_m_ct_stereo_status>  (49) 
1

>  <s_m_source_file>  (49) 
/var/tmp/pbs.5075288.sched01/tmp228mwnki/64h1usuhcs.sdf

>  <i_m_source_file_index>  (49) 
28

>  <i_lp_mmshare_version>  (49) 
48012

>  <i_f3d_flags>  (49) 
0

>  <s_epik_input>  (49) 
W0NIM11PW0NAQEhdMVtDSDJdW0NASF0oQyhbQ0gzXSkoW0NIM10pW09IXSlbQ0BdKE9bQ0gzXSkoW0NIMl1DMj1bQ0gyXSlbQ0BASF0oTzMpW0NAQF00KFtDSDNdKUM1KFtDSDJdTzUpW0NAQEhdKFtPSF0pW0NASF0oW0NIMl1bQ0gyXVtDQEhdNltPSF0pW0NAQF02KC9bQ0hdPVtDSF1cNykvW0NIXT1bQ0hdL1tDQEBIXShbUytdKFtPLV0pQyhPOCkoW0NIM10pW0NIM10pW0NAXTI0W0NAQF04KFtDQF0xMzcpW09IXQ==

>  <s_epik_cmdline>  (49) 
J2VwaWtfcHl0aG9uJywgJy1waHQnLCAnMi4wJywgJy1waCcsICc3LjAnLCAnLXRuJywgJzgnLCAnLW1hJywgJzIwMCcsICctaW1hZScsICc8aW5maWxlLm1hZT4nLCAnLW9tYWUnLCAnPG91dGZpbGUubWFlPic=

>  <r_lp_tautomer_probability>  (49) 
1

>  <r_epik_Ionization_Penalty>  (49) 
6.47439e-06

>  <r_epik_Ionization_Penalty_Charging>  (49) 
0

>  <r_epik_Ionization_Penalty_Neutral>  (49) 
6.47439e-06

>  <r_epik_State_Penalty>  (49) 
-0

>  <r_epik_Charging_Adjusted_Penalty>  (49) 
0

>  <i_epik_Tot_Q>  (49) 
0

>  <i_epik_Tot_abs_Q>  (49) 
2

>  <s_lp_Force_Field>  (49) 
OPLS3e

>  <r_lp_Energy>  (49) 
232.636

>  <b_lp_Chiralities_Consistent>  (49) 
1

>  <s_lp_Variant>  (49) 
41:0-1

>  <s_i_glide_gridfile>  (49) 
pfpi4k_grid

>  <i_i_glide_lignum>  (49) 
28

>  <i_i_glide_rotatable_bonds>  (49) 
7

>  <r_i_docking_score>  (49) 
-2.02496

>  <r_i_glide_ligand_efficiency>  (49) 
-0.0449992

>  <r_i_glide_ligand_efficiency_sa>  (49) 
-0.160057

>  <r_i_glide_ligand_efficiency_ln>  (49) 
-0.421283

>  <r_i_glide_gscore>  (49) 
-2.02496

>  <r_i_glide_lipo>  (49) 
-0.0827047

>  <r_i_glide_hbond>  (49) 
0

>  <r_i_glide_metal>  (49) 
-0

>  <r_i_glide_rewards>  (49) 
-0.5

>  <r_i_glide_evdw>  (49) 
-24.8889

>  <r_i_glide_ecoul>  (49) 
-1.65495

>  <r_i_glide_erotb>  (49) 
0.0504293

>  <r_i_glide_esite>  (49) 
0

>  <r_i_glide_emodel>  (49) 
-34.4343

>  <r_i_glide_energy>  (49) 
-26.5439

>  <r_i_glide_einternal>  (49) 
0.545293

>  <r_i_glide_intrahb_reward>  (49) 
-0.5

>  <i_i_glide_confnum>  (49) 
6

>  <i_i_glide_posenum>  (49) 
23

>  <r_i_glide_eff_state_penalty>  (49) 
0

>  <ligand_id>  (49) 
41

>  <original_smiles>  (49) 
C=C1CC2(OC)C(C(C)(C)O)CC(OC)C34C=CC56C=CC7[S+]([O-])C(C)(C)OC3(O)C17C(C)(C2O4)C1(CO1)C(O)C5CCC6O

>  <smiles>  (49) 
[H]OC1([H])C([H])([H])C([H])([H])C2([H])C([H])(O[H])C3(OC3([H])[H])C3(C([H])([H])[H])C4([H])OC56C([H])=C([H])C12C([H])=C([H])C1([H])S(=O)C(C([H])([H])[H])(C([H])([H])[H])OC5(O[H])C13C(=C([H])[H])C([H])([H])C4(OC([H])([H])[H])C([H])(C(O[H])(C([H])([H])[H])C([H])([H])[H])C([H])([H])C6([H])OC([H])([H])[H]

$$$$
41:1:0
     RDKit          3D

 93100  0  0  1  0  0  0  0  0999 V2000
    5.1911   -6.5153    6.6956 C   0  0  0  0  0  0  0  0  0  0  0  0
    4.4434   -6.8868    5.6684 C   0  0  0  0  0  0  0  0  0  0  0  0
    4.0621   -8.4145    5.4659 C   0  0  0  0  0  0  0  0  0  0  0  0
    3.8911   -8.9697    3.9595 C   0  0  1  0  0  0  0  0  0  0  0  0
    4.9858   -9.9254    3.8836 O   0  0  0  0  0  0  0  0  0  0  0  0
    5.3025  -10.7180    2.7215 C   0  0  0  0  0  0  0  0  0  0  0  0
    2.5382   -9.8073    3.6477 C   0  0  1  0  0  0  0  0  0  0  0  0
    2.3205  -11.1722    4.4723 C   0  0  0  0  0  0  0  0  0  0  0  0
    0.8758  -11.7215    4.4718 C   0  0  0  0  0  0  0  0  0  0  0  0
    3.2440  -12.3331    4.0612 C   0  0  0  0  0  0  0  0  0  0  0  0
    2.5364  -10.9594    5.8390 O   0  0  0  0  0  0  0  0  0  0  0  0
    1.1570   -9.0481    3.5171 C   0  0  0  0  0  0  0  0  0  0  0  0
    0.9213   -7.7121    2.7345 C   0  0  1  0  0  0  0  0  0  0  0  0
   -0.3295   -7.1128    3.0874 O   0  0  0  0  0  0  0  0  0  0  0  0
   -1.4863   -7.9111    2.8526 C   0  0  0  0  0  0  0  0  0  0  0  0
    2.0408   -6.6373    2.8099 C   0  0  1  0  0  0  0  0  0  0  0  0
    1.7043   -5.4041    1.9564 C   0  0  0  0  0  0  0  0  0  0  0  0
    2.4178   -5.0581    0.8751 C   0  0  0  0  0  0  0  0  0  0  0  0
    3.4680   -3.9137    0.7414 C   0  0  1  0  0  0  0  0  0  0  0  0
    4.1548   -3.4251    2.0436 C   0  0  0  0  0  0  0  0  0  0  0  0
    3.7092   -3.6730    3.2709 C   0  0  0  0  0  0  0  0  0  0  0  0
    4.3902   -4.3687    4.4795 C   0  0  1  0  0  0  0  0  0  0  0  0
    3.6383   -3.4644    5.9257 S   0  0  0  0  0  0  0  0  0  0  0  0
    4.3106   -3.7793    7.2647 O   0  0  0  0  0  0  0  0  0  0  0  0
    1.9570   -4.2329    5.8297 C   0  0  0  0  0  0  0  0  0  0  0  0
    1.7164   -4.9972    7.1561 C   0  0  0  0  0  0  0  0  0  0  0  0
    0.9847   -3.0446    5.7196 C   0  0  0  0  0  0  0  0  0  0  0  0
    1.7255   -4.9721    4.6127 O   0  0  0  0  0  0  0  0  0  0  0  0
    2.4481   -6.1428    4.2749 C   0  0  1  0  0  0  0  0  0  0  0  0
    1.8537   -7.0143    5.1928 O   0  0  0  0  0  0  0  0  0  0  0  0
    4.1056   -5.9721    4.4309 C   0  0  2  0  0  0  0  0  0  0  0  0
    5.1069   -6.6919    3.2916 C   0  0  1  0  0  0  0  0  0  0  0  0
    6.3813   -7.3973    3.9548 C   0  0  0  0  0  0  0  0  0  0  0  0
    4.2135   -7.8670    2.8556 C   0  0  2  0  0  0  0  0  0  0  0  0
    3.0885   -7.3546    2.1556 O   0  0  0  0  0  0  0  0  0  0  0  0
    5.8671   -5.8800    2.0773 C   0  0  2  0  0  0  0  0  0  0  0  0
    7.4217   -5.8302    2.1746 C   0  0  0  0  0  0  0  0  0  0  0  0
    6.6317   -4.7295    2.4540 O   0  0  0  0  0  0  0  0  0  0  0  0
    5.3714   -5.8013    0.5759 C   0  0  1  0  0  0  0  0  0  0  0  0
    4.8442   -7.0103    0.0939 O   0  0  0  0  0  0  0  0  0  0  0  0
    4.6047   -4.5673   -0.0706 C   0  0  2  0  0  0  0  0  0  0  0  0
    5.4100   -3.3939   -0.6619 C   0  0  0  0  0  0  0  0  0  0  0  0
    4.4320   -2.1949   -0.6787 C   0  0  0  0  0  0  0  0  0  0  0  0
    3.0798   -2.6997   -0.1272 C   0  0  1  0  0  0  0  0  0  0  0  0
    2.2256   -3.0847   -1.2020 O   0  0  0  0  0  0  0  0  0  0  0  0
    5.6201   -5.5236    6.7857 H   0  0  0  0  0  0  0  0  0  0  0  0
    5.4751   -7.2200    7.4723 H   0  0  0  0  0  0  0  0  0  0  0  0
    4.8257   -8.9997    5.9821 H   0  0  0  0  0  0  0  0  0  0  0  0
    3.2145   -8.6582    6.0942 H   0  0  0  0  0  0  0  0  0  0  0  0
    5.9880  -11.5043    3.0644 H   0  0  0  0  0  0  0  0  0  0  0  0
    5.7963  -10.2040    1.9136 H   0  0  0  0  0  0  0  0  0  0  0  0
    4.4260  -11.2320    2.3411 H   0  0  0  0  0  0  0  0  0  0  0  0
    2.6825  -10.1180    2.6146 H   0  0  0  0  0  0  0  0  0  0  0  0
    0.6002  -12.0783    3.4777 H   0  0  0  0  0  0  0  0  0  0  0  0
    0.1331  -10.9886    4.7993 H   0  0  0  0  0  0  0  0  0  0  0  0
    0.7622  -12.5624    5.1558 H   0  0  0  0  0  0  0  0  0  0  0  0
    3.0775  -12.5704    2.9973 H   0  0  0  0  0  0  0  0  0  0  0  0
    3.0469  -13.2370    4.6363 H   0  0  0  0  0  0  0  0  0  0  0  0
    4.2910  -12.0863    4.2135 H   0  0  0  0  0  0  0  0  0  0  0  0
    2.1515  -11.6767    6.3596 H   0  0  0  0  0  0  0  0  0  0  0  0
    0.5089   -9.7454    2.9902 H   0  0  0  0  0  0  0  0  0  0  0  0
    0.7031   -8.9525    4.5014 H   0  0  0  0  0  0  0  0  0  0  0  0
    0.8339   -7.9827    1.6775 H   0  0  0  0  0  0  0  0  0  0  0  0
   -2.3752   -7.3441    3.1269 H   0  0  0  0  0  0  0  0  0  0  0  0
   -1.5008   -8.8198    3.4563 H   0  0  0  0  0  0  0  0  0  0  0  0
   -1.5768   -8.1907    1.8021 H   0  0  0  0  0  0  0  0  0  0  0  0
    1.2212   -4.6067    2.4907 H   0  0  0  0  0  0  0  0  0  0  0  0
    2.7467   -5.9288    0.3403 H   0  0  0  0  0  0  0  0  0  0  0  0
    5.1971   -3.2372    1.9090 H   0  0  0  0  0  0  0  0  0  0  0  0
    2.6534   -3.5753    3.3104 H   0  0  0  0  0  0  0  0  0  0  0  0
    5.4556   -4.1548    4.5124 H   0  0  0  0  0  0  0  0  0  0  0  0
    0.7499   -5.5019    7.1591 H   0  0  0  0  0  0  0  0  0  0  0  0
    1.7425   -4.3282    8.0167 H   0  0  0  0  0  0  0  0  0  0  0  0
    2.4816   -5.7529    7.3346 H   0  0  0  0  0  0  0  0  0  0  0  0
   -0.0504   -3.3812    5.6690 H   0  0  0  0  0  0  0  0  0  0  0  0
    1.1777   -2.4588    4.8205 H   0  0  0  0  0  0  0  0  0  0  0  0
    1.0726   -2.3687    6.5702 H   0  0  0  0  0  0  0  0  0  0  0  0
    2.1729   -7.8862    4.9976 H   0  0  0  0  0  0  0  0  0  0  0  0
    6.9899   -7.9197    3.2003 H   0  0  0  0  0  0  0  0  0  0  0  0
    6.2980   -8.1899    4.6618 H   0  0  0  0  0  0  0  0  0  0  0  0
    6.9846   -6.6804    4.5318 H   0  0  0  0  0  0  0  0  0  0  0  0
    4.7433   -8.3783    2.0665 H   0  0  0  0  0  0  0  0  0  0  0  0
    7.9824   -6.0874    3.0610 H   0  0  0  0  0  0  0  0  0  0  0  0
    7.9637   -5.8150    1.2415 H   0  0  0  0  0  0  0  0  0  0  0  0
    6.2848   -5.7754   -0.0060 H   0  0  0  0  0  0  0  0  0  0  0  0
    4.0449   -7.2047    0.5644 H   0  0  0  0  0  0  0  0  0  0  0  0
    4.1516   -4.9669   -0.9846 H   0  0  0  0  0  0  0  0  0  0  0  0
    6.2900   -3.1671   -0.0610 H   0  0  0  0  0  0  0  0  0  0  0  0
    5.7619   -3.6165   -1.6702 H   0  0  0  0  0  0  0  0  0  0  0  0
    4.8192   -1.4183   -0.0181 H   0  0  0  0  0  0  0  0  0  0  0  0
    4.3346   -1.7378   -1.6635 H   0  0  0  0  0  0  0  0  0  0  0  0
    2.5774   -1.9360    0.4683 H   0  0  0  0  0  0  0  0  0  0  0  0
    1.6354   -2.3089   -1.3391 H   0  0  0  0  0  0  0  0  0  0  0  0
  1  2  2  0
  1 46  1  0
  1 47  1  0
 31  2  1  1
  2  3  1  0
  3  4  1  0
  3 48  1  0
  3 49  1  0
  4 34  1  0
  4  5  1  6
  4  7  1  0
  5  6  1  0
  6 50  1  0
  6 51  1  0
  6 52  1  0
  7  8  1  0
  7 12  1  0
  7 53  1  6
  8  9  1  0
  8 10  1  0
  8 11  1  0
  9 54  1  0
  9 55  1  0
  9 56  1  0
 10 57  1  0
 10 58  1  0
 10 59  1  0
 11 60  1  0
 12 13  1  0
 12 61  1  0
 12 62  1  0
 13 14  1  0
 13 16  1  0
 13 63  1  6
 14 15  1  0
 15 64  1  0
 15 65  1  0
 15 66  1  0
 16 29  1  0
 16 35  1  6
 16 17  1  0
 17 18  2  3
 17 67  1  0
 19 18  1  1
 18 68  1  0
 19 41  1  0
 19 44  1  0
 19 20  1  0
 20 21  2  3
 20 69  1  0
 21 22  1  0
 21 70  1  0
 22 31  1  0
 22 23  1  0
 22 71  1  6
 23 24  2  0
 23 25  1  1
 25 26  1  0
 25 27  1  0
 25 28  1  0
 26 72  1  0
 26 73  1  0
 26 74  1  0
 27 75  1  0
 27 76  1  0
 27 77  1  0
 28 29  1  0
 29 30  1  1
 29 31  1  0
 30 78  1  0
 31 32  1  0
 32 33  1  1
 32 34  1  0
 32 36  1  0
 33 79  1  0
 33 80  1  0
 33 81  1  0
 34 35  1  0
 34 82  1  6
 36 38  1  1
 36 37  1  0
 36 39  1  0
 37 38  1  0
 37 83  1  0
 37 84  1  0
 39 40  1  0
 39 41  1  0
 39 85  1  6
 40 86  1  0
 41 42  1  0
 41 87  1  6
 42 43  1  0
 42 88  1  0
 42 89  1  0
 43 44  1  0
 43 90  1  0
 43 91  1  0
 44 45  1  0
 44 92  1  1
 45 93  1  0
M  END
>  <i_m_ct_stereo_status>  (50) 
1

>  <s_m_source_file>  (50) 
/var/tmp/pbs.5075288.sched01/tmp228mwnki/64h1usuhcs.sdf

>  <i_m_source_file_index>  (50) 
29

>  <i_lp_mmshare_version>  (50) 
48012

>  <i_f3d_flags>  (50) 
0

>  <s_epik_input>  (50) 
W0NIM11PW0NAQEhdMVtDSDJdW0NASF0oQyhbQ0gzXSkoW0NIM10pW09IXSlbQ0BdKE9bQ0gzXSkoW0NIMl1DMj1bQ0gyXSlbQ0BASF0oTzMpW0NAQF00KFtDSDNdKUM1KFtDSDJdTzUpW0NAQEhdKFtPSF0pW0NASF0oW0NIMl1bQ0gyXVtDQEhdNltPSF0pW0NAQF02KC9bQ0hdPVtDSF1cNykvW0NIXT1bQ0hdL1tDQEBIXShbUytdKFtPLV0pQyhPOCkoW0NIM10pW0NIM10pW0NAXTI0W0NAQF04KFtDQF0xMzcpW09IXQ==

>  <s_epik_cmdline>  (50) 
J2VwaWtfcHl0aG9uJywgJy1waHQnLCAnMi4wJywgJy1waCcsICc3LjAnLCAnLXRuJywgJzgnLCAnLW1hJywgJzIwMCcsICctaW1hZScsICc8aW5maWxlLm1hZT4nLCAnLW9tYWUnLCAnPG91dGZpbGUubWFlPic=

>  <r_lp_tautomer_probability>  (50) 
1

>  <r_epik_Ionization_Penalty>  (50) 
6.47439e-06

>  <r_epik_Ionization_Penalty_Charging>  (50) 
0

>  <r_epik_Ionization_Penalty_Neutral>  (50) 
6.47439e-06

>  <r_epik_State_Penalty>  (50) 
-0

>  <r_epik_Charging_Adjusted_Penalty>  (50) 
0

>  <i_epik_Tot_Q>  (50) 
0

>  <i_epik_Tot_abs_Q>  (50) 
2

>  <s_lp_Force_Field>  (50) 
OPLS3e

>  <r_lp_Energy>  (50) 
281.581

>  <b_lp_Chiralities_Consistent>  (50) 
1

>  <s_lp_Variant>  (50) 
41:0-2

>  <s_i_glide_gridfile>  (50) 
pfpi4k_grid

>  <i_i_glide_lignum>  (50) 
29

>  <i_i_glide_rotatable_bonds>  (50) 
7

>  <r_i_docking_score>  (50) 
-3.25208

>  <r_i_glide_ligand_efficiency>  (50) 
-0.0722684

>  <r_i_glide_ligand_efficiency_sa>  (50) 
-0.257051

>  <r_i_glide_ligand_efficiency_ln>  (50) 
-0.676577

>  <r_i_glide_gscore>  (50) 
-3.25208

>  <r_i_glide_lipo>  (50) 
-0.244175

>  <r_i_glide_hbond>  (50) 
-0.187934

>  <r_i_glide_metal>  (50) 
-0

>  <r_i_glide_rewards>  (50) 
-0.5

>  <r_i_glide_evdw>  (50) 
-18.7739

>  <r_i_glide_ecoul>  (50) 
-9.54417

>  <r_i_glide_erotb>  (50) 
0.0504293

>  <r_i_glide_esite>  (50) 
-7.8159e-05

>  <r_i_glide_emodel>  (50) 
-34.1724

>  <r_i_glide_energy>  (50) 
-28.3181

>  <r_i_glide_einternal>  (50) 
6.72265

>  <r_i_glide_intrahb_reward>  (50) 
-0.5

>  <i_i_glide_confnum>  (50) 
3

>  <i_i_glide_posenum>  (50) 
24

>  <r_i_glide_eff_state_penalty>  (50) 
0

>  <ligand_id>  (50) 
41

>  <original_smiles>  (50) 
C=C1CC2(OC)C(C(C)(C)O)CC(OC)C34C=CC56C=CC7[S+]([O-])C(C)(C)OC3(O)C17C(C)(C2O4)C1(CO1)C(O)C5CCC6O

>  <smiles>  (50) 
[H]OC1([H])C([H])([H])C([H])([H])C2([H])C([H])(O[H])C3(OC3([H])[H])C3(C([H])([H])[H])C4([H])OC56C([H])=C([H])C12C([H])=C([H])C1([H])S(=O)C(C([H])([H])[H])(C([H])([H])[H])OC5(O[H])C13C(=C([H])[H])C([H])([H])C4(OC([H])([H])[H])C([H])(C(O[H])(C([H])([H])[H])C([H])([H])[H])C([H])([H])C6([H])OC([H])([H])[H]

$$$$
41:1:1
     RDKit          3D

 93100  0  0  1  0  0  0  0  0999 V2000
    3.3496   -3.1832    8.0081 C   0  0  0  0  0  0  0  0  0  0  0  0
    3.4155   -3.4731    6.6842 C   0  0  0  0  0  0  0  0  0  0  0  0
    3.4220   -2.2993    5.6395 C   0  0  0  0  0  0  0  0  0  0  0  0
    2.7397   -2.5813    4.1956 C   0  0  1  0  0  0  0  0  0  0  0  0
    1.6371   -1.6335    4.2405 O   0  0  0  0  0  0  0  0  0  0  0  0
    0.6066   -1.5410    3.2471 C   0  0  0  0  0  0  0  0  0  0  0  0
    3.6031   -2.1720    2.8889 C   0  0  1  0  0  0  0  0  0  0  0  0
    4.0144   -0.6231    2.7544 C   0  0  0  0  0  0  0  0  0  0  0  0
    2.8537    0.4032    2.7187 C   0  0  0  0  0  0  0  0  0  0  0  0
    5.0385   -0.1585    3.8112 C   0  0  0  0  0  0  0  0  0  0  0  0
    4.6664   -0.3896    1.5078 O   0  0  0  0  0  0  0  0  0  0  0  0
    4.8440   -3.0586    2.4491 C   0  0  0  0  0  0  0  0  0  0  0  0
    4.8522   -4.6306    2.4159 C   0  0  1  0  0  0  0  0  0  0  0  0
    6.1871   -5.1315    2.3407 O   0  0  0  0  0  0  0  0  0  0  0  0
    6.8756   -4.8838    1.1220 C   0  0  0  0  0  0  0  0  0  0  0  0
    4.1021   -5.3854    3.5563 C   0  0  1  0  0  0  0  0  0  0  0  0
    4.1596   -6.9176    3.3601 C   0  0  0  0  0  0  0  0  0  0  0  0
    3.0491   -7.6415    3.1139 C   0  0  0  0  0  0  0  0  0  0  0  0
    2.2507   -8.5479    4.0948 C   0  0  1  0  0  0  0  0  0  0  0  0
    2.3808   -8.2456    5.6125 C   0  0  0  0  0  0  0  0  0  0  0  0
    3.3426   -7.4968    6.1512 C   0  0  0  0  0  0  0  0  0  0  0  0
    3.2564   -6.2258    7.0255 C   0  0  1  0  0  0  0  0  0  0  0  0
    4.7550   -6.3967    8.1281 S   0  0  0  0  0  0  0  0  0  0  0  0
    4.7982   -5.3847    9.2687 O   0  0  0  0  0  0  0  0  0  0  0  0
    6.0283   -6.0047    6.8392 C   0  0  0  0  0  0  0  0  0  0  0  0
    6.7758   -4.7270    7.3046 C   0  0  0  0  0  0  0  0  0  0  0  0
    6.9795   -7.2118    6.8462 C   0  0  0  0  0  0  0  0  0  0  0  0
    5.5083   -5.9858    5.4973 O   0  0  0  0  0  0  0  0  0  0  0  0
    4.5485   -5.0497    5.0413 C   0  0  1  0  0  0  0  0  0  0  0  0
    5.3950   -3.9278    5.0092 O   0  0  0  0  0  0  0  0  0  0  0  0
    3.2399   -4.8974    6.0884 C   0  0  2  0  0  0  0  0  0  0  0  0
    1.7062   -4.7068    5.4103 C   0  0  1  0  0  0  0  0  0  0  0  0
    0.8351   -3.5979    6.1982 C   0  0  0  0  0  0  0  0  0  0  0  0
    2.0842   -4.0204    4.0948 C   0  0  2  0  0  0  0  0  0  0  0  0
    2.7705   -4.9549    3.2647 O   0  0  0  0  0  0  0  0  0  0  0  0
    0.5803   -5.8952    5.3379 C   0  0  2  0  0  0  0  0  0  0  0  0
   -0.6934   -5.6783    6.1863 C   0  0  0  0  0  0  0  0  0  0  0  0
    0.2544   -6.6042    6.5478 O   0  0  0  0  0  0  0  0  0  0  0  0
    0.2495   -6.7569    4.0224 C   0  0  1  0  0  0  0  0  0  0  0  0
    0.2535   -6.0171    2.8323 O   0  0  0  0  0  0  0  0  0  0  0  0
    0.7769   -8.2276    3.7645 C   0  0  2  0  0  0  0  0  0  0  0  0
   -0.0285   -9.4255    4.3088 C   0  0  0  0  0  0  0  0  0  0  0  0
    0.9766  -10.5967    4.3855 C   0  0  0  0  0  0  0  0  0  0  0  0
    2.3335  -10.0705    3.8648 C   0  0  1  0  0  0  0  0  0  0  0  0
    2.4703  -10.3763    2.4860 O   0  0  0  0  0  0  0  0  0  0  0  0
    3.1809   -3.9418    8.7509 H   0  0  0  0  0  0  0  0  0  0  0  0
    3.3925   -2.1630    8.3544 H   0  0  0  0  0  0  0  0  0  0  0  0
    2.9510   -1.4316    6.1017 H   0  0  0  0  0  0  0  0  0  0  0  0
    4.4332   -1.9319    5.5524 H   0  0  0  0  0  0  0  0  0  0  0  0
    0.0830   -0.5963    3.4004 H   0  0  0  0  0  0  0  0  0  0  0  0
   -0.1506   -2.3160    3.3232 H   0  0  0  0  0  0  0  0  0  0  0  0
    0.9754   -1.5326    2.2259 H   0  0  0  0  0  0  0  0  0  0  0  0
    2.9145   -2.3701    2.0697 H   0  0  0  0  0  0  0  0  0  0  0  0
    2.3833    0.5103    3.6994 H   0  0  0  0  0  0  0  0  0  0  0  0
    2.0947    0.1388    1.9818 H   0  0  0  0  0  0  0  0  0  0  0  0
    3.1930    1.4036    2.4468 H   0  0  0  0  0  0  0  0  0  0  0  0
    4.6042   -0.1486    4.8098 H   0  0  0  0  0  0  0  0  0  0  0  0
    5.3696    0.8654    3.6377 H   0  0  0  0  0  0  0  0  0  0  0  0
    5.9284   -0.7857    3.8198 H   0  0  0  0  0  0  0  0  0  0  0  0
    4.0372   -0.4844    0.8152 H   0  0  0  0  0  0  0  0  0  0  0  0
    5.0585   -2.7802    1.4205 H   0  0  0  0  0  0  0  0  0  0  0  0
    5.7407   -2.7363    2.9715 H   0  0  0  0  0  0  0  0  0  0  0  0
    4.3604   -4.9249    1.4881 H   0  0  0  0  0  0  0  0  0  0  0  0
    7.8609   -5.3513    1.1644 H   0  0  0  0  0  0  0  0  0  0  0  0
    7.0321   -3.8193    0.9479 H   0  0  0  0  0  0  0  0  0  0  0  0
    6.3485   -5.3056    0.2648 H   0  0  0  0  0  0  0  0  0  0  0  0
    4.9503   -7.4164    3.8800 H   0  0  0  0  0  0  0  0  0  0  0  0
    2.3777   -7.0951    2.4841 H   0  0  0  0  0  0  0  0  0  0  0  0
    1.4530   -8.3295    6.1289 H   0  0  0  0  0  0  0  0  0  0  0  0
    4.2778   -7.7060    5.6945 H   0  0  0  0  0  0  0  0  0  0  0  0
    2.3973   -6.2477    7.6900 H   0  0  0  0  0  0  0  0  0  0  0  0
    7.5349   -4.4218    6.5811 H   0  0  0  0  0  0  0  0  0  0  0  0
    7.2854   -4.8885    8.2574 H   0  0  0  0  0  0  0  0  0  0  0  0
    6.1053   -3.8847    7.4652 H   0  0  0  0  0  0  0  0  0  0  0  0
    7.7898   -7.0853    6.1268 H   0  0  0  0  0  0  0  0  0  0  0  0
    6.4555   -8.1295    6.5808 H   0  0  0  0  0  0  0  0  0  0  0  0
    7.4321   -7.3707    7.8263 H   0  0  0  0  0  0  0  0  0  0  0  0
    5.6238   -3.7189    5.8784 H   0  0  0  0  0  0  0  0  0  0  0  0
   -0.1313   -3.4333    5.7022 H   0  0  0  0  0  0  0  0  0  0  0  0
    1.1423   -2.5709    6.2793 H   0  0  0  0  0  0  0  0  0  0  0  0
    0.7219   -3.8510    7.2479 H   0  0  0  0  0  0  0  0  0  0  0  0
    1.1619   -3.9051    3.5351 H   0  0  0  0  0  0  0  0  0  0  0  0
   -0.7694   -4.9307    6.9835 H   0  0  0  0  0  0  0  0  0  0  0  0
   -1.6278   -6.0370    5.8010 H   0  0  0  0  0  0  0  0  0  0  0  0
   -0.8197   -6.9442    4.0795 H   0  0  0  0  0  0  0  0  0  0  0  0
    1.1504   -5.7574    2.6556 H   0  0  0  0  0  0  0  0  0  0  0  0
    0.6547   -8.3870    2.6819 H   0  0  0  0  0  0  0  0  0  0  0  0
   -0.4489   -9.2116    5.2911 H   0  0  0  0  0  0  0  0  0  0  0  0
   -0.8658   -9.6760    3.6571 H   0  0  0  0  0  0  0  0  0  0  0  0
    1.0861  -10.8955    5.4311 H   0  0  0  0  0  0  0  0  0  0  0  0
    0.6371  -11.4858    3.8546 H   0  0  0  0  0  0  0  0  0  0  0  0
    3.1740  -10.5121    4.3975 H   0  0  0  0  0  0  0  0  0  0  0  0
    1.6719  -10.1637    2.0408 H   0  0  0  0  0  0  0  0  0  0  0  0
  1  2  2  0
  1 46  1  0
  1 47  1  0
 31  2  1  1
  2  3  1  0
  3  4  1  0
  3 48  1  0
  3 49  1  0
  4 34  1  0
  4  5  1  1
  4  7  1  0
  5  6  1  0
  6 50  1  0
  6 51  1  0
  6 52  1  0
  7  8  1  0
  7 12  1  0
  7 53  1  6
  8  9  1  0
  8 10  1  0
  8 11  1  0
  9 54  1  0
  9 55  1  0
  9 56  1  0
 10 57  1  0
 10 58  1  0
 10 59  1  0
 11 60  1  0
 12 13  1  0
 12 61  1  0
 12 62  1  0
 13 14  1  0
 13 16  1  0
 13 63  1  6
 14 15  1  0
 15 64  1  0
 15 65  1  0
 15 66  1  0
 16 29  1  0
 16 35  1  1
 16 17  1  0
 17 18  2  3
 17 67  1  0
 19 18  1  6
 18 68  1  0
 19 41  1  0
 19 44  1  0
 19 20  1  0
 20 21  2  3
 20 69  1  0
 21 22  1  0
 21 70  1  0
 22 31  1  0
 22 23  1  0
 22 71  1  1
 23 24  2  0
 23 25  1  6
 25 26  1  0
 25 27  1  0
 25 28  1  0
 26 72  1  0
 26 73  1  0
 26 74  1  0
 27 75  1  0
 27 76  1  0
 27 77  1  0
 28 29  1  0
 29 30  1  6
 29 31  1  0
 30 78  1  0
 31 32  1  0
 32 33  1  1
 32 34  1  0
 32 36  1  0
 33 79  1  0
 33 80  1  0
 33 81  1  0
 34 35  1  0
 34 82  1  6
 36 38  1  1
 36 37  1  0
 36 39  1  0
 37 38  1  0
 37 83  1  0
 37 84  1  0
 39 40  1  0
 39 41  1  0
 39 85  1  1
 40 86  1  0
 41 42  1  0
 41 87  1  6
 42 43  1  0
 42 88  1  0
 42 89  1  0
 43 44  1  0
 43 90  1  0
 43 91  1  0
 44 45  1  0
 44 92  1  1
 45 93  1  0
M  END
>  <i_m_ct_stereo_status>  (51) 
1

>  <s_m_source_file>  (51) 
/var/tmp/pbs.5075288.sched01/tmp228mwnki/64h1usuhcs.sdf

>  <i_m_source_file_index>  (51) 
29

>  <i_lp_mmshare_version>  (51) 
48012

>  <i_f3d_flags>  (51) 
0

>  <s_epik_input>  (51) 
W0NIM11PW0NAQEhdMVtDSDJdW0NASF0oQyhbQ0gzXSkoW0NIM10pW09IXSlbQ0BdKE9bQ0gzXSkoW0NIMl1DMj1bQ0gyXSlbQ0BASF0oTzMpW0NAQF00KFtDSDNdKUM1KFtDSDJdTzUpW0NAQEhdKFtPSF0pW0NASF0oW0NIMl1bQ0gyXVtDQEhdNltPSF0pW0NAQF02KC9bQ0hdPVtDSF1cNykvW0NIXT1bQ0hdL1tDQEBIXShbUytdKFtPLV0pQyhPOCkoW0NIM10pW0NIM10pW0NAXTI0W0NAQF04KFtDQF0xMzcpW09IXQ==

>  <s_epik_cmdline>  (51) 
J2VwaWtfcHl0aG9uJywgJy1waHQnLCAnMi4wJywgJy1waCcsICc3LjAnLCAnLXRuJywgJzgnLCAnLW1hJywgJzIwMCcsICctaW1hZScsICc8aW5maWxlLm1hZT4nLCAnLW9tYWUnLCAnPG91dGZpbGUubWFlPic=

>  <r_lp_tautomer_probability>  (51) 
1

>  <r_epik_Ionization_Penalty>  (51) 
6.47439e-06

>  <r_epik_Ionization_Penalty_Charging>  (51) 
0

>  <r_epik_Ionization_Penalty_Neutral>  (51) 
6.47439e-06

>  <r_epik_State_Penalty>  (51) 
-0

>  <r_epik_Charging_Adjusted_Penalty>  (51) 
0

>  <i_epik_Tot_Q>  (51) 
0

>  <i_epik_Tot_abs_Q>  (51) 
2

>  <s_lp_Force_Field>  (51) 
OPLS3e

>  <r_lp_Energy>  (51) 
281.581

>  <b_lp_Chiralities_Consistent>  (51) 
1

>  <s_lp_Variant>  (51) 
41:0-2

>  <s_i_glide_gridfile>  (51) 
pfpi4k_grid

>  <i_i_glide_lignum>  (51) 
29

>  <i_i_glide_rotatable_bonds>  (51) 
7

>  <r_i_docking_score>  (51) 
-2.55687

>  <r_i_glide_ligand_efficiency>  (51) 
-0.0568194

>  <r_i_glide_ligand_efficiency_sa>  (51) 
-0.202101

>  <r_i_glide_ligand_efficiency_ln>  (51) 
-0.531944

>  <r_i_glide_gscore>  (51) 
-2.55687

>  <r_i_glide_lipo>  (51) 
-0.358356

>  <r_i_glide_hbond>  (51) 
0

>  <r_i_glide_metal>  (51) 
-0

>  <r_i_glide_rewards>  (51) 
-0.500053

>  <r_i_glide_evdw>  (51) 
-22.1486

>  <r_i_glide_ecoul>  (51) 
-4.27642

>  <r_i_glide_erotb>  (51) 
0.0504293

>  <r_i_glide_esite>  (51) 
0

>  <r_i_glide_emodel>  (51) 
-34.2597

>  <r_i_glide_energy>  (51) 
-26.4251

>  <r_i_glide_einternal>  (51) 
0.442786

>  <r_i_glide_intrahb_reward>  (51) 
-0.5

>  <i_i_glide_confnum>  (51) 
1

>  <i_i_glide_posenum>  (51) 
25

>  <r_i_glide_eff_state_penalty>  (51) 
0

>  <ligand_id>  (51) 
41

>  <original_smiles>  (51) 
C=C1CC2(OC)C(C(C)(C)O)CC(OC)C34C=CC56C=CC7[S+]([O-])C(C)(C)OC3(O)C17C(C)(C2O4)C1(CO1)C(O)C5CCC6O

>  <smiles>  (51) 
[H]OC1([H])C([H])([H])C([H])([H])C2([H])C([H])(O[H])C3(OC3([H])[H])C3(C([H])([H])[H])C4([H])OC56C([H])=C([H])C12C([H])=C([H])C1([H])S(=O)C(C([H])([H])[H])(C([H])([H])[H])OC5(O[H])C13C(=C([H])[H])C([H])([H])C4(OC([H])([H])[H])C([H])(C(O[H])(C([H])([H])[H])C([H])([H])[H])C([H])([H])C6([H])OC([H])([H])[H]

$$$$
41:1:2
     RDKit          3D

 93100  0  0  1  0  0  0  0  0999 V2000
    6.9049   -5.0581    6.4900 C   0  0  0  0  0  0  0  0  0  0  0  0
    5.7935   -4.8886    5.7232 C   0  0  0  0  0  0  0  0  0  0  0  0
    5.2728   -3.4350    5.4357 C   0  0  0  0  0  0  0  0  0  0  0  0
    3.6748   -3.2300    5.2486 C   0  0  1  0  0  0  0  0  0  0  0  0
    3.3711   -2.3792    6.3886 O   0  0  0  0  0  0  0  0  0  0  0  0
    2.0530   -1.9283    6.7457 C   0  0  0  0  0  0  0  0  0  0  0  0
    3.1920   -2.3876    3.9552 C   0  0  1  0  0  0  0  0  0  0  0  0
    3.7269   -0.8700    3.8453 C   0  0  0  0  0  0  0  0  0  0  0  0
    3.3616    0.1002    5.0063 C   0  0  0  0  0  0  0  0  0  0  0  0
    5.2475   -0.7615    3.5813 C   0  0  0  0  0  0  0  0  0  0  0  0
    3.1331   -0.2352    2.7161 O   0  0  0  0  0  0  0  0  0  0  0  0
    3.2603   -3.0499    2.5163 C   0  0  0  0  0  0  0  0  0  0  0  0
    2.8181   -4.5195    2.1830 C   0  0  1  0  0  0  0  0  0  0  0  0
    3.3210   -4.9359    0.9139 O   0  0  0  0  0  0  0  0  0  0  0  0
    2.9041   -4.1657   -0.2088 C   0  0  0  0  0  0  0  0  0  0  0  0
    3.1226   -5.6285    3.2321 C   0  0  1  0  0  0  0  0  0  0  0  0
    2.5821   -7.0048    2.7841 C   0  0  0  0  0  0  0  0  0  0  0  0
    1.6002   -7.6352    3.4565 C   0  0  0  0  0  0  0  0  0  0  0  0
    1.7206   -8.8366    4.4403 C   0  0  1  0  0  0  0  0  0  0  0  0
    3.0889   -9.0544    5.1379 C   0  0  0  0  0  0  0  0  0  0  0  0
    4.2342   -8.5015    4.7370 C   0  0  0  0  0  0  0  0  0  0  0  0
    5.2367   -7.5995    5.4917 C   0  0  1  0  0  0  0  0  0  0  0  0
    6.8738   -8.0925    4.7321 S   0  0  0  0  0  0  0  0  0  0  0  0
    8.0844   -7.5076    5.4527 O   0  0  0  0  0  0  0  0  0  0  0  0
    6.6165   -7.2601    3.0953 C   0  0  0  0  0  0  0  0  0  0  0  0
    7.7360   -6.1960    2.9370 C   0  0  0  0  0  0  0  0  0  0  0  0
    6.8003   -8.3741    2.0532 C   0  0  0  0  0  0  0  0  0  0  0  0
    5.2657   -6.8055    2.8758 O   0  0  0  0  0  0  0  0  0  0  0  0
    4.6480   -5.7969    3.6489 C   0  0  1  0  0  0  0  0  0  0  0  0
    5.3698   -4.7093    3.1306 O   0  0  0  0  0  0  0  0  0  0  0  0
    4.8369   -6.0340    5.3014 C   0  0  2  0  0  0  0  0  0  0  0  0
    3.5290   -5.6710    6.3146 C   0  0  1  0  0  0  0  0  0  0  0  0
    4.0105   -4.8933    7.6360 C   0  0  0  0  0  0  0  0  0  0  0  0
    2.8552   -4.5686    5.4725 C   0  0  2  0  0  0  0  0  0  0  0  0
    2.2949   -5.1562    4.2990 O   0  0  0  0  0  0  0  0  0  0  0  0
    2.5542   -6.7825    7.0009 C   0  0  2  0  0  0  0  0  0  0  0  0
    2.6155   -6.8949    8.5559 C   0  0  0  0  0  0  0  0  0  0  0  0
    3.1710   -7.8571    7.7259 O   0  0  0  0  0  0  0  0  0  0  0  0
    1.0959   -7.1661    6.4592 C   0  0  1  0  0  0  0  0  0  0  0  0
    0.3415   -6.0630    6.0191 O   0  0  0  0  0  0  0  0  0  0  0  0
    0.7644   -8.4540    5.5927 C   0  0  2  0  0  0  0  0  0  0  0  0
    0.4502   -9.7839    6.3072 C   0  0  0  0  0  0  0  0  0  0  0  0
    0.7320  -10.8884    5.2602 C   0  0  0  0  0  0  0  0  0  0  0  0
    1.1648  -10.1904    3.9550 C   0  0  1  0  0  0  0  0  0  0  0  0
    0.0352  -10.0306    3.1110 O   0  0  0  0  0  0  0  0  0  0  0  0
    7.2032   -6.0218    6.8510 H   0  0  0  0  0  0  0  0  0  0  0  0
    7.4748   -4.2085    6.8269 H   0  0  0  0  0  0  0  0  0  0  0  0
    5.6301   -2.7818    6.2336 H   0  0  0  0  0  0  0  0  0  0  0  0
    5.8301   -3.0299    4.6053 H   0  0  0  0  0  0  0  0  0  0  0  0
    2.1863   -1.1100    7.4572 H   0  0  0  0  0  0  0  0  0  0  0  0
    1.4393   -2.6774    7.2511 H   0  0  0  0  0  0  0  0  0  0  0  0
    1.5168   -1.4967    5.9067 H   0  0  0  0  0  0  0  0  0  0  0  0
    2.1145   -2.3182    4.0850 H   0  0  0  0  0  0  0  0  0  0  0  0
    3.9325   -0.1471    5.9092 H   0  0  0  0  0  0  0  0  0  0  0  0
    2.2919    0.0706    5.2282 H   0  0  0  0  0  0  0  0  0  0  0  0
    3.6470    1.1337    4.7653 H   0  0  0  0  0  0  0  0  0  0  0  0
    5.8196   -1.0906    4.4470 H   0  0  0  0  0  0  0  0  0  0  0  0
    5.5438    0.2777    3.4031 H   0  0  0  0  0  0  0  0  0  0  0  0
    5.5616   -1.3394    2.7053 H   0  0  0  0  0  0  0  0  0  0  0  0
    2.2032   -0.1945    2.8403 H   0  0  0  0  0  0  0  0  0  0  0  0
    2.6198   -2.4409    1.8801 H   0  0  0  0  0  0  0  0  0  0  0  0
    4.2429   -2.8909    2.0804 H   0  0  0  0  0  0  0  0  0  0  0  0
    1.7326   -4.4967    2.0836 H   0  0  0  0  0  0  0  0  0  0  0  0
    3.3248   -4.5969   -1.1159 H   0  0  0  0  0  0  0  0  0  0  0  0
    3.2632   -3.1377   -0.1628 H   0  0  0  0  0  0  0  0  0  0  0  0
    1.8186   -4.1535   -0.3159 H   0  0  0  0  0  0  0  0  0  0  0  0
    3.2886   -7.6288    2.2750 H   0  0  0  0  0  0  0  0  0  0  0  0
    0.8870   -6.9290    3.8323 H   0  0  0  0  0  0  0  0  0  0  0  0
    2.9898   -9.3284    6.1637 H   0  0  0  0  0  0  0  0  0  0  0  0
    4.3105   -8.5225    3.6786 H   0  0  0  0  0  0  0  0  0  0  0  0
    5.3016   -7.8657    6.5459 H   0  0  0  0  0  0  0  0  0  0  0  0
    7.6383   -5.6482    1.9996 H   0  0  0  0  0  0  0  0  0  0  0  0
    8.7262   -6.6539    2.9432 H   0  0  0  0  0  0  0  0  0  0  0  0
    7.7368   -5.4755    3.7524 H   0  0  0  0  0  0  0  0  0  0  0  0
    6.6884   -7.9959    1.0382 H   0  0  0  0  0  0  0  0  0  0  0  0
    6.0631   -9.1662    2.1857 H   0  0  0  0  0  0  0  0  0  0  0  0
    7.7855   -8.8312    2.1272 H   0  0  0  0  0  0  0  0  0  0  0  0
    6.2583   -4.8141    3.3810 H   0  0  0  0  0  0  0  0  0  0  0  0
    3.1397   -4.6226    8.2656 H   0  0  0  0  0  0  0  0  0  0  0  0
    4.4932   -3.9677    7.6245 H   0  0  0  0  0  0  0  0  0  0  0  0
    4.6952   -5.5185    8.2293 H   0  0  0  0  0  0  0  0  0  0  0  0
    1.9609   -4.2844    6.0116 H   0  0  0  0  0  0  0  0  0  0  0  0
    3.4415   -6.4588    9.1441 H   0  0  0  0  0  0  0  0  0  0  0  0
    1.6898   -7.1794    9.0589 H   0  0  0  0  0  0  0  0  0  0  0  0
    0.5323   -7.3888    7.3501 H   0  0  0  0  0  0  0  0  0  0  0  0
    0.7700   -5.7020    5.2536 H   0  0  0  0  0  0  0  0  0  0  0  0
   -0.2127   -8.2511    5.1292 H   0  0  0  0  0  0  0  0  0  0  0  0
    1.0767   -9.9222    7.1877 H   0  0  0  0  0  0  0  0  0  0  0  0
   -0.5846   -9.8300    6.6464 H   0  0  0  0  0  0  0  0  0  0  0  0
    1.5583  -11.5012    5.6201 H   0  0  0  0  0  0  0  0  0  0  0  0
   -0.1012  -11.5743    5.1187 H   0  0  0  0  0  0  0  0  0  0  0  0
    1.9210  -10.7639    3.4212 H   0  0  0  0  0  0  0  0  0  0  0  0
   -0.7379  -10.2303    3.6123 H   0  0  0  0  0  0  0  0  0  0  0  0
  1  2  2  0
  1 46  1  0
  1 47  1  0
 31  2  1  1
  2  3  1  0
  3  4  1  0
  3 48  1  0
  3 49  1  0
  4 34  1  0
  4  5  1  1
  4  7  1  0
  5  6  1  0
  6 50  1  0
  6 51  1  0
  6 52  1  0
  7  8  1  0
  7 12  1  0
  7 53  1  1
  8  9  1  0
  8 10  1  0
  8 11  1  0
  9 54  1  0
  9 55  1  0
  9 56  1  0
 10 57  1  0
 10 58  1  0
 10 59  1  0
 11 60  1  0
 12 13  1  0
 12 61  1  0
 12 62  1  0
 13 14  1  0
 13 16  1  0
 13 63  1  6
 14 15  1  0
 15 64  1  0
 15 65  1  0
 15 66  1  0
 16 29  1  0
 16 35  1  1
 16 17  1  0
 17 18  2  3
 17 67  1  0
 19 18  1  6
 18 68  1  0
 19 41  1  0
 19 44  1  0
 19 20  1  0
 20 21  2  3
 20 69  1  0
 21 22  1  0
 21 70  1  0
 22 31  1  0
 22 23  1  0
 22 71  1  1
 23 24  2  0
 23 25  1  6
 25 26  1  0
 25 27  1  0
 25 28  1  0
 26 72  1  0
 26 73  1  0
 26 74  1  0
 27 75  1  0
 27 76  1  0
 27 77  1  0
 28 29  1  0
 29 30  1  6
 29 31  1  0
 30 78  1  0
 31 32  1  0
 32 33  1  1
 32 34  1  0
 32 36  1  0
 33 79  1  0
 33 80  1  0
 33 81  1  0
 34 35  1  0
 34 82  1  1
 36 38  1  6
 36 37  1  0
 36 39  1  0
 37 38  1  0
 37 83  1  0
 37 84  1  0
 39 40  1  0
 39 41  1  0
 39 85  1  1
 40 86  1  0
 41 42  1  0
 41 87  1  6
 42 43  1  0
 42 88  1  0
 42 89  1  0
 43 44  1  0
 43 90  1  0
 43 91  1  0
 44 45  1  0
 44 92  1  6
 45 93  1  0
M  END
>  <i_m_ct_stereo_status>  (52) 
1

>  <s_m_source_file>  (52) 
/var/tmp/pbs.5075288.sched01/tmp228mwnki/64h1usuhcs.sdf

>  <i_m_source_file_index>  (52) 
29

>  <i_lp_mmshare_version>  (52) 
48012

>  <i_f3d_flags>  (52) 
0

>  <s_epik_input>  (52) 
W0NIM11PW0NAQEhdMVtDSDJdW0NASF0oQyhbQ0gzXSkoW0NIM10pW09IXSlbQ0BdKE9bQ0gzXSkoW0NIMl1DMj1bQ0gyXSlbQ0BASF0oTzMpW0NAQF00KFtDSDNdKUM1KFtDSDJdTzUpW0NAQEhdKFtPSF0pW0NASF0oW0NIMl1bQ0gyXVtDQEhdNltPSF0pW0NAQF02KC9bQ0hdPVtDSF1cNykvW0NIXT1bQ0hdL1tDQEBIXShbUytdKFtPLV0pQyhPOCkoW0NIM10pW0NIM10pW0NAXTI0W0NAQF04KFtDQF0xMzcpW09IXQ==

>  <s_epik_cmdline>  (52) 
J2VwaWtfcHl0aG9uJywgJy1waHQnLCAnMi4wJywgJy1waCcsICc3LjAnLCAnLXRuJywgJzgnLCAnLW1hJywgJzIwMCcsICctaW1hZScsICc8aW5maWxlLm1hZT4nLCAnLW9tYWUnLCAnPG91dGZpbGUubWFlPic=

>  <r_lp_tautomer_probability>  (52) 
1

>  <r_epik_Ionization_Penalty>  (52) 
6.47439e-06

>  <r_epik_Ionization_Penalty_Charging>  (52) 
0

>  <r_epik_Ionization_Penalty_Neutral>  (52) 
6.47439e-06

>  <r_epik_State_Penalty>  (52) 
-0

>  <r_epik_Charging_Adjusted_Penalty>  (52) 
0

>  <i_epik_Tot_Q>  (52) 
0

>  <i_epik_Tot_abs_Q>  (52) 
2

>  <s_lp_Force_Field>  (52) 
OPLS3e

>  <r_lp_Energy>  (52) 
281.581

>  <b_lp_Chiralities_Consistent>  (52) 
1

>  <s_lp_Variant>  (52) 
41:0-2

>  <s_i_glide_gridfile>  (52) 
pfpi4k_grid

>  <i_i_glide_lignum>  (52) 
29

>  <i_i_glide_rotatable_bonds>  (52) 
7

>  <r_i_docking_score>  (52) 
-2.08813

>  <r_i_glide_ligand_efficiency>  (52) 
-0.0464029

>  <r_i_glide_ligand_efficiency_sa>  (52) 
-0.16505

>  <r_i_glide_ligand_efficiency_ln>  (52) 
-0.434425

>  <r_i_glide_gscore>  (52) 
-2.08813

>  <r_i_glide_lipo>  (52) 
-0.250424

>  <r_i_glide_hbond>  (52) 
-0.0748398

>  <r_i_glide_metal>  (52) 
-0

>  <r_i_glide_rewards>  (52) 
-0.5

>  <r_i_glide_evdw>  (52) 
-23.016

>  <r_i_glide_ecoul>  (52) 
-1.08333

>  <r_i_glide_erotb>  (52) 
0.0504293

>  <r_i_glide_esite>  (52) 
0

>  <r_i_glide_emodel>  (52) 
-29.6625

>  <r_i_glide_energy>  (52) 
-24.0993

>  <r_i_glide_einternal>  (52) 
1.53073

>  <r_i_glide_intrahb_reward>  (52) 
-0.5

>  <i_i_glide_confnum>  (52) 
5

>  <i_i_glide_posenum>  (52) 
9

>  <r_i_glide_eff_state_penalty>  (52) 
0

>  <ligand_id>  (52) 
41

>  <original_smiles>  (52) 
C=C1CC2(OC)C(C(C)(C)O)CC(OC)C34C=CC56C=CC7[S+]([O-])C(C)(C)OC3(O)C17C(C)(C2O4)C1(CO1)C(O)C5CCC6O

>  <smiles>  (52) 
[H]OC1([H])C([H])([H])C([H])([H])C2([H])C([H])(O[H])C3(OC3([H])[H])C3(C([H])([H])[H])C4([H])OC56C([H])=C([H])C12C([H])=C([H])C1([H])S(=O)C(C([H])([H])[H])(C([H])([H])[H])OC5(O[H])C13C(=C([H])[H])C([H])([H])C4(OC([H])([H])[H])C([H])(C(O[H])(C([H])([H])[H])C([H])([H])[H])C([H])([H])C6([H])OC([H])([H])[H]

$$$$
41:2:0
     RDKit          3D

 93100  0  0  1  0  0  0  0  0999 V2000
    3.4755   -3.4923    7.7827 C   0  0  0  0  0  0  0  0  0  0  0  0
    3.4557   -3.6026    6.4427 C   0  0  0  0  0  0  0  0  0  0  0  0
    3.2418   -2.3146    5.5938 C   0  0  0  0  0  0  0  0  0  0  0  0
    2.3216   -2.4235    4.3091 C   0  0  1  0  0  0  0  0  0  0  0  0
    1.1234   -1.7451    4.7451 O   0  0  0  0  0  0  0  0  0  0  0  0
   -0.0402   -1.6586    3.9214 C   0  0  0  0  0  0  0  0  0  0  0  0
    2.8950   -1.6269    3.0513 C   0  0  1  0  0  0  0  0  0  0  0  0
    2.8567   -0.0229    3.0912 C   0  0  0  0  0  0  0  0  0  0  0  0
    3.7336    0.6184    4.1859 C   0  0  0  0  0  0  0  0  0  0  0  0
    3.1841    0.6144    1.7199 C   0  0  0  0  0  0  0  0  0  0  0  0
    1.5632    0.5180    3.3172 O   0  0  0  0  0  0  0  0  0  0  0  0
    4.3222   -2.1030    2.6241 C   0  0  0  0  0  0  0  0  0  0  0  0
    4.6127   -3.5727    2.1936 C   0  0  1  0  0  0  0  0  0  0  0  0
    6.0241   -3.7337    2.0068 O   0  0  0  0  0  0  0  0  0  0  0  0
    6.5867   -3.1160    0.8536 C   0  0  0  0  0  0  0  0  0  0  0  0
    4.0511   -4.7758    3.0389 C   0  0  1  0  0  0  0  0  0  0  0  0
    4.4231   -6.0513    2.2670 C   0  0  0  0  0  0  0  0  0  0  0  0
    4.1515   -7.3666    2.4299 C   0  0  0  0  0  0  0  0  0  0  0  0
    3.1691   -8.2187    3.2656 C   0  0  1  0  0  0  0  0  0  0  0  0
    3.4112   -8.3734    4.8033 C   0  0  0  0  0  0  0  0  0  0  0  0
    3.5786   -7.6810    5.9638 C   0  0  0  0  0  0  0  0  0  0  0  0
    3.6872   -6.2500    6.5334 C   0  0  1  0  0  0  0  0  0  0  0  0
    5.3924   -6.2872    7.3145 S   0  0  0  0  0  0  0  0  0  0  0  0
    5.7396   -5.0100    8.0819 O   0  0  0  0  0  0  0  0  0  0  0  0
    6.3131   -6.2811    5.7095 C   0  0  0  0  0  0  0  0  0  0  0  0
    7.5268   -5.3257    5.8574 C   0  0  0  0  0  0  0  0  0  0  0  0
    6.8576   -7.7103    5.5089 C   0  0  0  0  0  0  0  0  0  0  0  0
    5.4441   -6.0215    4.5874 O   0  0  0  0  0  0  0  0  0  0  0  0
    4.5847   -4.8914    4.5273 C   0  0  1  0  0  0  0  0  0  0  0  0
    5.4315   -3.7984    4.7661 O   0  0  0  0  0  0  0  0  0  0  0  0
    3.3989   -4.9604    5.6520 C   0  0  2  0  0  0  0  0  0  0  0  0
    1.8230   -4.9239    5.1376 C   0  0  1  0  0  0  0  0  0  0  0  0
    0.8991   -4.2044    6.2168 C   0  0  0  0  0  0  0  0  0  0  0  0
    1.9255   -3.9186    3.9627 C   0  0  2  0  0  0  0  0  0  0  0  0
    2.6605   -4.5507    2.9150 O   0  0  0  0  0  0  0  0  0  0  0  0
    0.9814   -6.2603    4.7813 C   0  0  2  0  0  0  0  0  0  0  0  0
   -0.2703   -6.5360    5.6610 C   0  0  0  0  0  0  0  0  0  0  0  0
    0.9121   -7.2938    5.7721 O   0  0  0  0  0  0  0  0  0  0  0  0
    0.8517   -6.8064    3.3238 C   0  0  1  0  0  0  0  0  0  0  0  0
    0.6228   -5.9249    2.2465 O   0  0  0  0  0  0  0  0  0  0  0  0
    1.6792   -8.0288    2.8724 C   0  0  2  0  0  0  0  0  0  0  0  0
    0.9729   -9.3749    3.1729 C   0  0  0  0  0  0  0  0  0  0  0  0
    2.0533  -10.4512    3.1453 C   0  0  0  0  0  0  0  0  0  0  0  0
    3.3303   -9.7093    2.7240 C   0  0  1  0  0  0  0  0  0  0  0  0
    3.4060   -9.8365    1.3075 O   0  0  0  0  0  0  0  0  0  0  0  0
    3.4967   -4.3436    8.4464 H   0  0  0  0  0  0  0  0  0  0  0  0
    3.4269   -2.5238    8.2597 H   0  0  0  0  0  0  0  0  0  0  0  0
    2.8200   -1.5623    6.2641 H   0  0  0  0  0  0  0  0  0  0  0  0
    4.2047   -1.8749    5.3598 H   0  0  0  0  0  0  0  0  0  0  0  0
   -0.6347   -0.8057    4.2429 H   0  0  0  0  0  0  0  0  0  0  0  0
   -0.6770   -2.5361    3.9857 H   0  0  0  0  0  0  0  0  0  0  0  0
    0.2127   -1.4892    2.8795 H   0  0  0  0  0  0  0  0  0  0  0  0
    2.2528   -1.9140    2.2159 H   0  0  0  0  0  0  0  0  0  0  0  0
    4.7736    0.2967    4.1283 H   0  0  0  0  0  0  0  0  0  0  0  0
    3.3584    0.3911    5.1842 H   0  0  0  0  0  0  0  0  0  0  0  0
    3.7300    1.7055    4.0925 H   0  0  0  0  0  0  0  0  0  0  0  0
    4.2466    0.5648    1.4817 H   0  0  0  0  0  0  0  0  0  0  0  0
    2.9193    1.6727    1.7087 H   0  0  0  0  0  0  0  0  0  0  0  0
    2.6277    0.1352    0.9116 H   0  0  0  0  0  0  0  0  0  0  0  0
    1.5720    1.4301    3.0915 H   0  0  0  0  0  0  0  0  0  0  0  0
    4.5693   -1.5294    1.7398 H   0  0  0  0  0  0  0  0  0  0  0  0
    5.0644   -1.7877    3.3515 H   0  0  0  0  0  0  0  0  0  0  0  0
    4.1527   -3.6843    1.2116 H   0  0  0  0  0  0  0  0  0  0  0  0
    7.6514   -3.3440    0.8128 H   0  0  0  0  0  0  0  0  0  0  0  0
    6.5001   -2.0292    0.8697 H   0  0  0  0  0  0  0  0  0  0  0  0
    6.1317   -3.4922   -0.0643 H   0  0  0  0  0  0  0  0  0  0  0  0
    5.1782   -5.8788    1.5156 H   0  0  0  0  0  0  0  0  0  0  0  0
    4.7353   -7.9538    1.7353 H   0  0  0  0  0  0  0  0  0  0  0  0
    3.4586   -9.4201    5.0591 H   0  0  0  0  0  0  0  0  0  0  0  0
    3.7000   -8.3661    6.7945 H   0  0  0  0  0  0  0  0  0  0  0  0
    2.9824   -6.2446    7.3662 H   0  0  0  0  0  0  0  0  0  0  0  0
    8.0110   -5.1538    4.8978 H   0  0  0  0  0  0  0  0  0  0  0  0
    8.2783   -5.7352    6.5316 H   0  0  0  0  0  0  0  0  0  0  0  0
    7.2694   -4.3559    6.2758 H   0  0  0  0  0  0  0  0  0  0  0  0
    7.4415   -7.7835    4.5912 H   0  0  0  0  0  0  0  0  0  0  0  0
    6.0698   -8.4548    5.4380 H   0  0  0  0  0  0  0  0  0  0  0  0
    7.5041   -8.0177    6.3321 H   0  0  0  0  0  0  0  0  0  0  0  0
    5.7320   -3.8632    5.6564 H   0  0  0  0  0  0  0  0  0  0  0  0
   -0.1504   -4.1723    5.8664 H   0  0  0  0  0  0  0  0  0  0  0  0
    1.0740   -3.2203    6.5050 H   0  0  0  0  0  0  0  0  0  0  0  0
    0.8777   -4.7872    7.1575 H   0  0  0  0  0  0  0  0  0  0  0  0
    0.9347   -3.8705    3.5325 H   0  0  0  0  0  0  0  0  0  0  0  0
   -0.4288   -6.0176    6.6160 H   0  0  0  0  0  0  0  0  0  0  0  0
   -1.0972   -7.0889    5.1567 H   0  0  0  0  0  0  0  0  0  0  0  0
   -0.1456   -7.2140    3.3269 H   0  0  0  0  0  0  0  0  0  0  0  0
    1.4519   -5.4698    2.0955 H   0  0  0  0  0  0  0  0  0  0  0  0
    1.6758   -7.9920    1.7756 H   0  0  0  0  0  0  0  0  0  0  0  0
    0.4956   -9.3713    4.1514 H   0  0  0  0  0  0  0  0  0  0  0  0
    0.1980   -9.5871    2.4353 H   0  0  0  0  0  0  0  0  0  0  0  0
    2.1645  -10.8946    4.1340 H   0  0  0  0  0  0  0  0  0  0  0  0
    1.8028  -11.2832    2.4841 H   0  0  0  0  0  0  0  0  0  0  0  0
    4.2252  -10.1945    3.1260 H   0  0  0  0  0  0  0  0  0  0  0  0
    3.6583  -10.7405    1.0802 H   0  0  0  0  0  0  0  0  0  0  0  0
  1  2  2  0
  1 46  1  0
  1 47  1  0
 31  2  1  1
  2  3  1  0
  3  4  1  0
  3 48  1  0
  3 49  1  0
  4 34  1  0
  4  5  1  1
  4  7  1  0
  5  6  1  0
  6 50  1  0
  6 51  1  0
  6 52  1  0
  7  8  1  0
  7 12  1  0
  7 53  1  6
  8  9  1  0
  8 10  1  0
  8 11  1  0
  9 54  1  0
  9 55  1  0
  9 56  1  0
 10 57  1  0
 10 58  1  0
 10 59  1  0
 11 60  1  0
 12 13  1  0
 12 61  1  0
 12 62  1  0
 13 14  1  0
 13 16  1  0
 13 63  1  6
 14 15  1  0
 15 64  1  0
 15 65  1  0
 15 66  1  0
 16 29  1  0
 16 35  1  1
 16 17  1  0
 17 18  2  3
 17 67  1  0
 19 18  1  6
 18 68  1  0
 19 41  1  0
 19 44  1  0
 19 20  1  0
 20 21  2  3
 20 69  1  0
 21 22  1  0
 21 70  1  0
 22 31  1  0
 22 23  1  0
 22 71  1  1
 23 24  2  0
 23 25  1  6
 25 26  1  0
 25 27  1  0
 25 28  1  0
 26 72  1  0
 26 73  1  0
 26 74  1  0
 27 75  1  0
 27 76  1  0
 27 77  1  0
 28 29  1  0
 29 30  1  1
 29 31  1  0
 30 78  1  0
 31 32  1  0
 32 33  1  1
 32 34  1  0
 32 36  1  0
 33 79  1  0
 33 80  1  0
 33 81  1  0
 34 35  1  0
 34 82  1  6
 36 38  1  1
 36 37  1  0
 36 39  1  0
 37 38  1  0
 37 83  1  0
 37 84  1  0
 39 40  1  0
 39 41  1  0
 39 85  1  1
 40 86  1  0
 41 42  1  0
 41 87  1  6
 42 43  1  0
 42 88  1  0
 42 89  1  0
 43 44  1  0
 43 90  1  0
 43 91  1  0
 44 45  1  0
 44 92  1  1
 45 93  1  0
M  END
>  <i_m_ct_stereo_status>  (53) 
1

>  <s_m_source_file>  (53) 
/var/tmp/pbs.5075288.sched01/tmp228mwnki/64h1usuhcs.sdf

>  <i_m_source_file_index>  (53) 
30

>  <i_lp_mmshare_version>  (53) 
48012

>  <i_f3d_flags>  (53) 
0

>  <s_epik_input>  (53) 
W0NIM11PW0NAQEhdMVtDSDJdW0NASF0oQyhbQ0gzXSkoW0NIM10pW09IXSlbQ0BdKE9bQ0gzXSkoW0NIMl1DMj1bQ0gyXSlbQ0BASF0oTzMpW0NAQF00KFtDSDNdKUM1KFtDSDJdTzUpW0NAQEhdKFtPSF0pW0NASF0oW0NIMl1bQ0gyXVtDQEhdNltPSF0pW0NAQF02KC9bQ0hdPVtDSF1cNykvW0NIXT1bQ0hdL1tDQEBIXShbUytdKFtPLV0pQyhPOCkoW0NIM10pW0NIM10pW0NAXTI0W0NAQF04KFtDQF0xMzcpW09IXQ==

>  <s_epik_cmdline>  (53) 
J2VwaWtfcHl0aG9uJywgJy1waHQnLCAnMi4wJywgJy1waCcsICc3LjAnLCAnLXRuJywgJzgnLCAnLW1hJywgJzIwMCcsICctaW1hZScsICc8aW5maWxlLm1hZT4nLCAnLW9tYWUnLCAnPG91dGZpbGUubWFlPic=

>  <r_lp_tautomer_probability>  (53) 
1

>  <r_epik_Ionization_Penalty>  (53) 
6.47439e-06

>  <r_epik_Ionization_Penalty_Charging>  (53) 
0

>  <r_epik_Ionization_Penalty_Neutral>  (53) 
6.47439e-06

>  <r_epik_State_Penalty>  (53) 
-0

>  <r_epik_Charging_Adjusted_Penalty>  (53) 
0

>  <i_epik_Tot_Q>  (53) 
0

>  <i_epik_Tot_abs_Q>  (53) 
2

>  <s_lp_Force_Field>  (53) 
OPLS3e

>  <r_lp_Energy>  (53) 
222.721

>  <b_lp_Chiralities_Consistent>  (53) 
1

>  <s_lp_Variant>  (53) 
41:0-3

>  <s_i_glide_gridfile>  (53) 
pfpi4k_grid

>  <i_i_glide_lignum>  (53) 
30

>  <i_i_glide_rotatable_bonds>  (53) 
7

>  <r_i_docking_score>  (53) 
-3.15576

>  <r_i_glide_ligand_efficiency>  (53) 
-0.070128

>  <r_i_glide_ligand_efficiency_sa>  (53) 
-0.249438

>  <r_i_glide_ligand_efficiency_ln>  (53) 
-0.656539

>  <r_i_glide_gscore>  (53) 
-3.15576

>  <r_i_glide_lipo>  (53) 
-0.366657

>  <r_i_glide_hbond>  (53) 
-0.16

>  <r_i_glide_metal>  (53) 
-0

>  <r_i_glide_rewards>  (53) 
-0.500218

>  <r_i_glide_evdw>  (53) 
-20.4593

>  <r_i_glide_ecoul>  (53) 
-7.70899

>  <r_i_glide_erotb>  (53) 
0.0504293

>  <r_i_glide_esite>  (53) 
0

>  <r_i_glide_emodel>  (53) 
-37.7346

>  <r_i_glide_energy>  (53) 
-28.1683

>  <r_i_glide_einternal>  (53) 
0.798659

>  <r_i_glide_intrahb_reward>  (53) 
-0.5

>  <i_i_glide_confnum>  (53) 
5

>  <i_i_glide_posenum>  (53) 
2

>  <r_i_glide_eff_state_penalty>  (53) 
0

>  <ligand_id>  (53) 
41

>  <original_smiles>  (53) 
C=C1CC2(OC)C(C(C)(C)O)CC(OC)C34C=CC56C=CC7[S+]([O-])C(C)(C)OC3(O)C17C(C)(C2O4)C1(CO1)C(O)C5CCC6O

>  <smiles>  (53) 
[H]OC1([H])C([H])([H])C([H])([H])C2([H])C([H])(O[H])C3(OC3([H])[H])C3(C([H])([H])[H])C4([H])OC56C([H])=C([H])C12C([H])=C([H])C1([H])S(=O)C(C([H])([H])[H])(C([H])([H])[H])OC5(O[H])C13C(=C([H])[H])C([H])([H])C4(OC([H])([H])[H])C([H])(C(O[H])(C([H])([H])[H])C([H])([H])[H])C([H])([H])C6([H])OC([H])([H])[H]

$$$$
41:2:1
     RDKit          3D

 93100  0  0  1  0  0  0  0  0999 V2000
    6.2816   -6.6529    5.8297 C   0  0  0  0  0  0  0  0  0  0  0  0
    5.1367   -6.5341    5.1215 C   0  0  0  0  0  0  0  0  0  0  0  0
    4.3930   -7.8315    4.6958 C   0  0  0  0  0  0  0  0  0  0  0  0
    3.7490   -7.8611    3.2504 C   0  0  1  0  0  0  0  0  0  0  0  0
    4.6418   -8.7252    2.5180 O   0  0  0  0  0  0  0  0  0  0  0  0
    4.4894   -8.9954    1.1159 C   0  0  0  0  0  0  0  0  0  0  0  0
    2.3076   -8.5388    3.2252 C   0  0  1  0  0  0  0  0  0  0  0  0
    2.2081  -10.1259    3.4400 C   0  0  0  0  0  0  0  0  0  0  0  0
    2.6466  -10.6291    4.8299 C   0  0  0  0  0  0  0  0  0  0  0  0
    0.8088  -10.7015    3.0968 C   0  0  0  0  0  0  0  0  0  0  0  0
    3.0207  -10.8437    2.5406 O   0  0  0  0  0  0  0  0  0  0  0  0
    1.2792   -7.8416    4.1685 C   0  0  0  0  0  0  0  0  0  0  0  0
    0.8921   -6.3400    4.0027 C   0  0  1  0  0  0  0  0  0  0  0  0
    0.0557   -5.9481    5.0920 O   0  0  0  0  0  0  0  0  0  0  0  0
   -1.2371   -6.5305    5.1263 C   0  0  0  0  0  0  0  0  0  0  0  0
    2.0070   -5.2516    3.7935 C   0  0  1  0  0  0  0  0  0  0  0  0
    1.2716   -3.9265    3.5561 C   0  0  0  0  0  0  0  0  0  0  0  0
    1.6665   -2.6854    3.2306 C   0  0  0  0  0  0  0  0  0  0  0  0
    2.9469   -2.0112    2.6848 C   0  0  1  0  0  0  0  0  0  0  0  0
    4.1739   -1.8284    3.6329 C   0  0  0  0  0  0  0  0  0  0  0  0
    5.0233   -2.4920    4.4458 C   0  0  0  0  0  0  0  0  0  0  0  0
    5.3305   -3.8886    5.0231 C   0  0  1  0  0  0  0  0  0  0  0  0
    5.1780   -3.5820    6.8623 S   0  0  0  0  0  0  0  0  0  0  0  0
    5.5844   -4.7804    7.7187 O   0  0  0  0  0  0  0  0  0  0  0  0
    3.3367   -3.4221    6.8507 C   0  0  0  0  0  0  0  0  0  0  0  0
    2.7850   -4.1696    8.0906 C   0  0  0  0  0  0  0  0  0  0  0  0
    3.0253   -1.9222    7.0190 C   0  0  0  0  0  0  0  0  0  0  0  0
    2.7714   -3.8017    5.5836 O   0  0  0  0  0  0  0  0  0  0  0  0
    3.0406   -5.0601    4.9755 C   0  0  1  0  0  0  0  0  0  0  0  0
    2.7177   -6.0040    5.9565 O   0  0  0  0  0  0  0  0  0  0  0  0
    4.5989   -5.1927    4.5032 C   0  0  2  0  0  0  0  0  0  0  0  0
    4.9243   -5.4825    2.9054 C   0  0  1  0  0  0  0  0  0  0  0  0
    6.2642   -6.3276    2.7303 C   0  0  0  0  0  0  0  0  0  0  0  0
    3.7729   -6.4468    2.5388 C   0  0  2  0  0  0  0  0  0  0  0  0
    2.5606   -5.7074    2.5789 O   0  0  0  0  0  0  0  0  0  0  0  0
    5.1458   -4.3058    1.8073 C   0  0  2  0  0  0  0  0  0  0  0  0
    6.5397   -4.2270    1.1442 C   0  0  0  0  0  0  0  0  0  0  0  0
    6.1273   -3.2828    2.0856 O   0  0  0  0  0  0  0  0  0  0  0  0
    3.9916   -3.7802    0.9079 C   0  0  1  0  0  0  0  0  0  0  0  0
    3.1197   -4.6802    0.2421 O   0  0  0  0  0  0  0  0  0  0  0  0
    3.3115   -2.4279    1.2304 C   0  0  2  0  0  0  0  0  0  0  0  0
    4.0375   -1.2113    0.5908 C   0  0  0  0  0  0  0  0  0  0  0  0
    3.5723    0.0219    1.3678 C   0  0  0  0  0  0  0  0  0  0  0  0
    2.5381   -0.5115    2.3755 C   0  0  1  0  0  0  0  0  0  0  0  0
    1.2535   -0.3255    1.7881 O   0  0  0  0  0  0  0  0  0  0  0  0
    6.9206   -5.8152    6.0626 H   0  0  0  0  0  0  0  0  0  0  0  0
    6.6330   -7.6223    6.1552 H   0  0  0  0  0  0  0  0  0  0  0  0
    5.1199   -8.6468    4.7643 H   0  0  0  0  0  0  0  0  0  0  0  0
    3.6848   -8.1234    5.4710 H   0  0  0  0  0  0  0  0  0  0  0  0
    5.0108   -9.9276    0.9069 H   0  0  0  0  0  0  0  0  0  0  0  0
    4.9305   -8.2351    0.4709 H   0  0  0  0  0  0  0  0  0  0  0  0
    3.4514   -9.1388    0.8191 H   0  0  0  0  0  0  0  0  0  0  0  0
    1.9212   -8.3627    2.2196 H   0  0  0  0  0  0  0  0  0  0  0  0
    2.1014  -10.1526    5.6446 H   0  0  0  0  0  0  0  0  0  0  0  0
    3.7137  -10.4724    4.9912 H   0  0  0  0  0  0  0  0  0  0  0  0
    2.4777  -11.7050    4.9265 H   0  0  0  0  0  0  0  0  0  0  0  0
    0.0621  -10.4906    3.8655 H   0  0  0  0  0  0  0  0  0  0  0  0
    0.8397  -11.7905    3.0025 H   0  0  0  0  0  0  0  0  0  0  0  0
    0.4453  -10.3122    2.1431 H   0  0  0  0  0  0  0  0  0  0  0  0
    2.8472  -11.7676    2.6376 H   0  0  0  0  0  0  0  0  0  0  0  0
    0.3418   -8.3619    4.0079 H   0  0  0  0  0  0  0  0  0  0  0  0
    1.5099   -8.0463    5.2119 H   0  0  0  0  0  0  0  0  0  0  0  0
    0.2748   -6.2911    3.1039 H   0  0  0  0  0  0  0  0  0  0  0  0
   -1.7711   -6.0761    5.9567 H   0  0  0  0  0  0  0  0  0  0  0  0
   -1.2136   -7.6093    5.2742 H   0  0  0  0  0  0  0  0  0  0  0  0
   -1.8068   -6.3238    4.2213 H   0  0  0  0  0  0  0  0  0  0  0  0
    0.2306   -3.9597    3.8485 H   0  0  0  0  0  0  0  0  0  0  0  0
    0.8270   -2.0165    3.3141 H   0  0  0  0  0  0  0  0  0  0  0  0
    4.4612   -0.7848    3.6554 H   0  0  0  0  0  0  0  0  0  0  0  0
    5.7370   -1.8002    4.8733 H   0  0  0  0  0  0  0  0  0  0  0  0
    6.3946   -4.0281    4.8752 H   0  0  0  0  0  0  0  0  0  0  0  0
    1.7004   -4.2564    8.0431 H   0  0  0  0  0  0  0  0  0  0  0  0
    3.0412   -3.6490    9.0124 H   0  0  0  0  0  0  0  0  0  0  0  0
    3.1933   -5.1728    8.1980 H   0  0  0  0  0  0  0  0  0  0  0  0
    1.9497   -1.7500    7.0511 H   0  0  0  0  0  0  0  0  0  0  0  0
    3.4178   -1.3153    6.2065 H   0  0  0  0  0  0  0  0  0  0  0  0
    3.4492   -1.5265    7.9422 H   0  0  0  0  0  0  0  0  0  0  0  0
    2.7682   -6.8629    5.5591 H   0  0  0  0  0  0  0  0  0  0  0  0
    6.4597   -6.5447    1.6736 H   0  0  0  0  0  0  0  0  0  0  0  0
    6.3361   -7.2927    3.1764 H   0  0  0  0  0  0  0  0  0  0  0  0
    7.1297   -5.7822    3.1210 H   0  0  0  0  0  0  0  0  0  0  0  0
    3.8756   -6.6447    1.4820 H   0  0  0  0  0  0  0  0  0  0  0  0
    7.3972   -4.7614    1.5262 H   0  0  0  0  0  0  0  0  0  0  0  0
    6.6128   -3.8420    0.1441 H   0  0  0  0  0  0  0  0  0  0  0  0
    4.5302   -3.5174    0.0083 H   0  0  0  0  0  0  0  0  0  0  0  0
    3.3470   -4.7255   -0.6750 H   0  0  0  0  0  0  0  0  0  0  0  0
    2.3592   -2.4553    0.6876 H   0  0  0  0  0  0  0  0  0  0  0  0
    5.1210   -1.3009    0.6710 H   0  0  0  0  0  0  0  0  0  0  0  0
    3.7959   -1.1180   -0.4709 H   0  0  0  0  0  0  0  0  0  0  0  0
    4.4236    0.4677    1.8843 H   0  0  0  0  0  0  0  0  0  0  0  0
    3.1807    0.8127    0.7316 H   0  0  0  0  0  0  0  0  0  0  0  0
    2.5121    0.1119    3.2717 H   0  0  0  0  0  0  0  0  0  0  0  0
    1.2761   -0.5879    0.8753 H   0  0  0  0  0  0  0  0  0  0  0  0
  1  2  2  0
  1 46  1  0
  1 47  1  0
 31  2  1  1
  2  3  1  0
  3  4  1  0
  3 48  1  0
  3 49  1  0
  4 34  1  0
  4  5  1  6
  4  7  1  0
  5  6  1  0
  6 50  1  0
  6 51  1  0
  6 52  1  0
  7  8  1  0
  7 12  1  0
  7 53  1  6
  8  9  1  0
  8 10  1  0
  8 11  1  0
  9 54  1  0
  9 55  1  0
  9 56  1  0
 10 57  1  0
 10 58  1  0
 10 59  1  0
 11 60  1  0
 12 13  1  0
 12 61  1  0
 12 62  1  0
 13 14  1  0
 13 16  1  0
 13 63  1  6
 14 15  1  0
 15 64  1  0
 15 65  1  0
 15 66  1  0
 16 29  1  0
 16 35  1  6
 16 17  1  0
 17 18  2  3
 17 67  1  0
 19 18  1  1
 18 68  1  0
 19 41  1  0
 19 44  1  0
 19 20  1  0
 20 21  2  3
 20 69  1  0
 21 22  1  0
 21 70  1  0
 22 31  1  0
 22 23  1  0
 22 71  1  1
 23 24  2  0
 23 25  1  6
 25 26  1  0
 25 27  1  0
 25 28  1  0
 26 72  1  0
 26 73  1  0
 26 74  1  0
 27 75  1  0
 27 76  1  0
 27 77  1  0
 28 29  1  0
 29 30  1  1
 29 31  1  0
 30 78  1  0
 31 32  1  0
 32 33  1  1
 32 34  1  0
 32 36  1  0
 33 79  1  0
 33 80  1  0
 33 81  1  0
 34 35  1  0
 34 82  1  6
 36 38  1  1
 36 37  1  0
 36 39  1  0
 37 38  1  0
 37 83  1  0
 37 84  1  0
 39 40  1  0
 39 41  1  0
 39 85  1  6
 40 86  1  0
 41 42  1  0
 41 87  1  6
 42 43  1  0
 42 88  1  0
 42 89  1  0
 43 44  1  0
 43 90  1  0
 43 91  1  0
 44 45  1  0
 44 92  1  1
 45 93  1  0
M  END
>  <i_m_ct_stereo_status>  (54) 
1

>  <s_m_source_file>  (54) 
/var/tmp/pbs.5075288.sched01/tmp228mwnki/64h1usuhcs.sdf

>  <i_m_source_file_index>  (54) 
30

>  <i_lp_mmshare_version>  (54) 
48012

>  <i_f3d_flags>  (54) 
0

>  <s_epik_input>  (54) 
W0NIM11PW0NAQEhdMVtDSDJdW0NASF0oQyhbQ0gzXSkoW0NIM10pW09IXSlbQ0BdKE9bQ0gzXSkoW0NIMl1DMj1bQ0gyXSlbQ0BASF0oTzMpW0NAQF00KFtDSDNdKUM1KFtDSDJdTzUpW0NAQEhdKFtPSF0pW0NASF0oW0NIMl1bQ0gyXVtDQEhdNltPSF0pW0NAQF02KC9bQ0hdPVtDSF1cNykvW0NIXT1bQ0hdL1tDQEBIXShbUytdKFtPLV0pQyhPOCkoW0NIM10pW0NIM10pW0NAXTI0W0NAQF04KFtDQF0xMzcpW09IXQ==

>  <s_epik_cmdline>  (54) 
J2VwaWtfcHl0aG9uJywgJy1waHQnLCAnMi4wJywgJy1waCcsICc3LjAnLCAnLXRuJywgJzgnLCAnLW1hJywgJzIwMCcsICctaW1hZScsICc8aW5maWxlLm1hZT4nLCAnLW9tYWUnLCAnPG91dGZpbGUubWFlPic=

>  <r_lp_tautomer_probability>  (54) 
1

>  <r_epik_Ionization_Penalty>  (54) 
6.47439e-06

>  <r_epik_Ionization_Penalty_Charging>  (54) 
0

>  <r_epik_Ionization_Penalty_Neutral>  (54) 
6.47439e-06

>  <r_epik_State_Penalty>  (54) 
-0

>  <r_epik_Charging_Adjusted_Penalty>  (54) 
0

>  <i_epik_Tot_Q>  (54) 
0

>  <i_epik_Tot_abs_Q>  (54) 
2

>  <s_lp_Force_Field>  (54) 
OPLS3e

>  <r_lp_Energy>  (54) 
222.721

>  <b_lp_Chiralities_Consistent>  (54) 
1

>  <s_lp_Variant>  (54) 
41:0-3

>  <s_i_glide_gridfile>  (54) 
pfpi4k_grid

>  <i_i_glide_lignum>  (54) 
30

>  <i_i_glide_rotatable_bonds>  (54) 
7

>  <r_i_docking_score>  (54) 
-2.21967

>  <r_i_glide_ligand_efficiency>  (54) 
-0.049326

>  <r_i_glide_ligand_efficiency_sa>  (54) 
-0.175447

>  <r_i_glide_ligand_efficiency_ln>  (54) 
-0.46179

>  <r_i_glide_gscore>  (54) 
-2.21967

>  <r_i_glide_lipo>  (54) 
-0.38316

>  <r_i_glide_hbond>  (54) 
-0.16

>  <r_i_glide_metal>  (54) 
-0

>  <r_i_glide_rewards>  (54) 
-0.00127007

>  <r_i_glide_evdw>  (54) 
-22.3958

>  <r_i_glide_ecoul>  (54) 
-4.03919

>  <r_i_glide_erotb>  (54) 
0.0504293

>  <r_i_glide_esite>  (54) 
0

>  <r_i_glide_emodel>  (54) 
-28.4683

>  <r_i_glide_energy>  (54) 
-26.435

>  <r_i_glide_einternal>  (54) 
3.32773

>  <r_i_glide_intrahb_reward>  (54) 
-0

>  <i_i_glide_confnum>  (54) 
5

>  <i_i_glide_posenum>  (54) 
21

>  <r_i_glide_eff_state_penalty>  (54) 
0

>  <ligand_id>  (54) 
41

>  <original_smiles>  (54) 
C=C1CC2(OC)C(C(C)(C)O)CC(OC)C34C=CC56C=CC7[S+]([O-])C(C)(C)OC3(O)C17C(C)(C2O4)C1(CO1)C(O)C5CCC6O

>  <smiles>  (54) 
[H]OC1([H])C([H])([H])C([H])([H])C2([H])C([H])(O[H])C3(OC3([H])[H])C3(C([H])([H])[H])C4([H])OC56C([H])=C([H])C12C([H])=C([H])C1([H])S(=O)C(C([H])([H])[H])(C([H])([H])[H])OC5(O[H])C13C(=C([H])[H])C([H])([H])C4(OC([H])([H])[H])C([H])(C(O[H])(C([H])([H])[H])C([H])([H])[H])C([H])([H])C6([H])OC([H])([H])[H]

$$$$
41:2:2
     RDKit          3D

 93100  0  0  1  0  0  0  0  0999 V2000
    6.5519   -4.6496    5.8234 C   0  0  0  0  0  0  0  0  0  0  0  0
    5.4095   -4.6884    5.0962 C   0  0  0  0  0  0  0  0  0  0  0  0
    4.6971   -3.3498    4.7637 C   0  0  0  0  0  0  0  0  0  0  0  0
    3.1141   -3.3239    4.8282 C   0  0  1  0  0  0  0  0  0  0  0  0
    2.8552   -2.5643    6.0300 O   0  0  0  0  0  0  0  0  0  0  0  0
    1.5334   -2.3775    6.5543 C   0  0  0  0  0  0  0  0  0  0  0  0
    2.4444   -2.5160    3.6305 C   0  0  1  0  0  0  0  0  0  0  0  0
    2.5809   -0.9143    3.6304 C   0  0  0  0  0  0  0  0  0  0  0  0
    4.0327   -0.3899    3.6343 C   0  0  0  0  0  0  0  0  0  0  0  0
    1.7983   -0.2307    2.4811 C   0  0  0  0  0  0  0  0  0  0  0  0
    1.9548   -0.3050    4.7435 O   0  0  0  0  0  0  0  0  0  0  0  0
    2.8425   -3.0655    2.2266 C   0  0  0  0  0  0  0  0  0  0  0  0
    2.5376   -4.5279    1.7816 C   0  0  1  0  0  0  0  0  0  0  0  0
    3.1331   -4.7734    0.5012 O   0  0  0  0  0  0  0  0  0  0  0  0
    2.7068   -3.9461   -0.5780 C   0  0  0  0  0  0  0  0  0  0  0  0
    2.8306   -5.7308    2.7501 C   0  0  1  0  0  0  0  0  0  0  0  0
    2.2867   -6.9881    2.0551 C   0  0  0  0  0  0  0  0  0  0  0  0
    2.1628   -8.2858    2.4134 C   0  0  0  0  0  0  0  0  0  0  0  0
    2.2541   -9.1043    3.7222 C   0  0  1  0  0  0  0  0  0  0  0  0
    3.6519   -9.3556    4.3718 C   0  0  0  0  0  0  0  0  0  0  0  0
    4.7659   -8.7327    4.8542 C   0  0  0  0  0  0  0  0  0  0  0  0
    5.4096   -7.3451    5.0340 C   0  0  1  0  0  0  0  0  0  0  0  0
    6.9935   -7.5350    4.0466 S   0  0  0  0  0  0  0  0  0  0  0  0
    7.9205   -6.3258    4.1457 O   0  0  0  0  0  0  0  0  0  0  0  0
    6.1661   -7.5204    2.3935 C   0  0  0  0  0  0  0  0  0  0  0  0
    7.0320   -6.6597    1.4335 C   0  0  0  0  0  0  0  0  0  0  0  0
    6.1806   -8.9725    1.8744 C   0  0  0  0  0  0  0  0  0  0  0  0
    4.7785   -7.1491    2.4879 O   0  0  0  0  0  0  0  0  0  0  0  0
    4.3519   -5.9577    3.1322 C   0  0  1  0  0  0  0  0  0  0  0  0
    5.1003   -4.9405    2.5152 O   0  0  0  0  0  0  0  0  0  0  0  0
    4.6190   -5.9998    4.7508 C   0  0  2  0  0  0  0  0  0  0  0  0
    3.3318   -5.8214    5.7704 C   0  0  1  0  0  0  0  0  0  0  0  0
    3.7716   -5.1039    7.1240 C   0  0  0  0  0  0  0  0  0  0  0  0
    2.4906   -4.7741    5.0121 C   0  0  2  0  0  0  0  0  0  0  0  0
    1.9897   -5.3899    3.8306 O   0  0  0  0  0  0  0  0  0  0  0  0
    2.4660   -7.0708    6.3198 C   0  0  2  0  0  0  0  0  0  0  0  0
    2.4948   -7.3164    7.8510 C   0  0  0  0  0  0  0  0  0  0  0  0
    3.1680   -8.1505    6.9623 O   0  0  0  0  0  0  0  0  0  0  0  0
    1.1367   -7.5306    5.6382 C   0  0  1  0  0  0  0  0  0  0  0  0
    0.1462   -6.5836    5.2779 O   0  0  0  0  0  0  0  0  0  0  0  0
    1.1203   -8.7910    4.7380 C   0  0  2  0  0  0  0  0  0  0  0  0
    0.8760  -10.0999    5.5368 C   0  0  0  0  0  0  0  0  0  0  0  0
    1.3529  -11.2519    4.6553 C   0  0  0  0  0  0  0  0  0  0  0  0
    1.7729  -10.5738    3.3434 C   0  0  1  0  0  0  0  0  0  0  0  0
    0.6200  -10.6451    2.5195 O   0  0  0  0  0  0  0  0  0  0  0  0
    7.0461   -5.5315    6.1970 H   0  0  0  0  0  0  0  0  0  0  0  0
    6.9964   -3.7030    6.0934 H   0  0  0  0  0  0  0  0  0  0  0  0
    5.0853   -2.6066    5.4647 H   0  0  0  0  0  0  0  0  0  0  0  0
    5.0688   -2.9653    3.8161 H   0  0  0  0  0  0  0  0  0  0  0  0
    1.5600   -1.5010    7.2022 H   0  0  0  0  0  0  0  0  0  0  0  0
    1.1775   -3.2110    7.1545 H   0  0  0  0  0  0  0  0  0  0  0  0
    0.7922   -2.1767    5.7819 H   0  0  0  0  0  0  0  0  0  0  0  0
    1.3745   -2.7103    3.7054 H   0  0  0  0  0  0  0  0  0  0  0  0
    4.6215   -0.7930    2.8085 H   0  0  0  0  0  0  0  0  0  0  0  0
    4.5457   -0.6265    4.5663 H   0  0  0  0  0  0  0  0  0  0  0  0
    4.0566    0.6980    3.5413 H   0  0  0  0  0  0  0  0  0  0  0  0
    2.2889   -0.3399    1.5121 H   0  0  0  0  0  0  0  0  0  0  0  0
    1.7037    0.8457    2.6447 H   0  0  0  0  0  0  0  0  0  0  0  0
    0.7867   -0.6330    2.4009 H   0  0  0  0  0  0  0  0  0  0  0  0
    2.0499    0.6283    4.6589 H   0  0  0  0  0  0  0  0  0  0  0  0
    2.2648   -2.4810    1.5219 H   0  0  0  0  0  0  0  0  0  0  0  0
    3.8777   -2.8220    1.9986 H   0  0  0  0  0  0  0  0  0  0  0  0
    1.4562   -4.5714    1.6378 H   0  0  0  0  0  0  0  0  0  0  0  0
    3.2159   -4.2474   -1.4895 H   0  0  0  0  0  0  0  0  0  0  0  0
    2.9692   -2.8986   -0.4402 H   0  0  0  0  0  0  0  0  0  0  0  0
    1.6332   -4.0239   -0.7491 H   0  0  0  0  0  0  0  0  0  0  0  0
    2.0866   -6.8344    1.0046 H   0  0  0  0  0  0  0  0  0  0  0  0
    1.8593   -8.8798    1.5639 H   0  0  0  0  0  0  0  0  0  0  0  0
    3.8047  -10.4141    4.5117 H   0  0  0  0  0  0  0  0  0  0  0  0
    5.4647   -9.4651    5.2363 H   0  0  0  0  0  0  0  0  0  0  0  0
    5.7147   -7.3281    6.0802 H   0  0  0  0  0  0  0  0  0  0  0  0
    6.5074   -6.4661    0.4983 H   0  0  0  0  0  0  0  0  0  0  0  0
    7.9719   -7.1559    1.1938 H   0  0  0  0  0  0  0  0  0  0  0  0
    7.3187   -5.6967    1.8531 H   0  0  0  0  0  0  0  0  0  0  0  0
    5.7327   -9.0417    0.8832 H   0  0  0  0  0  0  0  0  0  0  0  0
    5.6284   -9.6560    2.5158 H   0  0  0  0  0  0  0  0  0  0  0  0
    7.1954   -9.3612    1.8031 H   0  0  0  0  0  0  0  0  0  0  0  0
    6.0070   -5.0769    2.7489 H   0  0  0  0  0  0  0  0  0  0  0  0
    2.9056   -4.9724    7.8015 H   0  0  0  0  0  0  0  0  0  0  0  0
    4.1878   -4.1399    7.1016 H   0  0  0  0  0  0  0  0  0  0  0  0
    4.5115   -5.7190    7.6743 H   0  0  0  0  0  0  0  0  0  0  0  0
    1.5875   -4.6370    5.5880 H   0  0  0  0  0  0  0  0  0  0  0  0
    3.2143   -6.8259    8.4968 H   0  0  0  0  0  0  0  0  0  0  0  0
    1.6055   -7.7696    8.2958 H   0  0  0  0  0  0  0  0  0  0  0  0
    0.5658   -7.8872    6.4838 H   0  0  0  0  0  0  0  0  0  0  0  0
   -0.6369   -7.0496    5.0356 H   0  0  0  0  0  0  0  0  0  0  0  0
    0.2096   -8.6985    4.1347 H   0  0  0  0  0  0  0  0  0  0  0  0
    1.4296  -10.1152    6.4741 H   0  0  0  0  0  0  0  0  0  0  0  0
   -0.1790  -10.2222    5.7847 H   0  0  0  0  0  0  0  0  0  0  0  0
    2.2027  -11.7480    5.1243 H   0  0  0  0  0  0  0  0  0  0  0  0
    0.5950  -12.0259    4.5205 H   0  0  0  0  0  0  0  0  0  0  0  0
    2.5514  -11.1422    2.8253 H   0  0  0  0  0  0  0  0  0  0  0  0
    0.4548  -11.5533    2.2953 H   0  0  0  0  0  0  0  0  0  0  0  0
  1  2  2  0
  1 46  1  0
  1 47  1  0
 31  2  1  1
  2  3  1  0
  3  4  1  0
  3 48  1  0
  3 49  1  0
  4 34  1  0
  4  5  1  1
  4  7  1  0
  5  6  1  0
  6 50  1  0
  6 51  1  0
  6 52  1  0
  7  8  1  0
  7 12  1  0
  7 53  1  1
  8  9  1  0
  8 10  1  0
  8 11  1  0
  9 54  1  0
  9 55  1  0
  9 56  1  0
 10 57  1  0
 10 58  1  0
 10 59  1  0
 11 60  1  0
 12 13  1  0
 12 61  1  0
 12 62  1  0
 13 14  1  0
 13 16  1  0
 13 63  1  6
 14 15  1  0
 15 64  1  0
 15 65  1  0
 15 66  1  0
 16 29  1  0
 16 35  1  1
 16 17  1  0
 17 18  2  3
 17 67  1  0
 19 18  1  6
 18 68  1  0
 19 41  1  0
 19 44  1  0
 19 20  1  0
 20 21  2  3
 20 69  1  0
 21 22  1  0
 21 70  1  0
 22 31  1  0
 22 23  1  0
 22 71  1  1
 23 24  2  0
 23 25  1  6
 25 26  1  0
 25 27  1  0
 25 28  1  0
 26 72  1  0
 26 73  1  0
 26 74  1  0
 27 75  1  0
 27 76  1  0
 27 77  1  0
 28 29  1  0
 29 30  1  6
 29 31  1  0
 30 78  1  0
 31 32  1  0
 32 33  1  1
 32 34  1  0
 32 36  1  0
 33 79  1  0
 33 80  1  0
 33 81  1  0
 34 35  1  0
 34 82  1  1
 36 38  1  6
 36 37  1  0
 36 39  1  0
 37 38  1  0
 37 83  1  0
 37 84  1  0
 39 40  1  0
 39 41  1  0
 39 85  1  1
 40 86  1  0
 41 42  1  0
 41 87  1  6
 42 43  1  0
 42 88  1  0
 42 89  1  0
 43 44  1  0
 43 90  1  0
 43 91  1  0
 44 45  1  0
 44 92  1  6
 45 93  1  0
M  END
>  <i_m_ct_stereo_status>  (55) 
1

>  <s_m_source_file>  (55) 
/var/tmp/pbs.5075288.sched01/tmp228mwnki/64h1usuhcs.sdf

>  <i_m_source_file_index>  (55) 
30

>  <i_lp_mmshare_version>  (55) 
48012

>  <i_f3d_flags>  (55) 
0

>  <s_epik_input>  (55) 
W0NIM11PW0NAQEhdMVtDSDJdW0NASF0oQyhbQ0gzXSkoW0NIM10pW09IXSlbQ0BdKE9bQ0gzXSkoW0NIMl1DMj1bQ0gyXSlbQ0BASF0oTzMpW0NAQF00KFtDSDNdKUM1KFtDSDJdTzUpW0NAQEhdKFtPSF0pW0NASF0oW0NIMl1bQ0gyXVtDQEhdNltPSF0pW0NAQF02KC9bQ0hdPVtDSF1cNykvW0NIXT1bQ0hdL1tDQEBIXShbUytdKFtPLV0pQyhPOCkoW0NIM10pW0NIM10pW0NAXTI0W0NAQF04KFtDQF0xMzcpW09IXQ==

>  <s_epik_cmdline>  (55) 
J2VwaWtfcHl0aG9uJywgJy1waHQnLCAnMi4wJywgJy1waCcsICc3LjAnLCAnLXRuJywgJzgnLCAnLW1hJywgJzIwMCcsICctaW1hZScsICc8aW5maWxlLm1hZT4nLCAnLW9tYWUnLCAnPG91dGZpbGUubWFlPic=

>  <r_lp_tautomer_probability>  (55) 
1

>  <r_epik_Ionization_Penalty>  (55) 
6.47439e-06

>  <r_epik_Ionization_Penalty_Charging>  (55) 
0

>  <r_epik_Ionization_Penalty_Neutral>  (55) 
6.47439e-06

>  <r_epik_State_Penalty>  (55) 
-0

>  <r_epik_Charging_Adjusted_Penalty>  (55) 
0

>  <i_epik_Tot_Q>  (55) 
0

>  <i_epik_Tot_abs_Q>  (55) 
2

>  <s_lp_Force_Field>  (55) 
OPLS3e

>  <r_lp_Energy>  (55) 
222.721

>  <b_lp_Chiralities_Consistent>  (55) 
1

>  <s_lp_Variant>  (55) 
41:0-3

>  <s_i_glide_gridfile>  (55) 
pfpi4k_grid

>  <i_i_glide_lignum>  (55) 
30

>  <i_i_glide_rotatable_bonds>  (55) 
7

>  <r_i_docking_score>  (55) 
-1.62683

>  <r_i_glide_ligand_efficiency>  (55) 
-0.0361517

>  <r_i_glide_ligand_efficiency_sa>  (55) 
-0.128588

>  <r_i_glide_ligand_efficiency_ln>  (55) 
-0.338453

>  <r_i_glide_gscore>  (55) 
-1.62683

>  <r_i_glide_lipo>  (55) 
-0.325315

>  <r_i_glide_hbond>  (55) 
0

>  <r_i_glide_metal>  (55) 
-0

>  <r_i_glide_rewards>  (55) 
-0.00200388

>  <r_i_glide_evdw>  (55) 
-26.7209

>  <r_i_glide_ecoul>  (55) 
-0.0926113

>  <r_i_glide_erotb>  (55) 
0.0504293

>  <r_i_glide_esite>  (55) 
0

>  <r_i_glide_emodel>  (55) 
-27.8439

>  <r_i_glide_energy>  (55) 
-26.8136

>  <r_i_glide_einternal>  (55) 
1.06357

>  <r_i_glide_intrahb_reward>  (55) 
-0

>  <i_i_glide_confnum>  (55) 
5

>  <i_i_glide_posenum>  (55) 
24

>  <r_i_glide_eff_state_penalty>  (55) 
0

>  <ligand_id>  (55) 
41

>  <original_smiles>  (55) 
C=C1CC2(OC)C(C(C)(C)O)CC(OC)C34C=CC56C=CC7[S+]([O-])C(C)(C)OC3(O)C17C(C)(C2O4)C1(CO1)C(O)C5CCC6O

>  <smiles>  (55) 
[H]OC1([H])C([H])([H])C([H])([H])C2([H])C([H])(O[H])C3(OC3([H])[H])C3(C([H])([H])[H])C4([H])OC56C([H])=C([H])C12C([H])=C([H])C1([H])S(=O)C(C([H])([H])[H])(C([H])([H])[H])OC5(O[H])C13C(=C([H])[H])C([H])([H])C4(OC([H])([H])[H])C([H])(C(O[H])(C([H])([H])[H])C([H])([H])[H])C([H])([H])C6([H])OC([H])([H])[H]

$$$$
41:3:0
     RDKit          3D

 93100  0  0  1  0  0  0  0  0999 V2000
    4.4629   -2.8938    6.5548 C   0  0  0  0  0  0  0  0  0  0  0  0
    4.2098   -3.4763    5.3421 C   0  0  0  0  0  0  0  0  0  0  0  0
    4.2121   -2.5589    4.0883 C   0  0  0  0  0  0  0  0  0  0  0  0
    3.1288   -2.8491    2.9687 C   0  0  1  0  0  0  0  0  0  0  0  0
    2.2622   -1.7032    3.1073 O   0  0  0  0  0  0  0  0  0  0  0  0
    1.0437   -1.5664    2.3649 C   0  0  0  0  0  0  0  0  0  0  0  0
    3.7028   -2.8441    1.4622 C   0  0  1  0  0  0  0  0  0  0  0  0
    4.1748   -1.4296    0.8692 C   0  0  0  0  0  0  0  0  0  0  0  0
    5.3259   -0.7492    1.6368 C   0  0  0  0  0  0  0  0  0  0  0  0
    4.5312   -1.4861   -0.6318 C   0  0  0  0  0  0  0  0  0  0  0  0
    3.1483   -0.4584    0.8504 O   0  0  0  0  0  0  0  0  0  0  0  0
    4.8022   -3.9319    1.1274 C   0  0  0  0  0  0  0  0  0  0  0  0
    4.6130   -5.4814    1.3374 C   0  0  1  0  0  0  0  0  0  0  0  0
    5.9115   -6.0488    1.1271 O   0  0  0  0  0  0  0  0  0  0  0  0
    6.0439   -7.4529    1.2870 C   0  0  0  0  0  0  0  0  0  0  0  0
    3.8826   -5.9384    2.6384 C   0  0  1  0  0  0  0  0  0  0  0  0
    3.3051   -7.3618    2.5623 C   0  0  0  0  0  0  0  0  0  0  0  0
    3.4273   -8.3082    3.5040 C   0  0  0  0  0  0  0  0  0  0  0  0
    2.2931   -8.7163    4.4112 C   0  0  1  0  0  0  0  0  0  0  0  0
    2.5916   -8.3126    5.8773 C   0  0  0  0  0  0  0  0  0  0  0  0
    3.1572   -7.2862    6.5982 C   0  0  0  0  0  0  0  0  0  0  0  0
    3.7824   -5.8726    6.4580 C   0  0  1  0  0  0  0  0  0  0  0  0
    5.5210   -6.0958    7.1282 S   0  0  0  0  0  0  0  0  0  0  0  0
    6.2392   -4.7889    7.4290 O   0  0  0  0  0  0  0  0  0  0  0  0
    6.2142   -6.8137    5.5740 C   0  0  0  0  0  0  0  0  0  0  0  0
    7.5980   -6.1632    5.3206 C   0  0  0  0  0  0  0  0  0  0  0  0
    6.4014   -8.3129    5.8557 C   0  0  0  0  0  0  0  0  0  0  0  0
    5.2964   -6.7570    4.4734 O   0  0  0  0  0  0  0  0  0  0  0  0
    4.6554   -5.5999    4.0057 C   0  0  1  0  0  0  0  0  0  0  0  0
    5.7467   -4.7803    3.6966 O   0  0  0  0  0  0  0  0  0  0  0  0
    3.6899   -4.9435    5.1552 C   0  0  2  0  0  0  0  0  0  0  0  0
    2.1242   -4.6339    4.7373 C   0  0  1  0  0  0  0  0  0  0  0  0
    1.5776   -3.3420    5.4818 C   0  0  0  0  0  0  0  0  0  0  0  0
    2.2803   -4.1461    3.2741 C   0  0  2  0  0  0  0  0  0  0  0  0
    2.6877   -5.1965    2.4368 O   0  0  0  0  0  0  0  0  0  0  0  0
    0.9172   -5.7074    4.9936 C   0  0  2  0  0  0  0  0  0  0  0  0
   -0.2386   -5.2434    5.9225 C   0  0  0  0  0  0  0  0  0  0  0  0
    0.7085   -6.1797    6.3339 O   0  0  0  0  0  0  0  0  0  0  0  0
    0.4549   -6.7414    3.9154 C   0  0  1  0  0  0  0  0  0  0  0  0
    0.2581   -6.2580    2.6067 O   0  0  0  0  0  0  0  0  0  0  0  0
    0.8837   -8.2543    3.9471 C   0  0  2  0  0  0  0  0  0  0  0  0
   -0.0763   -9.2050    4.6938 C   0  0  0  0  0  0  0  0  0  0  0  0
    0.7009  -10.5085    4.9389 C   0  0  0  0  0  0  0  0  0  0  0  0
    2.1194  -10.2667    4.3963 C   0  0  1  0  0  0  0  0  0  0  0  0
    2.1951  -10.8154    3.0907 O   0  0  0  0  0  0  0  0  0  0  0  0
    4.3526   -3.4177    7.4851 H   0  0  0  0  0  0  0  0  0  0  0  0
    4.7279   -1.8537    6.6137 H   0  0  0  0  0  0  0  0  0  0  0  0
    4.0821   -1.5325    4.4404 H   0  0  0  0  0  0  0  0  0  0  0  0
    5.2096   -2.5112    3.6598 H   0  0  0  0  0  0  0  0  0  0  0  0
    0.7643   -0.5124    2.3401 H   0  0  0  0  0  0  0  0  0  0  0  0
    0.2114   -2.1131    2.8201 H   0  0  0  0  0  0  0  0  0  0  0  0
    1.1414   -1.8619    1.3199 H   0  0  0  0  0  0  0  0  0  0  0  0
    2.8564   -3.1411    0.8390 H   0  0  0  0  0  0  0  0  0  0  0  0
    6.2012   -1.3912    1.7279 H   0  0  0  0  0  0  0  0  0  0  0  0
    5.0245   -0.4322    2.6353 H   0  0  0  0  0  0  0  0  0  0  0  0
    5.6473    0.1530    1.1173 H   0  0  0  0  0  0  0  0  0  0  0  0
    5.4964   -1.9669   -0.8057 H   0  0  0  0  0  0  0  0  0  0  0  0
    4.6118   -0.4845   -1.0567 H   0  0  0  0  0  0  0  0  0  0  0  0
    3.7679   -2.0195   -1.1997 H   0  0  0  0  0  0  0  0  0  0  0  0
    2.4299   -0.7664    0.3039 H   0  0  0  0  0  0  0  0  0  0  0  0
    4.9972   -3.8786    0.0621 H   0  0  0  0  0  0  0  0  0  0  0  0
    5.7463   -3.6179    1.5696 H   0  0  0  0  0  0  0  0  0  0  0  0
    3.9962   -5.8236    0.5087 H   0  0  0  0  0  0  0  0  0  0  0  0
    7.0320   -7.7764    0.9821 H   0  0  0  0  0  0  0  0  0  0  0  0
    5.2767   -8.0037    0.7349 H   0  0  0  0  0  0  0  0  0  0  0  0
    6.0138   -7.7376    2.3334 H   0  0  0  0  0  0  0  0  0  0  0  0
    2.3465   -7.3367    2.0769 H   0  0  0  0  0  0  0  0  0  0  0  0
    4.3591   -8.5716    3.9699 H   0  0  0  0  0  0  0  0  0  0  0  0
    2.2946   -9.1073    6.5448 H   0  0  0  0  0  0  0  0  0  0  0  0
    3.1478   -7.5358    7.6489 H   0  0  0  0  0  0  0  0  0  0  0  0
    3.2571   -5.3295    7.2435 H   0  0  0  0  0  0  0  0  0  0  0  0
    8.0037   -6.4627    4.3515 H   0  0  0  0  0  0  0  0  0  0  0  0
    8.3207   -6.4571    6.0843 H   0  0  0  0  0  0  0  0  0  0  0  0
    7.5725   -5.0765    5.3448 H   0  0  0  0  0  0  0  0  0  0  0  0
    6.8171   -8.8313    4.9902 H   0  0  0  0  0  0  0  0  0  0  0  0
    5.4577   -8.7990    6.0956 H   0  0  0  0  0  0  0  0  0  0  0  0
    7.0735   -8.4882    6.6978 H   0  0  0  0  0  0  0  0  0  0  0  0
    6.1882   -4.5786    4.5073 H   0  0  0  0  0  0  0  0  0  0  0  0
    0.5375   -3.1258    5.1777 H   0  0  0  0  0  0  0  0  0  0  0  0
    2.0527   -2.4118    5.3460 H   0  0  0  0  0  0  0  0  0  0  0  0
    1.5451   -3.4966    6.5780 H   0  0  0  0  0  0  0  0  0  0  0  0
    1.2752   -3.9671    2.9151 H   0  0  0  0  0  0  0  0  0  0  0  0
   -0.1524   -4.3645    6.5548 H   0  0  0  0  0  0  0  0  0  0  0  0
   -1.2278   -5.6827    5.7259 H   0  0  0  0  0  0  0  0  0  0  0  0
   -0.5959   -6.8493    4.1425 H   0  0  0  0  0  0  0  0  0  0  0  0
    1.1135   -6.2205    2.1973 H   0  0  0  0  0  0  0  0  0  0  0  0
    0.7811   -8.6031    2.9137 H   0  0  0  0  0  0  0  0  0  0  0  0
   -0.3818   -8.7802    5.6470 H   0  0  0  0  0  0  0  0  0  0  0  0
   -0.9796   -9.3965    4.1116 H   0  0  0  0  0  0  0  0  0  0  0  0
    0.7405  -10.7038    6.0113 H   0  0  0  0  0  0  0  0  0  0  0  0
    0.2247  -11.3833    4.4911 H   0  0  0  0  0  0  0  0  0  0  0  0
    2.8699  -10.7785    4.9971 H   0  0  0  0  0  0  0  0  0  0  0  0
    1.4739  -10.4890    2.5750 H   0  0  0  0  0  0  0  0  0  0  0  0
  1  2  2  0
  1 46  1  0
  1 47  1  0
 31  2  1  1
  2  3  1  0
  3  4  1  0
  3 48  1  0
  3 49  1  0
  4 34  1  0
  4  5  1  6
  4  7  1  0
  5  6  1  0
  6 50  1  0
  6 51  1  0
  6 52  1  0
  7  8  1  0
  7 12  1  0
  7 53  1  6
  8  9  1  0
  8 10  1  0
  8 11  1  0
  9 54  1  0
  9 55  1  0
  9 56  1  0
 10 57  1  0
 10 58  1  0
 10 59  1  0
 11 60  1  0
 12 13  1  0
 12 61  1  0
 12 62  1  0
 13 14  1  0
 13 16  1  0
 13 63  1  6
 14 15  1  0
 15 64  1  0
 15 65  1  0
 15 66  1  0
 16 29  1  0
 16 35  1  1
 16 17  1  0
 17 18  2  3
 17 67  1  0
 19 18  1  6
 18 68  1  0
 19 41  1  0
 19 44  1  0
 19 20  1  0
 20 21  2  3
 20 69  1  0
 21 22  1  0
 21 70  1  0
 22 31  1  0
 22 23  1  0
 22 71  1  1
 23 24  2  0
 23 25  1  6
 25 26  1  0
 25 27  1  0
 25 28  1  0
 26 72  1  0
 26 73  1  0
 26 74  1  0
 27 75  1  0
 27 76  1  0
 27 77  1  0
 28 29  1  0
 29 30  1  6
 29 31  1  0
 30 78  1  0
 31 32  1  0
 32 33  1  1
 32 34  1  0
 32 36  1  0
 33 79  1  0
 33 80  1  0
 33 81  1  0
 34 35  1  0
 34 82  1  6
 36 38  1  1
 36 37  1  0
 36 39  1  0
 37 38  1  0
 37 83  1  0
 37 84  1  0
 39 40  1  0
 39 41  1  0
 39 85  1  1
 40 86  1  0
 41 42  1  0
 41 87  1  6
 42 43  1  0
 42 88  1  0
 42 89  1  0
 43 44  1  0
 43 90  1  0
 43 91  1  0
 44 45  1  0
 44 92  1  1
 45 93  1  0
M  END
>  <i_m_ct_stereo_status>  (56) 
1

>  <s_m_source_file>  (56) 
/var/tmp/pbs.5075288.sched01/tmp228mwnki/64h1usuhcs.sdf

>  <i_m_source_file_index>  (56) 
31

>  <i_lp_mmshare_version>  (56) 
48012

>  <i_f3d_flags>  (56) 
0

>  <s_epik_input>  (56) 
W0NIM11PW0NAQEhdMVtDSDJdW0NASF0oQyhbQ0gzXSkoW0NIM10pW09IXSlbQ0BdKE9bQ0gzXSkoW0NIMl1DMj1bQ0gyXSlbQ0BASF0oTzMpW0NAQF00KFtDSDNdKUM1KFtDSDJdTzUpW0NAQEhdKFtPSF0pW0NASF0oW0NIMl1bQ0gyXVtDQEhdNltPSF0pW0NAQF02KC9bQ0hdPVtDSF1cNykvW0NIXT1bQ0hdL1tDQEBIXShbUytdKFtPLV0pQyhPOCkoW0NIM10pW0NIM10pW0NAXTI0W0NAQF04KFtDQF0xMzcpW09IXQ==

>  <s_epik_cmdline>  (56) 
J2VwaWtfcHl0aG9uJywgJy1waHQnLCAnMi4wJywgJy1waCcsICc3LjAnLCAnLXRuJywgJzgnLCAnLW1hJywgJzIwMCcsICctaW1hZScsICc8aW5maWxlLm1hZT4nLCAnLW9tYWUnLCAnPG91dGZpbGUubWFlPic=

>  <r_lp_tautomer_probability>  (56) 
1

>  <r_epik_Ionization_Penalty>  (56) 
6.47439e-06

>  <r_epik_Ionization_Penalty_Charging>  (56) 
0

>  <r_epik_Ionization_Penalty_Neutral>  (56) 
6.47439e-06

>  <r_epik_State_Penalty>  (56) 
-0

>  <r_epik_Charging_Adjusted_Penalty>  (56) 
0

>  <i_epik_Tot_Q>  (56) 
0

>  <i_epik_Tot_abs_Q>  (56) 
2

>  <s_lp_Force_Field>  (56) 
OPLS3e

>  <r_lp_Energy>  (56) 
242.009

>  <b_lp_Chiralities_Consistent>  (56) 
1

>  <s_lp_Variant>  (56) 
41:0-4

>  <s_i_glide_gridfile>  (56) 
pfpi4k_grid

>  <i_i_glide_lignum>  (56) 
31

>  <i_i_glide_rotatable_bonds>  (56) 
7

>  <r_i_docking_score>  (56) 
-2.88104

>  <r_i_glide_ligand_efficiency>  (56) 
-0.0640231

>  <r_i_glide_ligand_efficiency_sa>  (56) 
-0.227723

>  <r_i_glide_ligand_efficiency_ln>  (56) 
-0.599385

>  <r_i_glide_gscore>  (56) 
-2.88104

>  <r_i_glide_lipo>  (56) 
-0.322879

>  <r_i_glide_hbond>  (56) 
0

>  <r_i_glide_metal>  (56) 
-0

>  <r_i_glide_rewards>  (56) 
-0.5

>  <r_i_glide_evdw>  (56) 
-25.5988

>  <r_i_glide_ecoul>  (56) 
-5.52434

>  <r_i_glide_erotb>  (56) 
0.0504293

>  <r_i_glide_esite>  (56) 
0

>  <r_i_glide_emodel>  (56) 
-41.2057

>  <r_i_glide_energy>  (56) 
-31.1231

>  <r_i_glide_einternal>  (56) 
0.9742

>  <r_i_glide_intrahb_reward>  (56) 
-0.5

>  <i_i_glide_confnum>  (56) 
4

>  <i_i_glide_posenum>  (56) 
18

>  <r_i_glide_eff_state_penalty>  (56) 
0

>  <ligand_id>  (56) 
41

>  <original_smiles>  (56) 
C=C1CC2(OC)C(C(C)(C)O)CC(OC)C34C=CC56C=CC7[S+]([O-])C(C)(C)OC3(O)C17C(C)(C2O4)C1(CO1)C(O)C5CCC6O

>  <smiles>  (56) 
[H]OC1([H])C([H])([H])C([H])([H])C2([H])C([H])(O[H])C3(OC3([H])[H])C3(C([H])([H])[H])C4([H])OC56C([H])=C([H])C12C([H])=C([H])C1([H])S(=O)C(C([H])([H])[H])(C([H])([H])[H])OC5(O[H])C13C(=C([H])[H])C([H])([H])C4(OC([H])([H])[H])C([H])(C(O[H])(C([H])([H])[H])C([H])([H])[H])C([H])([H])C6([H])OC([H])([H])[H]

$$$$
41:3:1
     RDKit          3D

 93100  0  0  1  0  0  0  0  0999 V2000
    5.4298   -3.0584    5.8836 C   0  0  0  0  0  0  0  0  0  0  0  0
    4.8897   -3.7606    4.8385 C   0  0  0  0  0  0  0  0  0  0  0  0
    4.7719   -3.0366    3.4692 C   0  0  0  0  0  0  0  0  0  0  0  0
    3.4681   -3.3095    2.6077 C   0  0  1  0  0  0  0  0  0  0  0  0
    2.7754   -2.0461    2.7040 O   0  0  0  0  0  0  0  0  0  0  0  0
    1.4893   -1.8224    2.1185 C   0  0  0  0  0  0  0  0  0  0  0  0
    3.7476   -3.5995    1.0467 C   0  0  1  0  0  0  0  0  0  0  0  0
    4.2738   -2.3704    0.1543 C   0  0  0  0  0  0  0  0  0  0  0  0
    5.6867   -1.8645    0.5169 C   0  0  0  0  0  0  0  0  0  0  0  0
    4.2023   -2.6569   -1.3603 C   0  0  0  0  0  0  0  0  0  0  0  0
    3.4609   -1.2121    0.2225 O   0  0  0  0  0  0  0  0  0  0  0  0
    4.6149   -4.8819    0.7150 C   0  0  0  0  0  0  0  0  0  0  0  0
    4.2720   -6.3405    1.2008 C   0  0  1  0  0  0  0  0  0  0  0  0
    5.4314   -7.1200    0.8793 O   0  0  0  0  0  0  0  0  0  0  0  0
    5.2988   -8.5337    0.9597 C   0  0  0  0  0  0  0  0  0  0  0  0
    3.7546   -6.4980    2.6652 C   0  0  1  0  0  0  0  0  0  0  0  0
    3.0050   -7.8180    2.9222 C   0  0  0  0  0  0  0  0  0  0  0  0
    3.1789   -8.6272    3.9766 C   0  0  0  0  0  0  0  0  0  0  0  0
    2.1900   -8.7278    5.1144 C   0  0  1  0  0  0  0  0  0  0  0  0
    2.8053   -8.1709    6.4236 C   0  0  0  0  0  0  0  0  0  0  0  0
    3.6188   -7.1502    6.8607 C   0  0  0  0  0  0  0  0  0  0  0  0
    4.3796   -5.8820    6.3864 C   0  0  1  0  0  0  0  0  0  0  0  0
    6.1711   -6.2710    6.7882 S   0  0  0  0  0  0  0  0  0  0  0  0
    7.0929   -5.0596    6.7706 O   0  0  0  0  0  0  0  0  0  0  0  0
    6.4668   -7.2977    5.2799 C   0  0  0  0  0  0  0  0  0  0  0  0
    7.8498   -6.9091    4.7013 C   0  0  0  0  0  0  0  0  0  0  0  0
    6.5123   -8.7528    5.7741 C   0  0  0  0  0  0  0  0  0  0  0  0
    5.3779   -7.2605    4.3452 O   0  0  0  0  0  0  0  0  0  0  0  0
    4.8069   -6.0970    3.8084 C   0  0  1  0  0  0  0  0  0  0  0  0
    5.9129   -5.5090    3.1786 O   0  0  0  0  0  0  0  0  0  0  0  0
    4.1678   -5.1420    4.9823 C   0  0  2  0  0  0  0  0  0  0  0  0
    2.5948   -4.6590    4.7903 C   0  0  1  0  0  0  0  0  0  0  0  0
    2.3760   -3.1998    5.3844 C   0  0  0  0  0  0  0  0  0  0  0  0
    2.5399   -4.4079    3.2584 C   0  0  2  0  0  0  0  0  0  0  0  0
    2.6447   -5.6183    2.5477 O   0  0  0  0  0  0  0  0  0  0  0  0
    1.3364   -5.4898    5.4160 C   0  0  2  0  0  0  0  0  0  0  0  0
    0.4399   -4.7215    6.4287 C   0  0  0  0  0  0  0  0  0  0  0  0
    1.3206   -5.7339    6.8297 O   0  0  0  0  0  0  0  0  0  0  0  0
    0.5536   -6.5828    4.6119 C   0  0  1  0  0  0  0  0  0  0  0  0
    0.1918   -6.2574    3.2896 O   0  0  0  0  0  0  0  0  0  0  0  0
    0.7879   -8.1225    4.8193 C   0  0  2  0  0  0  0  0  0  0  0  0
   -0.1240   -8.7985    5.8653 C   0  0  0  0  0  0  0  0  0  0  0  0
    0.5114  -10.1599    6.1846 C   0  0  0  0  0  0  0  0  0  0  0  0
    1.8218  -10.2200    5.3825 C   0  0  1  0  0  0  0  0  0  0  0  0
    1.5727  -10.9479    4.1888 O   0  0  0  0  0  0  0  0  0  0  0  0
    5.4313   -3.4236    6.8920 H   0  0  0  0  0  0  0  0  0  0  0  0
    5.8276   -2.0726    5.7260 H   0  0  0  0  0  0  0  0  0  0  0  0
    4.8426   -1.9629    3.6584 H   0  0  0  0  0  0  0  0  0  0  0  0
    5.6703   -3.2093    2.8817 H   0  0  0  0  0  0  0  0  0  0  0  0
    1.3574   -0.7517    1.9791 H   0  0  0  0  0  0  0  0  0  0  0  0
    0.6580   -2.1709    2.7350 H   0  0  0  0  0  0  0  0  0  0  0  0
    1.4134   -2.2630    1.1325 H   0  0  0  0  0  0  0  0  0  0  0  0
    2.7694   -3.8523    0.6345 H   0  0  0  0  0  0  0  0  0  0  0  0
    6.4369   -2.6539    0.4791 H   0  0  0  0  0  0  0  0  0  0  0  0
    5.7208   -1.4072    1.5064 H   0  0  0  0  0  0  0  0  0  0  0  0
    6.0049   -1.0911   -0.1822 H   0  0  0  0  0  0  0  0  0  0  0  0
    4.9885   -3.3376   -1.6930 H   0  0  0  0  0  0  0  0  0  0  0  0
    4.3320   -1.7385   -1.9341 H   0  0  0  0  0  0  0  0  0  0  0  0
    3.2346   -3.0761   -1.6384 H   0  0  0  0  0  0  0  0  0  0  0  0
    2.5818   -1.4120   -0.0915 H   0  0  0  0  0  0  0  0  0  0  0  0
    4.6185   -4.9968   -0.3639 H   0  0  0  0  0  0  0  0  0  0  0  0
    5.6569   -4.6655    0.9395 H   0  0  0  0  0  0  0  0  0  0  0  0
    3.4746   -6.6890    0.5486 H   0  0  0  0  0  0  0  0  0  0  0  0
    6.1521   -9.0117    0.4822 H   0  0  0  0  0  0  0  0  0  0  0  0
    4.3999   -8.8883    0.4560 H   0  0  0  0  0  0  0  0  0  0  0  0
    5.2886   -8.8788    1.9909 H   0  0  0  0  0  0  0  0  0  0  0  0
    1.9814   -7.7135    2.6080 H   0  0  0  0  0  0  0  0  0  0  0  0
    4.1408   -8.9629    4.3194 H   0  0  0  0  0  0  0  0  0  0  0  0
    2.5400   -8.8063    7.2532 H   0  0  0  0  0  0  0  0  0  0  0  0
    3.7746   -7.2438    7.9257 H   0  0  0  0  0  0  0  0  0  0  0  0
    4.0842   -5.1596    7.1501 H   0  0  0  0  0  0  0  0  0  0  0  0
    8.0280   -7.3995    3.7430 H   0  0  0  0  0  0  0  0  0  0  0  0
    8.6582   -7.1955    5.3755 H   0  0  0  0  0  0  0  0  0  0  0  0
    7.9524   -5.8369    4.5476 H   0  0  0  0  0  0  0  0  0  0  0  0
    6.6896   -9.4458    4.9514 H   0  0  0  0  0  0  0  0  0  0  0  0
    5.5760   -9.0492    6.2439 H   0  0  0  0  0  0  0  0  0  0  0  0
    7.3009   -8.9085    6.5117 H   0  0  0  0  0  0  0  0  0  0  0  0
    6.1843   -6.0968    2.4863 H   0  0  0  0  0  0  0  0  0  0  0  0
    1.3237   -2.8749    5.2287 H   0  0  0  0  0  0  0  0  0  0  0  0
    2.9191   -2.3899    5.0297 H   0  0  0  0  0  0  0  0  0  0  0  0
    2.5210   -3.1967    6.4880 H   0  0  0  0  0  0  0  0  0  0  0  0
    1.5156   -4.1245    3.0478 H   0  0  0  0  0  0  0  0  0  0  0  0
    0.7563   -3.7892    6.8909 H   0  0  0  0  0  0  0  0  0  0  0  0
   -0.6238   -5.0279    6.4668 H   0  0  0  0  0  0  0  0  0  0  0  0
   -0.4398   -6.4919    5.0186 H   0  0  0  0  0  0  0  0  0  0  0  0
    0.9683   -6.3699    2.7554 H   0  0  0  0  0  0  0  0  0  0  0  0
    0.4493   -8.5976    3.8904 H   0  0  0  0  0  0  0  0  0  0  0  0
   -0.1719   -8.2002    6.7715 H   0  0  0  0  0  0  0  0  0  0  0  0
   -1.1404   -8.9280    5.4898 H   0  0  0  0  0  0  0  0  0  0  0  0
    0.7243  -10.2108    7.2513 H   0  0  0  0  0  0  0  0  0  0  0  0
   -0.1523  -11.0017    5.9818 H   0  0  0  0  0  0  0  0  0  0  0  0
    2.5995  -10.7523    5.9316 H   0  0  0  0  0  0  0  0  0  0  0  0
    1.4109  -11.8497    4.4204 H   0  0  0  0  0  0  0  0  0  0  0  0
  1  2  2  0
  1 46  1  0
  1 47  1  0
 31  2  1  1
  2  3  1  0
  3  4  1  0
  3 48  1  0
  3 49  1  0
  4 34  1  0
  4  5  1  6
  4  7  1  0
  5  6  1  0
  6 50  1  0
  6 51  1  0
  6 52  1  0
  7  8  1  0
  7 12  1  0
  7 53  1  6
  8  9  1  0
  8 10  1  0
  8 11  1  0
  9 54  1  0
  9 55  1  0
  9 56  1  0
 10 57  1  0
 10 58  1  0
 10 59  1  0
 11 60  1  0
 12 13  1  0
 12 61  1  0
 12 62  1  0
 13 14  1  0
 13 16  1  0
 13 63  1  6
 14 15  1  0
 15 64  1  0
 15 65  1  0
 15 66  1  0
 16 29  1  0
 16 35  1  6
 16 17  1  0
 17 18  2  3
 17 67  1  0
 19 18  1  6
 18 68  1  0
 19 41  1  0
 19 44  1  0
 19 20  1  0
 20 21  2  3
 20 69  1  0
 21 22  1  0
 21 70  1  0
 22 31  1  0
 22 23  1  0
 22 71  1  1
 23 24  2  0
 23 25  1  6
 25 26  1  0
 25 27  1  0
 25 28  1  0
 26 72  1  0
 26 73  1  0
 26 74  1  0
 27 75  1  0
 27 76  1  0
 27 77  1  0
 28 29  1  0
 29 30  1  6
 29 31  1  0
 30 78  1  0
 31 32  1  0
 32 33  1  1
 32 34  1  0
 32 36  1  0
 33 79  1  0
 33 80  1  0
 33 81  1  0
 34 35  1  0
 34 82  1  1
 36 38  1  1
 36 37  1  0
 36 39  1  0
 37 38  1  0
 37 83  1  0
 37 84  1  0
 39 40  1  0
 39 41  1  0
 39 85  1  1
 40 86  1  0
 41 42  1  0
 41 87  1  6
 42 43  1  0
 42 88  1  0
 42 89  1  0
 43 44  1  0
 43 90  1  0
 43 91  1  0
 44 45  1  0
 44 92  1  1
 45 93  1  0
M  END
>  <i_m_ct_stereo_status>  (57) 
1

>  <s_m_source_file>  (57) 
/var/tmp/pbs.5075288.sched01/tmp228mwnki/64h1usuhcs.sdf

>  <i_m_source_file_index>  (57) 
31

>  <i_lp_mmshare_version>  (57) 
48012

>  <i_f3d_flags>  (57) 
0

>  <s_epik_input>  (57) 
W0NIM11PW0NAQEhdMVtDSDJdW0NASF0oQyhbQ0gzXSkoW0NIM10pW09IXSlbQ0BdKE9bQ0gzXSkoW0NIMl1DMj1bQ0gyXSlbQ0BASF0oTzMpW0NAQF00KFtDSDNdKUM1KFtDSDJdTzUpW0NAQEhdKFtPSF0pW0NASF0oW0NIMl1bQ0gyXVtDQEhdNltPSF0pW0NAQF02KC9bQ0hdPVtDSF1cNykvW0NIXT1bQ0hdL1tDQEBIXShbUytdKFtPLV0pQyhPOCkoW0NIM10pW0NIM10pW0NAXTI0W0NAQF04KFtDQF0xMzcpW09IXQ==

>  <s_epik_cmdline>  (57) 
J2VwaWtfcHl0aG9uJywgJy1waHQnLCAnMi4wJywgJy1waCcsICc3LjAnLCAnLXRuJywgJzgnLCAnLW1hJywgJzIwMCcsICctaW1hZScsICc8aW5maWxlLm1hZT4nLCAnLW9tYWUnLCAnPG91dGZpbGUubWFlPic=

>  <r_lp_tautomer_probability>  (57) 
1

>  <r_epik_Ionization_Penalty>  (57) 
6.47439e-06

>  <r_epik_Ionization_Penalty_Charging>  (57) 
0

>  <r_epik_Ionization_Penalty_Neutral>  (57) 
6.47439e-06

>  <r_epik_State_Penalty>  (57) 
-0

>  <r_epik_Charging_Adjusted_Penalty>  (57) 
0

>  <i_epik_Tot_Q>  (57) 
0

>  <i_epik_Tot_abs_Q>  (57) 
2

>  <s_lp_Force_Field>  (57) 
OPLS3e

>  <r_lp_Energy>  (57) 
242.009

>  <b_lp_Chiralities_Consistent>  (57) 
1

>  <s_lp_Variant>  (57) 
41:0-4

>  <s_i_glide_gridfile>  (57) 
pfpi4k_grid

>  <i_i_glide_lignum>  (57) 
31

>  <i_i_glide_rotatable_bonds>  (57) 
7

>  <r_i_docking_score>  (57) 
-2.86376

>  <r_i_glide_ligand_efficiency>  (57) 
-0.0636391

>  <r_i_glide_ligand_efficiency_sa>  (57) 
-0.226358

>  <r_i_glide_ligand_efficiency_ln>  (57) 
-0.59579

>  <r_i_glide_gscore>  (57) 
-2.86376

>  <r_i_glide_lipo>  (57) 
-0.280307

>  <r_i_glide_hbond>  (57) 
0

>  <r_i_glide_metal>  (57) 
-0

>  <r_i_glide_rewards>  (57) 
-0.5

>  <r_i_glide_evdw>  (57) 
-26.0518

>  <r_i_glide_ecoul>  (57) 
-5.54196

>  <r_i_glide_erotb>  (57) 
0.0504293

>  <r_i_glide_esite>  (57) 
0

>  <r_i_glide_emodel>  (57) 
-41.8909

>  <r_i_glide_energy>  (57) 
-31.5937

>  <r_i_glide_einternal>  (57) 
0.865717

>  <r_i_glide_intrahb_reward>  (57) 
-0.5

>  <i_i_glide_confnum>  (57) 
4

>  <i_i_glide_posenum>  (57) 
1

>  <r_i_glide_eff_state_penalty>  (57) 
0

>  <ligand_id>  (57) 
41

>  <original_smiles>  (57) 
C=C1CC2(OC)C(C(C)(C)O)CC(OC)C34C=CC56C=CC7[S+]([O-])C(C)(C)OC3(O)C17C(C)(C2O4)C1(CO1)C(O)C5CCC6O

>  <smiles>  (57) 
[H]OC1([H])C([H])([H])C([H])([H])C2([H])C([H])(O[H])C3(OC3([H])[H])C3(C([H])([H])[H])C4([H])OC56C([H])=C([H])C12C([H])=C([H])C1([H])S(=O)C(C([H])([H])[H])(C([H])([H])[H])OC5(O[H])C13C(=C([H])[H])C([H])([H])C4(OC([H])([H])[H])C([H])(C(O[H])(C([H])([H])[H])C([H])([H])[H])C([H])([H])C6([H])OC([H])([H])[H]

$$$$
41:3:2
     RDKit          3D

 93100  0  0  1  0  0  0  0  0999 V2000
    4.3315   -3.1373    6.8679 C   0  0  0  0  0  0  0  0  0  0  0  0
    4.1363   -3.6571    5.6146 C   0  0  0  0  0  0  0  0  0  0  0  0
    4.2045   -2.6732    4.4129 C   0  0  0  0  0  0  0  0  0  0  0  0
    3.1690   -2.8998    3.2323 C   0  0  1  0  0  0  0  0  0  0  0  0
    2.2792   -1.7718    3.3969 O   0  0  0  0  0  0  0  0  0  0  0  0
    1.1195   -1.5784    2.5812 C   0  0  0  0  0  0  0  0  0  0  0  0
    3.8204   -2.8120    1.7586 C   0  0  1  0  0  0  0  0  0  0  0  0
    4.3283   -1.3743    1.2648 C   0  0  0  0  0  0  0  0  0  0  0  0
    5.5190   -0.7926    2.0502 C   0  0  0  0  0  0  0  0  0  0  0  0
    4.6415   -1.3319   -0.2474 C   0  0  0  0  0  0  0  0  0  0  0  0
    3.3321   -0.3692    1.3552 O   0  0  0  0  0  0  0  0  0  0  0  0
    4.9237   -3.8941    1.4127 C   0  0  0  0  0  0  0  0  0  0  0  0
    4.7121   -5.4530    1.5320 C   0  0  1  0  0  0  0  0  0  0  0  0
    6.0237   -6.0147    1.3953 O   0  0  0  0  0  0  0  0  0  0  0  0
    6.1159   -7.4265    1.2892 C   0  0  0  0  0  0  0  0  0  0  0  0
    3.9232   -5.9722    2.7712 C   0  0  1  0  0  0  0  0  0  0  0  0
    3.3479   -7.3889    2.5922 C   0  0  0  0  0  0  0  0  0  0  0  0
    3.4182   -8.3795    3.4914 C   0  0  0  0  0  0  0  0  0  0  0  0
    2.2381   -8.8232    4.3227 C   0  0  1  0  0  0  0  0  0  0  0  0
    2.4678   -8.4999    5.8202 C   0  0  0  0  0  0  0  0  0  0  0  0
    3.0031   -7.5156    6.6194 C   0  0  0  0  0  0  0  0  0  0  0  0
    3.6420   -6.1013    6.5814 C   0  0  1  0  0  0  0  0  0  0  0  0
    5.3438   -6.3743    7.3212 S   0  0  0  0  0  0  0  0  0  0  0  0
    6.0500   -5.0953    7.7481 O   0  0  0  0  0  0  0  0  0  0  0  0
    6.1108   -7.0151    5.7650 C   0  0  0  0  0  0  0  0  0  0  0  0
    7.5053   -6.3626    5.6157 C   0  0  0  0  0  0  0  0  0  0  0  0
    6.2720   -8.5272    5.9802 C   0  0  0  0  0  0  0  0  0  0  0  0
    5.2499   -6.8979    4.6219 O   0  0  0  0  0  0  0  0  0  0  0  0
    4.6336   -5.7125    4.1875 C   0  0  1  0  0  0  0  0  0  0  0  0
    5.7444   -4.8916    3.9594 O   0  0  0  0  0  0  0  0  0  0  0  0
    3.6216   -5.1070    5.3250 C   0  0  2  0  0  0  0  0  0  0  0  0
    2.0739   -4.7649    4.8549 C   0  0  1  0  0  0  0  0  0  0  0  0
    1.5025   -3.5071    5.6354 C   0  0  0  0  0  0  0  0  0  0  0  0
    2.3062   -4.2030    3.4256 C   0  0  2  0  0  0  0  0  0  0  0  0
    2.7420   -5.2133    2.5538 O   0  0  0  0  0  0  0  0  0  0  0  0
    0.8509   -5.8449    4.9920 C   0  0  2  0  0  0  0  0  0  0  0  0
   -0.3420   -5.4099    5.8934 C   0  0  0  0  0  0  0  0  0  0  0  0
    0.5753   -6.3823    6.2985 O   0  0  0  0  0  0  0  0  0  0  0  0
    0.4367   -6.8126    3.8444 C   0  0  1  0  0  0  0  0  0  0  0  0
    0.3041   -6.2604    2.5526 O   0  0  0  0  0  0  0  0  0  0  0  0
    0.8559   -8.3284    3.8149 C   0  0  2  0  0  0  0  0  0  0  0  0
   -0.1416   -9.3077    4.4666 C   0  0  0  0  0  0  0  0  0  0  0  0
    0.6182  -10.6292    4.6772 C   0  0  0  0  0  0  0  0  0  0  0  0
    2.0615  -10.3718    4.2150 C   0  0  1  0  0  0  0  0  0  0  0  0
    2.1986  -10.8466    2.8941 O   0  0  0  0  0  0  0  0  0  0  0  0
    4.1729   -3.7086    7.7631 H   0  0  0  0  0  0  0  0  0  0  0  0
    4.5980   -2.1053    6.9943 H   0  0  0  0  0  0  0  0  0  0  0  0
    4.0647   -1.6651    4.8071 H   0  0  0  0  0  0  0  0  0  0  0  0
    5.2208   -2.6202    4.0368 H   0  0  0  0  0  0  0  0  0  0  0  0
    0.8547   -0.5237    2.6020 H   0  0  0  0  0  0  0  0  0  0  0  0
    0.2521   -2.1339    2.9402 H   0  0  0  0  0  0  0  0  0  0  0  0
    1.2789   -1.8310    1.5356 H   0  0  0  0  0  0  0  0  0  0  0  0
    3.0014   -3.0684    1.0824 H   0  0  0  0  0  0  0  0  0  0  0  0
    6.3774   -1.4662    2.0639 H   0  0  0  0  0  0  0  0  0  0  0  0
    5.2541   -0.5531    3.0802 H   0  0  0  0  0  0  0  0  0  0  0  0
    5.8490    0.1399    1.5933 H   0  0  0  0  0  0  0  0  0  0  0  0
    5.5832   -1.8357   -0.4882 H   0  0  0  0  0  0  0  0  0  0  0  0
    4.7474   -0.3079   -0.6051 H   0  0  0  0  0  0  0  0  0  0  0  0
    3.8446   -1.7945   -0.8310 H   0  0  0  0  0  0  0  0  0  0  0  0
    3.6483    0.4200    0.9424 H   0  0  0  0  0  0  0  0  0  0  0  0
    5.1720   -3.7757    0.3639 H   0  0  0  0  0  0  0  0  0  0  0  0
    5.8477   -3.6162    1.9154 H   0  0  0  0  0  0  0  0  0  0  0  0
    4.1424   -5.7435    0.6526 H   0  0  0  0  0  0  0  0  0  0  0  0
    7.1054   -7.7045    0.9277 H   0  0  0  0  0  0  0  0  0  0  0  0
    5.3817   -7.8446    0.5968 H   0  0  0  0  0  0  0  0  0  0  0  0
    5.9907   -7.8938    2.2618 H   0  0  0  0  0  0  0  0  0  0  0  0
    2.4129   -7.3284    2.0670 H   0  0  0  0  0  0  0  0  0  0  0  0
    4.3246   -8.6770    3.9874 H   0  0  0  0  0  0  0  0  0  0  0  0
    2.1341   -9.3242    6.4312 H   0  0  0  0  0  0  0  0  0  0  0  0
    2.9415   -7.8187    7.6543 H   0  0  0  0  0  0  0  0  0  0  0  0
    3.0837   -5.5952    7.3695 H   0  0  0  0  0  0  0  0  0  0  0  0
    7.9588   -6.6153    4.6538 H   0  0  0  0  0  0  0  0  0  0  0  0
    8.1887   -6.6982    6.3995 H   0  0  0  0  0  0  0  0  0  0  0  0
    7.4733   -5.2787    5.6896 H   0  0  0  0  0  0  0  0  0  0  0  0
    6.7269   -9.0060    5.1108 H   0  0  0  0  0  0  0  0  0  0  0  0
    5.3163   -9.0174    6.1497 H   0  0  0  0  0  0  0  0  0  0  0  0
    6.9016   -8.7515    6.8443 H   0  0  0  0  0  0  0  0  0  0  0  0
    6.2451   -5.2868    3.2540 H   0  0  0  0  0  0  0  0  0  0  0  0
    0.4739   -3.2713    5.2970 H   0  0  0  0  0  0  0  0  0  0  0  0
    1.9822   -2.5779    5.5775 H   0  0  0  0  0  0  0  0  0  0  0  0
    1.4092   -3.7212    6.7213 H   0  0  0  0  0  0  0  0  0  0  0  0
    1.3185   -3.9983    3.0302 H   0  0  0  0  0  0  0  0  0  0  0  0
   -0.2749   -4.5638    6.5644 H   0  0  0  0  0  0  0  0  0  0  0  0
   -1.3296   -5.8346    5.6300 H   0  0  0  0  0  0  0  0  0  0  0  0
   -0.6264   -6.9245    4.0134 H   0  0  0  0  0  0  0  0  0  0  0  0
    1.1819   -6.1917    2.1946 H   0  0  0  0  0  0  0  0  0  0  0  0
    0.7994   -8.6223    2.7612 H   0  0  0  0  0  0  0  0  0  0  0  0
   -0.4917   -8.9324    5.4248 H   0  0  0  0  0  0  0  0  0  0  0  0
   -1.0212   -9.4506    3.8349 H   0  0  0  0  0  0  0  0  0  0  0  0
    0.6022  -10.8911    5.7355 H   0  0  0  0  0  0  0  0  0  0  0  0
    0.1621  -11.4746    4.1590 H   0  0  0  0  0  0  0  0  0  0  0  0
    2.7766  -10.9180    4.8265 H   0  0  0  0  0  0  0  0  0  0  0  0
    1.5054  -10.4770    2.3518 H   0  0  0  0  0  0  0  0  0  0  0  0
  1  2  2  0
  1 46  1  0
  1 47  1  0
 31  2  1  1
  2  3  1  0
  3  4  1  0
  3 48  1  0
  3 49  1  0
  4 34  1  0
  4  5  1  6
  4  7  1  0
  5  6  1  0
  6 50  1  0
  6 51  1  0
  6 52  1  0
  7  8  1  0
  7 12  1  0
  7 53  1  6
  8  9  1  0
  8 10  1  0
  8 11  1  0
  9 54  1  0
  9 55  1  0
  9 56  1  0
 10 57  1  0
 10 58  1  0
 10 59  1  0
 11 60  1  0
 12 13  1  0
 12 61  1  0
 12 62  1  0
 13 14  1  0
 13 16  1  0
 13 63  1  6
 14 15  1  0
 15 64  1  0
 15 65  1  0
 15 66  1  0
 16 29  1  0
 16 35  1  1
 16 17  1  0
 17 18  2  3
 17 67  1  0
 19 18  1  6
 18 68  1  0
 19 41  1  0
 19 44  1  0
 19 20  1  0
 20 21  2  3
 20 69  1  0
 21 22  1  0
 21 70  1  0
 22 31  1  0
 22 23  1  0
 22 71  1  1
 23 24  2  0
 23 25  1  6
 25 26  1  0
 25 27  1  0
 25 28  1  0
 26 72  1  0
 26 73  1  0
 26 74  1  0
 27 75  1  0
 27 76  1  0
 27 77  1  0
 28 29  1  0
 29 30  1  6
 29 31  1  0
 30 78  1  0
 31 32  1  0
 32 33  1  1
 32 34  1  0
 32 36  1  0
 33 79  1  0
 33 80  1  0
 33 81  1  0
 34 35  1  0
 34 82  1  6
 36 38  1  1
 36 37  1  0
 36 39  1  0
 37 38  1  0
 37 83  1  0
 37 84  1  0
 39 40  1  0
 39 41  1  0
 39 85  1  1
 40 86  1  0
 41 42  1  0
 41 87  1  6
 42 43  1  0
 42 88  1  0
 42 89  1  0
 43 44  1  0
 43 90  1  0
 43 91  1  0
 44 45  1  0
 44 92  1  1
 45 93  1  0
M  END
>  <i_m_ct_stereo_status>  (58) 
1

>  <s_m_source_file>  (58) 
/var/tmp/pbs.5075288.sched01/tmp228mwnki/64h1usuhcs.sdf

>  <i_m_source_file_index>  (58) 
31

>  <i_lp_mmshare_version>  (58) 
48012

>  <i_f3d_flags>  (58) 
0

>  <s_epik_input>  (58) 
W0NIM11PW0NAQEhdMVtDSDJdW0NASF0oQyhbQ0gzXSkoW0NIM10pW09IXSlbQ0BdKE9bQ0gzXSkoW0NIMl1DMj1bQ0gyXSlbQ0BASF0oTzMpW0NAQF00KFtDSDNdKUM1KFtDSDJdTzUpW0NAQEhdKFtPSF0pW0NASF0oW0NIMl1bQ0gyXVtDQEhdNltPSF0pW0NAQF02KC9bQ0hdPVtDSF1cNykvW0NIXT1bQ0hdL1tDQEBIXShbUytdKFtPLV0pQyhPOCkoW0NIM10pW0NIM10pW0NAXTI0W0NAQF04KFtDQF0xMzcpW09IXQ==

>  <s_epik_cmdline>  (58) 
J2VwaWtfcHl0aG9uJywgJy1waHQnLCAnMi4wJywgJy1waCcsICc3LjAnLCAnLXRuJywgJzgnLCAnLW1hJywgJzIwMCcsICctaW1hZScsICc8aW5maWxlLm1hZT4nLCAnLW9tYWUnLCAnPG91dGZpbGUubWFlPic=

>  <r_lp_tautomer_probability>  (58) 
1

>  <r_epik_Ionization_Penalty>  (58) 
6.47439e-06

>  <r_epik_Ionization_Penalty_Charging>  (58) 
0

>  <r_epik_Ionization_Penalty_Neutral>  (58) 
6.47439e-06

>  <r_epik_State_Penalty>  (58) 
-0

>  <r_epik_Charging_Adjusted_Penalty>  (58) 
0

>  <i_epik_Tot_Q>  (58) 
0

>  <i_epik_Tot_abs_Q>  (58) 
2

>  <s_lp_Force_Field>  (58) 
OPLS3e

>  <r_lp_Energy>  (58) 
242.009

>  <b_lp_Chiralities_Consistent>  (58) 
1

>  <s_lp_Variant>  (58) 
41:0-4

>  <s_i_glide_gridfile>  (58) 
pfpi4k_grid

>  <i_i_glide_lignum>  (58) 
31

>  <i_i_glide_rotatable_bonds>  (58) 
7

>  <r_i_docking_score>  (58) 
-2.44676

>  <r_i_glide_ligand_efficiency>  (58) 
-0.0543724

>  <r_i_glide_ligand_efficiency_sa>  (58) 
-0.193397

>  <r_i_glide_ligand_efficiency_ln>  (58) 
-0.509035

>  <r_i_glide_gscore>  (58) 
-2.44676

>  <r_i_glide_lipo>  (58) 
-0.291409

>  <r_i_glide_hbond>  (58) 
0

>  <r_i_glide_metal>  (58) 
-0

>  <r_i_glide_rewards>  (58) 
-0.5

>  <r_i_glide_evdw>  (58) 
-26.2504

>  <r_i_glide_ecoul>  (58) 
-2.62173

>  <r_i_glide_erotb>  (58) 
0.0504293

>  <r_i_glide_esite>  (58) 
0

>  <r_i_glide_emodel>  (58) 
-38.0896

>  <r_i_glide_energy>  (58) 
-28.8722

>  <r_i_glide_einternal>  (58) 
0.698447

>  <r_i_glide_intrahb_reward>  (58) 
-0.5

>  <i_i_glide_confnum>  (58) 
4

>  <i_i_glide_posenum>  (58) 
23

>  <r_i_glide_eff_state_penalty>  (58) 
0

>  <ligand_id>  (58) 
41

>  <original_smiles>  (58) 
C=C1CC2(OC)C(C(C)(C)O)CC(OC)C34C=CC56C=CC7[S+]([O-])C(C)(C)OC3(O)C17C(C)(C2O4)C1(CO1)C(O)C5CCC6O

>  <smiles>  (58) 
[H]OC1([H])C([H])([H])C([H])([H])C2([H])C([H])(O[H])C3(OC3([H])[H])C3(C([H])([H])[H])C4([H])OC56C([H])=C([H])C12C([H])=C([H])C1([H])S(=O)C(C([H])([H])[H])(C([H])([H])[H])OC5(O[H])C13C(=C([H])[H])C([H])([H])C4(OC([H])([H])[H])C([H])(C(O[H])(C([H])([H])[H])C([H])([H])[H])C([H])([H])C6([H])OC([H])([H])[H]

$$$$
41:4:0
     RDKit          3D

 93100  0  0  1  0  0  0  0  0999 V2000
    3.4082   -4.0116    7.8821 C   0  0  0  0  0  0  0  0  0  0  0  0
    3.2239   -3.8617    6.5533 C   0  0  0  0  0  0  0  0  0  0  0  0
    2.7907   -2.4564    6.0119 C   0  0  0  0  0  0  0  0  0  0  0  0
    1.8975   -2.3942    4.7002 C   0  0  1  0  0  0  0  0  0  0  0  0
    0.6402   -1.9401    5.2398 O   0  0  0  0  0  0  0  0  0  0  0  0
   -0.5203   -1.7906    4.4250 C   0  0  0  0  0  0  0  0  0  0  0  0
    2.3478   -1.3103    3.6185 C   0  0  1  0  0  0  0  0  0  0  0  0
    2.1921    0.2462    3.9984 C   0  0  0  0  0  0  0  0  0  0  0  0
    2.9624    0.6942    5.2557 C   0  0  0  0  0  0  0  0  0  0  0  0
    2.5239    1.1895    2.8123 C   0  0  0  0  0  0  0  0  0  0  0  0
    0.8648    0.6316    4.2821 O   0  0  0  0  0  0  0  0  0  0  0  0
    3.7758   -1.5499    3.0357 C   0  0  0  0  0  0  0  0  0  0  0  0
    4.2271   -2.8883    2.3487 C   0  0  1  0  0  0  0  0  0  0  0  0
    5.6338   -2.8402    2.0721 O   0  0  0  0  0  0  0  0  0  0  0  0
    6.0458   -1.9171    1.0675 C   0  0  0  0  0  0  0  0  0  0  0  0
    3.8640   -4.2978    2.9693 C   0  0  1  0  0  0  0  0  0  0  0  0
    4.3113   -5.3603    1.9103 C   0  0  0  0  0  0  0  0  0  0  0  0
    4.2137   -6.7133    1.7343 C   0  0  0  0  0  0  0  0  0  0  0  0
    3.6353   -7.8684    2.5697 C   0  0  1  0  0  0  0  0  0  0  0  0
    4.1089   -7.6885    3.9840 C   0  0  0  0  0  0  0  0  0  0  0  0
    3.3636   -7.5489    5.0820 C   0  0  0  0  0  0  0  0  0  0  0  0
    3.6315   -6.4842    6.1177 C   0  0  1  0  0  0  0  0  0  0  0  0
    5.3557   -6.7400    6.7917 S   0  0  0  0  0  0  0  0  0  0  0  0
    5.5163   -6.1371    8.1883 O   0  0  0  0  0  0  0  0  0  0  0  0
    6.3138   -5.7363    5.5732 C   0  0  0  0  0  0  0  0  0  0  0  0
    6.9466   -4.5763    6.3843 C   0  0  0  0  0  0  0  0  0  0  0  0
    7.4691   -6.6393    5.0944 C   0  0  0  0  0  0  0  0  0  0  0  0
    5.5486   -5.3867    4.3925 O   0  0  0  0  0  0  0  0  0  0  0  0
    4.4342   -4.5352    4.4378 C   0  0  1  0  0  0  0  0  0  0  0  0
    5.0561   -3.3302    4.8193 O   0  0  0  0  0  0  0  0  0  0  0  0
    3.2753   -5.0272    5.5169 C   0  0  2  0  0  0  0  0  0  0  0  0
    1.6997   -5.0375    4.9672 C   0  0  1  0  0  0  0  0  0  0  0  0
    0.7491   -4.7387    6.2336 C   0  0  0  0  0  0  0  0  0  0  0  0
    1.6621   -3.8106    4.0468 C   0  0  2  0  0  0  0  0  0  0  0  0
    2.4525   -4.1410    2.9077 O   0  0  0  0  0  0  0  0  0  0  0  0
    0.9173   -6.2942    4.2418 C   0  0  1  0  0  0  0  0  0  0  0  0
    0.0874   -7.3014    5.0645 C   0  0  0  0  0  0  0  0  0  0  0  0
   -0.5115   -6.1938    4.4079 O   0  0  0  0  0  0  0  0  0  0  0  0
    1.1463   -6.8021    2.7635 C   0  0  1  0  0  0  0  0  0  0  0  0
    1.0538   -5.8810    1.6997 O   0  0  0  0  0  0  0  0  0  0  0  0
    2.1148   -7.9723    2.3983 C   0  0  2  0  0  0  0  0  0  0  0  0
    1.7391   -9.4082    2.8130 C   0  0  0  0  0  0  0  0  0  0  0  0
    3.0358  -10.2230    2.6937 C   0  0  0  0  0  0  0  0  0  0  0  0
    4.0989   -9.2797    2.1099 C   0  0  1  0  0  0  0  0  0  0  0  0
    4.0890   -9.4517    0.7050 O   0  0  0  0  0  0  0  0  0  0  0  0
    3.6016   -4.9640    8.3474 H   0  0  0  0  0  0  0  0  0  0  0  0
    3.2966   -3.1688    8.5520 H   0  0  0  0  0  0  0  0  0  0  0  0
    2.2546   -1.9669    6.8291 H   0  0  0  0  0  0  0  0  0  0  0  0
    3.6632   -1.8119    5.9187 H   0  0  0  0  0  0  0  0  0  0  0  0
   -1.2256   -1.1610    4.9644 H   0  0  0  0  0  0  0  0  0  0  0  0
   -0.9856   -2.7436    4.2298 H   0  0  0  0  0  0  0  0  0  0  0  0
   -0.3204   -1.2777    3.4850 H   0  0  0  0  0  0  0  0  0  0  0  0
    1.6960   -1.4720    2.7559 H   0  0  0  0  0  0  0  0  0  0  0  0
    4.0278    0.4628    5.2017 H   0  0  0  0  0  0  0  0  0  0  0  0
    2.5470    0.2301    6.1512 H   0  0  0  0  0  0  0  0  0  0  0  0
    2.8612    1.7718    5.4003 H   0  0  0  0  0  0  0  0  0  0  0  0
    3.5996    1.2590    2.6277 H   0  0  0  0  0  0  0  0  0  0  0  0
    2.1827    2.2112    2.9982 H   0  0  0  0  0  0  0  0  0  0  0  0
    2.0303    0.8445    1.8996 H   0  0  0  0  0  0  0  0  0  0  0  0
    0.3581    0.5550    3.4819 H   0  0  0  0  0  0  0  0  0  0  0  0
    3.8768   -0.8362    2.2292 H   0  0  0  0  0  0  0  0  0  0  0  0
    4.5195   -1.2303    3.7608 H   0  0  0  0  0  0  0  0  0  0  0  0
    3.7279   -2.8920    1.3808 H   0  0  0  0  0  0  0  0  0  0  0  0
    7.1209   -2.0014    0.9204 H   0  0  0  0  0  0  0  0  0  0  0  0
    5.8577   -0.8803    1.3429 H   0  0  0  0  0  0  0  0  0  0  0  0
    5.5627   -2.1186    0.1098 H   0  0  0  0  0  0  0  0  0  0  0  0
    4.8397   -4.9015    1.0907 H   0  0  0  0  0  0  0  0  0  0  0  0
    4.6789   -7.0622    0.8231 H   0  0  0  0  0  0  0  0  0  0  0  0
    5.1376   -7.4273    3.9704 H   0  0  0  0  0  0  0  0  0  0  0  0
    2.3750   -7.9362    5.0823 H   0  0  0  0  0  0  0  0  0  0  0  0
    2.9594   -6.7264    6.9409 H   0  0  0  0  0  0  0  0  0  0  0  0
    7.4705   -3.8864    5.7284 H   0  0  0  0  0  0  0  0  0  0  0  0
    7.6613   -4.9409    7.1267 H   0  0  0  0  0  0  0  0  0  0  0  0
    6.2062   -4.0106    6.9468 H   0  0  0  0  0  0  0  0  0  0  0  0
    8.0584   -6.1491    4.3176 H   0  0  0  0  0  0  0  0  0  0  0  0
    7.1212   -7.5881    4.6914 H   0  0  0  0  0  0  0  0  0  0  0  0
    8.1500   -6.8878    5.9105 H   0  0  0  0  0  0  0  0  0  0  0  0
    5.3914   -3.4347    5.6865 H   0  0  0  0  0  0  0  0  0  0  0  0
   -0.3106   -4.7000    5.9964 H   0  0  0  0  0  0  0  0  0  0  0  0
    0.8506   -3.7902    6.7501 H   0  0  0  0  0  0  0  0  0  0  0  0
    0.9133   -5.4612    7.0332 H   0  0  0  0  0  0  0  0  0  0  0  0
    0.6708   -3.7880    3.6096 H   0  0  0  0  0  0  0  0  0  0  0  0
   -0.2391   -8.2581    4.6571 H   0  0  0  0  0  0  0  0  0  0  0  0
    0.0805   -7.2367    6.1461 H   0  0  0  0  0  0  0  0  0  0  0  0
    0.1990   -7.3067    2.5855 H   0  0  0  0  0  0  0  0  0  0  0  0
    1.8285   -5.3235    1.7593 H   0  0  0  0  0  0  0  0  0  0  0  0
    1.9991   -8.0230    1.3103 H   0  0  0  0  0  0  0  0  0  0  0  0
    1.3722   -9.4641    3.8314 H   0  0  0  0  0  0  0  0  0  0  0  0
    0.9627   -9.8075    2.1586 H   0  0  0  0  0  0  0  0  0  0  0  0
    3.3472  -10.5455    3.6864 H   0  0  0  0  0  0  0  0  0  0  0  0
    2.9164  -11.1259    2.0977 H   0  0  0  0  0  0  0  0  0  0  0  0
    5.0955   -9.5365    2.4725 H   0  0  0  0  0  0  0  0  0  0  0  0
    4.2097  -10.3851    0.5161 H   0  0  0  0  0  0  0  0  0  0  0  0
  1  2  2  0
  1 46  1  0
  1 47  1  0
 31  2  1  1
  2  3  1  0
  3  4  1  0
  3 48  1  0
  3 49  1  0
  4 34  1  0
  4  5  1  1
  4  7  1  0
  5  6  1  0
  6 50  1  0
  6 51  1  0
  6 52  1  0
  7  8  1  0
  7 12  1  0
  7 53  1  6
  8  9  1  0
  8 10  1  0
  8 11  1  0
  9 54  1  0
  9 55  1  0
  9 56  1  0
 10 57  1  0
 10 58  1  0
 10 59  1  0
 11 60  1  0
 12 13  1  0
 12 61  1  0
 12 62  1  0
 13 14  1  0
 13 16  1  0
 13 63  1  6
 14 15  1  0
 15 64  1  0
 15 65  1  0
 15 66  1  0
 16 29  1  0
 16 35  1  1
 16 17  1  0
 17 18  2  3
 17 67  1  0
 19 18  1  6
 18 68  1  0
 19 41  1  0
 19 44  1  0
 19 20  1  0
 20 21  2  3
 20 69  1  0
 21 22  1  0
 21 70  1  0
 22 31  1  0
 22 23  1  0
 22 71  1  1
 23 24  2  0
 23 25  1  6
 25 26  1  0
 25 27  1  0
 25 28  1  0
 26 72  1  0
 26 73  1  0
 26 74  1  0
 27 75  1  0
 27 76  1  0
 27 77  1  0
 28 29  1  0
 29 30  1  1
 29 31  1  0
 30 78  1  0
 31 32  1  0
 32 33  1  1
 32 34  1  0
 32 36  1  0
 33 79  1  0
 33 80  1  0
 33 81  1  0
 34 35  1  0
 34 82  1  6
 36 38  1  6
 36 37  1  0
 36 39  1  0
 37 38  1  0
 37 83  1  0
 37 84  1  0
 39 40  1  0
 39 41  1  0
 39 85  1  6
 40 86  1  0
 41 42  1  0
 41 87  1  6
 42 43  1  0
 42 88  1  0
 42 89  1  0
 43 44  1  0
 43 90  1  0
 43 91  1  0
 44 45  1  0
 44 92  1  1
 45 93  1  0
M  END
>  <i_m_ct_stereo_status>  (59) 
1

>  <s_m_source_file>  (59) 
/var/tmp/pbs.5075288.sched01/tmp228mwnki/64h1usuhcs.sdf

>  <i_m_source_file_index>  (59) 
32

>  <i_lp_mmshare_version>  (59) 
48012

>  <i_f3d_flags>  (59) 
0

>  <s_epik_input>  (59) 
W0NIM11PW0NAQEhdMVtDSDJdW0NASF0oQyhbQ0gzXSkoW0NIM10pW09IXSlbQ0BdKE9bQ0gzXSkoW0NIMl1DMj1bQ0gyXSlbQ0BASF0oTzMpW0NAQF00KFtDSDNdKUM1KFtDSDJdTzUpW0NAQEhdKFtPSF0pW0NASF0oW0NIMl1bQ0gyXVtDQEhdNltPSF0pW0NAQF02KC9bQ0hdPVtDSF1cNykvW0NIXT1bQ0hdL1tDQEBIXShbUytdKFtPLV0pQyhPOCkoW0NIM10pW0NIM10pW0NAXTI0W0NAQF04KFtDQF0xMzcpW09IXQ==

>  <s_epik_cmdline>  (59) 
J2VwaWtfcHl0aG9uJywgJy1waHQnLCAnMi4wJywgJy1waCcsICc3LjAnLCAnLXRuJywgJzgnLCAnLW1hJywgJzIwMCcsICctaW1hZScsICc8aW5maWxlLm1hZT4nLCAnLW9tYWUnLCAnPG91dGZpbGUubWFlPic=

>  <r_lp_tautomer_probability>  (59) 
1

>  <r_epik_Ionization_Penalty>  (59) 
6.47439e-06

>  <r_epik_Ionization_Penalty_Charging>  (59) 
0

>  <r_epik_Ionization_Penalty_Neutral>  (59) 
6.47439e-06

>  <r_epik_State_Penalty>  (59) 
-0

>  <r_epik_Charging_Adjusted_Penalty>  (59) 
0

>  <i_epik_Tot_Q>  (59) 
0

>  <i_epik_Tot_abs_Q>  (59) 
2

>  <s_lp_Force_Field>  (59) 
OPLS3e

>  <r_lp_Energy>  (59) 
224.732

>  <b_lp_Chiralities_Consistent>  (59) 
1

>  <s_lp_Variant>  (59) 
41:0-5

>  <s_i_glide_gridfile>  (59) 
pfpi4k_grid

>  <i_i_glide_lignum>  (59) 
32

>  <i_i_glide_rotatable_bonds>  (59) 
7

>  <r_i_docking_score>  (59) 
-3.47012

>  <r_i_glide_ligand_efficiency>  (59) 
-0.0771137

>  <r_i_glide_ligand_efficiency_sa>  (59) 
-0.274285

>  <r_i_glide_ligand_efficiency_ln>  (59) 
-0.721939

>  <r_i_glide_gscore>  (59) 
-3.47012

>  <r_i_glide_lipo>  (59) 
-0.281919

>  <r_i_glide_hbond>  (59) 
-0.162772

>  <r_i_glide_metal>  (59) 
-0

>  <r_i_glide_rewards>  (59) 
-0.500289

>  <r_i_glide_evdw>  (59) 
-21.8605

>  <r_i_glide_ecoul>  (59) 
-9.88362

>  <r_i_glide_erotb>  (59) 
0.0504293

>  <r_i_glide_esite>  (59) 
0

>  <r_i_glide_emodel>  (59) 
-43.8305

>  <r_i_glide_energy>  (59) 
-31.7441

>  <r_i_glide_einternal>  (59) 
0.84567

>  <r_i_glide_intrahb_reward>  (59) 
-0.5

>  <i_i_glide_confnum>  (59) 
3

>  <i_i_glide_posenum>  (59) 
1

>  <r_i_glide_eff_state_penalty>  (59) 
0

>  <ligand_id>  (59) 
41

>  <original_smiles>  (59) 
C=C1CC2(OC)C(C(C)(C)O)CC(OC)C34C=CC56C=CC7[S+]([O-])C(C)(C)OC3(O)C17C(C)(C2O4)C1(CO1)C(O)C5CCC6O

>  <smiles>  (59) 
[H]OC1([H])C([H])([H])C([H])([H])C2([H])C([H])(O[H])C3(OC3([H])[H])C3(C([H])([H])[H])C4([H])OC56C([H])=C([H])C12C([H])=C([H])C1([H])S(=O)C(C([H])([H])[H])(C([H])([H])[H])OC5(O[H])C13C(=C([H])[H])C([H])([H])C4(OC([H])([H])[H])C([H])(C(O[H])(C([H])([H])[H])C([H])([H])[H])C([H])([H])C6([H])OC([H])([H])[H]

$$$$
41:4:1
     RDKit          3D

 93100  0  0  1  0  0  0  0  0999 V2000
    3.3998   -4.0585    7.9220 C   0  0  0  0  0  0  0  0  0  0  0  0
    3.2274   -3.9022    6.5972 C   0  0  0  0  0  0  0  0  0  0  0  0
    2.8041   -2.4896    6.0593 C   0  0  0  0  0  0  0  0  0  0  0  0
    1.9172   -2.4249    4.7453 C   0  0  1  0  0  0  0  0  0  0  0  0
    0.6470   -1.9886    5.2720 O   0  0  0  0  0  0  0  0  0  0  0  0
   -0.5008   -1.8168    4.4455 C   0  0  0  0  0  0  0  0  0  0  0  0
    2.3725   -1.3261    3.6853 C   0  0  1  0  0  0  0  0  0  0  0  0
    2.2158    0.2231    4.0815 C   0  0  0  0  0  0  0  0  0  0  0  0
    3.0453    0.6785    5.2945 C   0  0  0  0  0  0  0  0  0  0  0  0
    2.4992    1.1655    2.8812 C   0  0  0  0  0  0  0  0  0  0  0  0
    0.9066    0.6491    4.4319 O   0  0  0  0  0  0  0  0  0  0  0  0
    3.8105   -1.5659    3.0971 C   0  0  0  0  0  0  0  0  0  0  0  0
    4.2616   -2.9001    2.3977 C   0  0  1  0  0  0  0  0  0  0  0  0
    5.6692   -2.8614    2.1282 O   0  0  0  0  0  0  0  0  0  0  0  0
    6.0959   -1.9192    1.1510 C   0  0  0  0  0  0  0  0  0  0  0  0
    3.8920   -4.3149    3.0108 C   0  0  1  0  0  0  0  0  0  0  0  0
    4.3398   -5.3752    1.9498 C   0  0  0  0  0  0  0  0  0  0  0  0
    4.2349   -6.7218    1.7650 C   0  0  0  0  0  0  0  0  0  0  0  0
    3.6453   -7.8871    2.5851 C   0  0  1  0  0  0  0  0  0  0  0  0
    4.1106   -7.7175    4.0031 C   0  0  0  0  0  0  0  0  0  0  0  0
    3.3582   -7.5773    5.0981 C   0  0  0  0  0  0  0  0  0  0  0  0
    3.6265   -6.5204    6.1425 C   0  0  1  0  0  0  0  0  0  0  0  0
    5.3424   -6.7869    6.8258 S   0  0  0  0  0  0  0  0  0  0  0  0
    5.4974   -6.2030    8.2293 O   0  0  0  0  0  0  0  0  0  0  0  0
    6.3143   -5.7832    5.6191 C   0  0  0  0  0  0  0  0  0  0  0  0
    6.9476   -4.6320    6.4423 C   0  0  0  0  0  0  0  0  0  0  0  0
    7.4689   -6.6912    5.1415 C   0  0  0  0  0  0  0  0  0  0  0  0
    5.5586   -5.4257    4.4367 O   0  0  0  0  0  0  0  0  0  0  0  0
    4.4504   -4.5678    4.4804 C   0  0  1  0  0  0  0  0  0  0  0  0
    5.0761   -3.3692    4.8728 O   0  0  0  0  0  0  0  0  0  0  0  0
    3.2790   -5.0613    5.5471 C   0  0  2  0  0  0  0  0  0  0  0  0
    1.7079   -5.0598    4.9950 C   0  0  1  0  0  0  0  0  0  0  0  0
    0.7503   -4.7716    6.2494 C   0  0  0  0  0  0  0  0  0  0  0  0
    1.6820   -3.8334    4.0759 C   0  0  2  0  0  0  0  0  0  0  0  0
    2.4831   -4.1536    2.9448 O   0  0  0  0  0  0  0  0  0  0  0  0
    0.9253   -6.3047    4.2495 C   0  0  1  0  0  0  0  0  0  0  0  0
    0.0814   -7.3097    5.0628 C   0  0  0  0  0  0  0  0  0  0  0  0
   -0.5109   -6.1986    4.4083 O   0  0  0  0  0  0  0  0  0  0  0  0
    1.1553   -6.8016    2.7733 C   0  0  1  0  0  0  0  0  0  0  0  0
    1.0767   -5.8522    1.7145 O   0  0  0  0  0  0  0  0  0  0  0  0
    2.1209   -7.9750    2.3953 C   0  0  2  0  0  0  0  0  0  0  0  0
    1.7389   -9.4138    2.8059 C   0  0  0  0  0  0  0  0  0  0  0  0
    3.0345  -10.2385    2.6861 C   0  0  0  0  0  0  0  0  0  0  0  0
    4.1024   -9.2917    2.1237 C   0  0  1  0  0  0  0  0  0  0  0  0
    4.0947   -9.4515    0.7048 O   0  0  0  0  0  0  0  0  0  0  0  0
    3.5883   -5.0172    8.3825 H   0  0  0  0  0  0  0  0  0  0  0  0
    3.2909   -3.2228    8.5989 H   0  0  0  0  0  0  0  0  0  0  0  0
    2.2652   -2.0019    6.8736 H   0  0  0  0  0  0  0  0  0  0  0  0
    3.6818   -1.8511    5.9745 H   0  0  0  0  0  0  0  0  0  0  0  0
   -1.2066   -1.1892    4.9882 H   0  0  0  0  0  0  0  0  0  0  0  0
   -0.9791   -2.7637    4.2337 H   0  0  0  0  0  0  0  0  0  0  0  0
   -0.2986   -1.3095    3.5054 H   0  0  0  0  0  0  0  0  0  0  0  0
    1.7329   -1.4733    2.8150 H   0  0  0  0  0  0  0  0  0  0  0  0
    4.1121    0.4536    5.2031 H   0  0  0  0  0  0  0  0  0  0  0  0
    2.6749    0.2101    6.2035 H   0  0  0  0  0  0  0  0  0  0  0  0
    2.9534    1.7532    5.4497 H   0  0  0  0  0  0  0  0  0  0  0  0
    3.5642    1.2438    2.6458 H   0  0  0  0  0  0  0  0  0  0  0  0
    2.1685    2.1885    3.0659 H   0  0  0  0  0  0  0  0  0  0  0  0
    1.9858    0.8238    1.9800 H   0  0  0  0  0  0  0  0  0  0  0  0
    0.8817    1.5821    4.2778 H   0  0  0  0  0  0  0  0  0  0  0  0
    3.9196   -0.8433    2.2936 H   0  0  0  0  0  0  0  0  0  0  0  0
    4.5602   -1.2600    3.8229 H   0  0  0  0  0  0  0  0  0  0  0  0
    3.7675   -2.8966    1.4224 H   0  0  0  0  0  0  0  0  0  0  0  0
    7.1716   -2.0111    1.0068 H   0  0  0  0  0  0  0  0  0  0  0  0
    5.9146   -0.8879    1.4517 H   0  0  0  0  0  0  0  0  0  0  0  0
    5.6159   -2.0929    0.1877 H   0  0  0  0  0  0  0  0  0  0  0  0
    4.8727   -4.9157    1.1320 H   0  0  0  0  0  0  0  0  0  0  0  0
    4.7023   -7.0684    0.8533 H   0  0  0  0  0  0  0  0  0  0  0  0
    5.1406   -7.4597    4.0003 H   0  0  0  0  0  0  0  0  0  0  0  0
    2.3692   -7.9623    5.0898 H   0  0  0  0  0  0  0  0  0  0  0  0
    2.9485   -6.7668    6.9585 H   0  0  0  0  0  0  0  0  0  0  0  0
    7.4859   -3.9434    5.7966 H   0  0  0  0  0  0  0  0  0  0  0  0
    7.6525   -5.0082    7.1866 H   0  0  0  0  0  0  0  0  0  0  0  0
    6.2053   -4.0658    7.0053 H   0  0  0  0  0  0  0  0  0  0  0  0
    8.0659   -6.1977    4.3738 H   0  0  0  0  0  0  0  0  0  0  0  0
    7.1190   -7.6340    4.7275 H   0  0  0  0  0  0  0  0  0  0  0  0
    8.1416   -6.9499    5.9606 H   0  0  0  0  0  0  0  0  0  0  0  0
    5.4191   -3.4901    5.7390 H   0  0  0  0  0  0  0  0  0  0  0  0
   -0.3087   -4.7167    6.0141 H   0  0  0  0  0  0  0  0  0  0  0  0
    0.8516   -3.8223    6.7775 H   0  0  0  0  0  0  0  0  0  0  0  0
    0.9031   -5.4968    7.0484 H   0  0  0  0  0  0  0  0  0  0  0  0
    0.6977   -3.8023    3.6265 H   0  0  0  0  0  0  0  0  0  0  0  0
   -0.2466   -8.2659    4.6426 H   0  0  0  0  0  0  0  0  0  0  0  0
    0.0653   -7.2553    6.1384 H   0  0  0  0  0  0  0  0  0  0  0  0
    0.2134   -7.3095    2.5736 H   0  0  0  0  0  0  0  0  0  0  0  0
    1.8761   -5.3499    1.7352 H   0  0  0  0  0  0  0  0  0  0  0  0
    2.0127   -8.0236    1.3116 H   0  0  0  0  0  0  0  0  0  0  0  0
    1.3636   -9.4774    3.8232 H   0  0  0  0  0  0  0  0  0  0  0  0
    0.9636   -9.8061    2.1435 H   0  0  0  0  0  0  0  0  0  0  0  0
    3.3373  -10.5678    3.6832 H   0  0  0  0  0  0  0  0  0  0  0  0
    2.9122  -11.1350    2.0860 H   0  0  0  0  0  0  0  0  0  0  0  0
    5.0971   -9.5557    2.4786 H   0  0  0  0  0  0  0  0  0  0  0  0
    4.2177  -10.3843    0.5169 H   0  0  0  0  0  0  0  0  0  0  0  0
  1  2  2  0
  1 46  1  0
  1 47  1  0
 31  2  1  1
  2  3  1  0
  3  4  1  0
  3 48  1  0
  3 49  1  0
  4 34  1  0
  4  5  1  1
  4  7  1  0
  5  6  1  0
  6 50  1  0
  6 51  1  0
  6 52  1  0
  7  8  1  0
  7 12  1  0
  7 53  1  6
  8  9  1  0
  8 10  1  0
  8 11  1  0
  9 54  1  0
  9 55  1  0
  9 56  1  0
 10 57  1  0
 10 58  1  0
 10 59  1  0
 11 60  1  0
 12 13  1  0
 12 61  1  0
 12 62  1  0
 13 14  1  0
 13 16  1  0
 13 63  1  6
 14 15  1  0
 15 64  1  0
 15 65  1  0
 15 66  1  0
 16 29  1  0
 16 35  1  1
 16 17  1  0
 17 18  2  3
 17 67  1  0
 19 18  1  6
 18 68  1  0
 19 41  1  0
 19 44  1  0
 19 20  1  0
 20 21  2  3
 20 69  1  0
 21 22  1  0
 21 70  1  0
 22 31  1  0
 22 23  1  0
 22 71  1  1
 23 24  2  0
 23 25  1  6
 25 26  1  0
 25 27  1  0
 25 28  1  0
 26 72  1  0
 26 73  1  0
 26 74  1  0
 27 75  1  0
 27 76  1  0
 27 77  1  0
 28 29  1  0
 29 30  1  1
 29 31  1  0
 30 78  1  0
 31 32  1  0
 32 33  1  1
 32 34  1  0
 32 36  1  0
 33 79  1  0
 33 80  1  0
 33 81  1  0
 34 35  1  0
 34 82  1  6
 36 38  1  6
 36 37  1  0
 36 39  1  0
 37 38  1  0
 37 83  1  0
 37 84  1  0
 39 40  1  0
 39 41  1  0
 39 85  1  6
 40 86  1  0
 41 42  1  0
 41 87  1  6
 42 43  1  0
 42 88  1  0
 42 89  1  0
 43 44  1  0
 43 90  1  0
 43 91  1  0
 44 45  1  0
 44 92  1  1
 45 93  1  0
M  END
>  <i_m_ct_stereo_status>  (60) 
1

>  <s_m_source_file>  (60) 
/var/tmp/pbs.5075288.sched01/tmp228mwnki/64h1usuhcs.sdf

>  <i_m_source_file_index>  (60) 
32

>  <i_lp_mmshare_version>  (60) 
48012

>  <i_f3d_flags>  (60) 
0

>  <s_epik_input>  (60) 
W0NIM11PW0NAQEhdMVtDSDJdW0NASF0oQyhbQ0gzXSkoW0NIM10pW09IXSlbQ0BdKE9bQ0gzXSkoW0NIMl1DMj1bQ0gyXSlbQ0BASF0oTzMpW0NAQF00KFtDSDNdKUM1KFtDSDJdTzUpW0NAQEhdKFtPSF0pW0NASF0oW0NIMl1bQ0gyXVtDQEhdNltPSF0pW0NAQF02KC9bQ0hdPVtDSF1cNykvW0NIXT1bQ0hdL1tDQEBIXShbUytdKFtPLV0pQyhPOCkoW0NIM10pW0NIM10pW0NAXTI0W0NAQF04KFtDQF0xMzcpW09IXQ==

>  <s_epik_cmdline>  (60) 
J2VwaWtfcHl0aG9uJywgJy1waHQnLCAnMi4wJywgJy1waCcsICc3LjAnLCAnLXRuJywgJzgnLCAnLW1hJywgJzIwMCcsICctaW1hZScsICc8aW5maWxlLm1hZT4nLCAnLW9tYWUnLCAnPG91dGZpbGUubWFlPic=

>  <r_lp_tautomer_probability>  (60) 
1

>  <r_epik_Ionization_Penalty>  (60) 
6.47439e-06

>  <r_epik_Ionization_Penalty_Charging>  (60) 
0

>  <r_epik_Ionization_Penalty_Neutral>  (60) 
6.47439e-06

>  <r_epik_State_Penalty>  (60) 
-0

>  <r_epik_Charging_Adjusted_Penalty>  (60) 
0

>  <i_epik_Tot_Q>  (60) 
0

>  <i_epik_Tot_abs_Q>  (60) 
2

>  <s_lp_Force_Field>  (60) 
OPLS3e

>  <r_lp_Energy>  (60) 
224.732

>  <b_lp_Chiralities_Consistent>  (60) 
1

>  <s_lp_Variant>  (60) 
41:0-5

>  <s_i_glide_gridfile>  (60) 
pfpi4k_grid

>  <i_i_glide_lignum>  (60) 
32

>  <i_i_glide_rotatable_bonds>  (60) 
7

>  <r_i_docking_score>  (60) 
-3.36229

>  <r_i_glide_ligand_efficiency>  (60) 
-0.0747176

>  <r_i_glide_ligand_efficiency_sa>  (60) 
-0.265762

>  <r_i_glide_ligand_efficiency_ln>  (60) 
-0.699506

>  <r_i_glide_gscore>  (60) 
-3.36229

>  <r_i_glide_lipo>  (60) 
-0.288095

>  <r_i_glide_hbond>  (60) 
-0.162409

>  <r_i_glide_metal>  (60) 
-0

>  <r_i_glide_rewards>  (60) 
-0.500279

>  <r_i_glide_evdw>  (60) 
-21.6386

>  <r_i_glide_ecoul>  (60) 
-9.20004

>  <r_i_glide_erotb>  (60) 
0.0504293

>  <r_i_glide_esite>  (60) 
0

>  <r_i_glide_emodel>  (60) 
-42.6615

>  <r_i_glide_energy>  (60) 
-30.8386

>  <r_i_glide_einternal>  (60) 
1.06567

>  <r_i_glide_intrahb_reward>  (60) 
-0.5

>  <i_i_glide_confnum>  (60) 
1

>  <i_i_glide_posenum>  (60) 
5

>  <r_i_glide_eff_state_penalty>  (60) 
0

>  <ligand_id>  (60) 
41

>  <original_smiles>  (60) 
C=C1CC2(OC)C(C(C)(C)O)CC(OC)C34C=CC56C=CC7[S+]([O-])C(C)(C)OC3(O)C17C(C)(C2O4)C1(CO1)C(O)C5CCC6O

>  <smiles>  (60) 
[H]OC1([H])C([H])([H])C([H])([H])C2([H])C([H])(O[H])C3(OC3([H])[H])C3(C([H])([H])[H])C4([H])OC56C([H])=C([H])C12C([H])=C([H])C1([H])S(=O)C(C([H])([H])[H])(C([H])([H])[H])OC5(O[H])C13C(=C([H])[H])C([H])([H])C4(OC([H])([H])[H])C([H])(C(O[H])(C([H])([H])[H])C([H])([H])[H])C([H])([H])C6([H])OC([H])([H])[H]

$$$$
41:4:2
     RDKit          3D

 93100  0  0  1  0  0  0  0  0999 V2000
    3.4903   -4.4969    8.5902 C   0  0  0  0  0  0  0  0  0  0  0  0
    3.1727   -4.2252    7.3198 C   0  0  0  0  0  0  0  0  0  0  0  0
    2.5618   -2.8192    6.9864 C   0  0  0  0  0  0  0  0  0  0  0  0
    1.5313   -2.7162    5.7855 C   0  0  1  0  0  0  0  0  0  0  0  0
    0.3111   -2.4436    6.5115 O   0  0  0  0  0  0  0  0  0  0  0  0
   -0.9728   -2.6314    5.9233 C   0  0  0  0  0  0  0  0  0  0  0  0
    1.7599   -1.4897    4.7951 C   0  0  1  0  0  0  0  0  0  0  0  0
    1.4900   -0.0267    5.3728 C   0  0  0  0  0  0  0  0  0  0  0  0
    2.3155    0.3661    6.6182 C   0  0  0  0  0  0  0  0  0  0  0  0
    1.6567    1.0930    4.3180 C   0  0  0  0  0  0  0  0  0  0  0  0
    0.1324    0.1410    5.7336 O   0  0  0  0  0  0  0  0  0  0  0  0
    3.1461   -1.5012    4.0651 C   0  0  0  0  0  0  0  0  0  0  0  0
    3.6538   -2.6941    3.1827 C   0  0  1  0  0  0  0  0  0  0  0  0
    5.0133   -2.4782    2.7883 O   0  0  0  0  0  0  0  0  0  0  0  0
    5.2359   -1.4201    1.8650 C   0  0  0  0  0  0  0  0  0  0  0  0
    3.4790   -4.1901    3.6599 C   0  0  1  0  0  0  0  0  0  0  0  0
    3.8997   -5.0791    2.4486 C   0  0  0  0  0  0  0  0  0  0  0  0
    3.8888   -6.4025    2.1230 C   0  0  0  0  0  0  0  0  0  0  0  0
    3.4941   -7.6947    2.8631 C   0  0  1  0  0  0  0  0  0  0  0  0
    4.0900   -7.6300    4.2356 C   0  0  0  0  0  0  0  0  0  0  0  0
    3.4537   -7.6919    5.4044 C   0  0  0  0  0  0  0  0  0  0  0  0
    3.7416   -6.7294    6.5340 C   0  0  1  0  0  0  0  0  0  0  0  0
    5.5401   -6.8830    7.0117 S   0  0  0  0  0  0  0  0  0  0  0  0
    5.7858   -6.4263    8.4456 O   0  0  0  0  0  0  0  0  0  0  0  0
    6.2800   -5.6677    5.8349 C   0  0  0  0  0  0  0  0  0  0  0  0
    6.9031   -4.5503    6.7108 C   0  0  0  0  0  0  0  0  0  0  0  0
    7.4523   -6.4007    5.1489 C   0  0  0  0  0  0  0  0  0  0  0  0
    5.3790   -5.2644    4.7796 O   0  0  0  0  0  0  0  0  0  0  0  0
    4.2086   -4.5357    5.0302 C   0  0  1  0  0  0  0  0  0  0  0  0
    4.7628   -3.3226    5.4954 O   0  0  0  0  0  0  0  0  0  0  0  0
    3.2066   -5.2596    6.1414 C   0  0  2  0  0  0  0  0  0  0  0  0
    1.5959   -5.3651    5.7463 C   0  0  1  0  0  0  0  0  0  0  0  0
    0.7669   -5.3094    7.1232 C   0  0  0  0  0  0  0  0  0  0  0  0
    1.3668   -4.0673    4.9767 C   0  0  2  0  0  0  0  0  0  0  0  0
    2.0678   -4.1669    3.7451 O   0  0  0  0  0  0  0  0  0  0  0  0
    0.8454   -6.5870    4.9510 C   0  0  1  0  0  0  0  0  0  0  0  0
    0.1705   -7.7473    5.7044 C   0  0  0  0  0  0  0  0  0  0  0  0
   -0.5725   -6.6342    5.2350 O   0  0  0  0  0  0  0  0  0  0  0  0
    0.9577   -6.9034    3.4072 C   0  0  1  0  0  0  0  0  0  0  0  0
    0.6982   -5.8569    2.4815 O   0  0  0  0  0  0  0  0  0  0  0  0
    1.9782   -7.9253    2.8088 C   0  0  2  0  0  0  0  0  0  0  0  0
    1.7696   -9.4247    3.0854 C   0  0  0  0  0  0  0  0  0  0  0  0
    3.1132  -10.0991    2.7587 C   0  0  0  0  0  0  0  0  0  0  0  0
    4.0323   -8.9977    2.2134 C   0  0  1  0  0  0  0  0  0  0  0  0
    3.9046   -9.0059    0.8089 O   0  0  0  0  0  0  0  0  0  0  0  0
    3.8091   -5.4756    8.9218 H   0  0  0  0  0  0  0  0  0  0  0  0
    3.3749   -3.7525    9.3645 H   0  0  0  0  0  0  0  0  0  0  0  0
    2.0734   -2.4836    7.9007 H   0  0  0  0  0  0  0  0  0  0  0  0
    3.3553   -2.0852    6.8897 H   0  0  0  0  0  0  0  0  0  0  0  0
   -1.7249   -2.0758    6.4806 H   0  0  0  0  0  0  0  0  0  0  0  0
   -1.2705   -3.6726    6.0054 H   0  0  0  0  0  0  0  0  0  0  0  0
   -1.0185   -2.3061    4.8841 H   0  0  0  0  0  0  0  0  0  0  0  0
    1.0211   -1.6156    4.0016 H   0  0  0  0  0  0  0  0  0  0  0  0
    3.3870    0.2561    6.4515 H   0  0  0  0  0  0  0  0  0  0  0  0
    2.0404   -0.2183    7.4932 H   0  0  0  0  0  0  0  0  0  0  0  0
    2.1468    1.4098    6.8842 H   0  0  0  0  0  0  0  0  0  0  0  0
    2.7040    1.2889    4.0844 H   0  0  0  0  0  0  0  0  0  0  0  0
    1.2516    2.0419    4.6754 H   0  0  0  0  0  0  0  0  0  0  0  0
    1.1429    0.8493    3.3862 H   0  0  0  0  0  0  0  0  0  0  0  0
   -0.3791    0.1396    4.9420 H   0  0  0  0  0  0  0  0  0  0  0  0
    3.1077   -0.6904    3.3448 H   0  0  0  0  0  0  0  0  0  0  0  0
    3.9237   -1.1845    4.7559 H   0  0  0  0  0  0  0  0  0  0  0  0
    3.0555   -2.6356    2.2695 H   0  0  0  0  0  0  0  0  0  0  0  0
    6.2958   -1.3834    1.6118 H   0  0  0  0  0  0  0  0  0  0  0  0
    4.9866   -0.4423    2.2755 H   0  0  0  0  0  0  0  0  0  0  0  0
    4.6771   -1.5621    0.9392 H   0  0  0  0  0  0  0  0  0  0  0  0
    4.2961   -4.4831    1.6407 H   0  0  0  0  0  0  0  0  0  0  0  0
    4.2844   -6.5920    1.1341 H   0  0  0  0  0  0  0  0  0  0  0  0
    5.0877   -7.2709    4.1614 H   0  0  0  0  0  0  0  0  0  0  0  0
    2.5040   -8.1702    5.4471 H   0  0  0  0  0  0  0  0  0  0  0  0
    3.1707   -7.1288    7.3707 H   0  0  0  0  0  0  0  0  0  0  0  0
    7.3227   -3.7510    6.0996 H   0  0  0  0  0  0  0  0  0  0  0  0
    7.7051   -4.9365    7.3422 H   0  0  0  0  0  0  0  0  0  0  0  0
    6.1790   -4.1211    7.4037 H   0  0  0  0  0  0  0  0  0  0  0  0
    7.9189   -5.7745    4.3883 H   0  0  0  0  0  0  0  0  0  0  0  0
    7.1438   -7.3253    4.6680 H   0  0  0  0  0  0  0  0  0  0  0  0
    8.2271   -6.6752    5.8665 H   0  0  0  0  0  0  0  0  0  0  0  0
    5.1778   -3.4935    6.3221 H   0  0  0  0  0  0  0  0  0  0  0  0
   -0.3097   -5.3680    7.0258 H   0  0  0  0  0  0  0  0  0  0  0  0
    0.8260   -4.4004    7.7346 H   0  0  0  0  0  0  0  0  0  0  0  0
    1.0851   -6.0780    7.8250 H   0  0  0  0  0  0  0  0  0  0  0  0
    0.3612   -4.1087    4.5792 H   0  0  0  0  0  0  0  0  0  0  0  0
   -0.1086   -8.6871    5.2023 H   0  0  0  0  0  0  0  0  0  0  0  0
    0.2496   -7.8274    6.7782 H   0  0  0  0  0  0  0  0  0  0  0  0
    0.0417   -7.4672    3.2465 H   0  0  0  0  0  0  0  0  0  0  0  0
    1.3871   -5.2053    2.6202 H   0  0  0  0  0  0  0  0  0  0  0  0
    1.7581   -7.8642    1.7464 H   0  0  0  0  0  0  0  0  0  0  0  0
    1.5101   -9.6324    4.1212 H   0  0  0  0  0  0  0  0  0  0  0  0
    0.9661   -9.8208    2.4603 H   0  0  0  0  0  0  0  0  0  0  0  0
    3.5457  -10.4988    3.6732 H   0  0  0  0  0  0  0  0  0  0  0  0
    3.0112  -10.9410    2.0728 H   0  0  0  0  0  0  0  0  0  0  0  0
    5.0788   -9.1968    2.4486 H   0  0  0  0  0  0  0  0  0  0  0  0
    4.5605   -8.4351    0.4472 H   0  0  0  0  0  0  0  0  0  0  0  0
  1  2  2  0
  1 46  1  0
  1 47  1  0
 31  2  1  1
  2  3  1  0
  3  4  1  0
  3 48  1  0
  3 49  1  0
  4 34  1  0
  4  5  1  1
  4  7  1  0
  5  6  1  0
  6 50  1  0
  6 51  1  0
  6 52  1  0
  7  8  1  0
  7 12  1  0
  7 53  1  6
  8  9  1  0
  8 10  1  0
  8 11  1  0
  9 54  1  0
  9 55  1  0
  9 56  1  0
 10 57  1  0
 10 58  1  0
 10 59  1  0
 11 60  1  0
 12 13  1  0
 12 61  1  0
 12 62  1  0
 13 14  1  0
 13 16  1  0
 13 63  1  6
 14 15  1  0
 15 64  1  0
 15 65  1  0
 15 66  1  0
 16 29  1  0
 16 35  1  1
 16 17  1  0
 17 18  2  3
 17 67  1  0
 19 18  1  6
 18 68  1  0
 19 41  1  0
 19 44  1  0
 19 20  1  0
 20 21  2  3
 20 69  1  0
 21 22  1  0
 21 70  1  0
 22 31  1  0
 22 23  1  0
 22 71  1  1
 23 24  2  0
 23 25  1  6
 25 26  1  0
 25 27  1  0
 25 28  1  0
 26 72  1  0
 26 73  1  0
 26 74  1  0
 27 75  1  0
 27 76  1  0
 27 77  1  0
 28 29  1  0
 29 30  1  1
 29 31  1  0
 30 78  1  0
 31 32  1  0
 32 33  1  1
 32 34  1  0
 32 36  1  0
 33 79  1  0
 33 80  1  0
 33 81  1  0
 34 35  1  0
 34 82  1  6
 36 38  1  6
 36 37  1  0
 36 39  1  0
 37 38  1  0
 37 83  1  0
 37 84  1  0
 39 40  1  0
 39 41  1  0
 39 85  1  6
 40 86  1  0
 41 42  1  0
 41 87  1  6
 42 43  1  0
 42 88  1  0
 42 89  1  0
 43 44  1  0
 43 90  1  0
 43 91  1  0
 44 45  1  0
 44 92  1  6
 45 93  1  0
M  END
>  <i_m_ct_stereo_status>  (61) 
1

>  <s_m_source_file>  (61) 
/var/tmp/pbs.5075288.sched01/tmp228mwnki/64h1usuhcs.sdf

>  <i_m_source_file_index>  (61) 
32

>  <i_lp_mmshare_version>  (61) 
48012

>  <i_f3d_flags>  (61) 
0

>  <s_epik_input>  (61) 
W0NIM11PW0NAQEhdMVtDSDJdW0NASF0oQyhbQ0gzXSkoW0NIM10pW09IXSlbQ0BdKE9bQ0gzXSkoW0NIMl1DMj1bQ0gyXSlbQ0BASF0oTzMpW0NAQF00KFtDSDNdKUM1KFtDSDJdTzUpW0NAQEhdKFtPSF0pW0NASF0oW0NIMl1bQ0gyXVtDQEhdNltPSF0pW0NAQF02KC9bQ0hdPVtDSF1cNykvW0NIXT1bQ0hdL1tDQEBIXShbUytdKFtPLV0pQyhPOCkoW0NIM10pW0NIM10pW0NAXTI0W0NAQF04KFtDQF0xMzcpW09IXQ==

>  <s_epik_cmdline>  (61) 
J2VwaWtfcHl0aG9uJywgJy1waHQnLCAnMi4wJywgJy1waCcsICc3LjAnLCAnLXRuJywgJzgnLCAnLW1hJywgJzIwMCcsICctaW1hZScsICc8aW5maWxlLm1hZT4nLCAnLW9tYWUnLCAnPG91dGZpbGUubWFlPic=

>  <r_lp_tautomer_probability>  (61) 
1

>  <r_epik_Ionization_Penalty>  (61) 
6.47439e-06

>  <r_epik_Ionization_Penalty_Charging>  (61) 
0

>  <r_epik_Ionization_Penalty_Neutral>  (61) 
6.47439e-06

>  <r_epik_State_Penalty>  (61) 
-0

>  <r_epik_Charging_Adjusted_Penalty>  (61) 
0

>  <i_epik_Tot_Q>  (61) 
0

>  <i_epik_Tot_abs_Q>  (61) 
2

>  <s_lp_Force_Field>  (61) 
OPLS3e

>  <r_lp_Energy>  (61) 
224.732

>  <b_lp_Chiralities_Consistent>  (61) 
1

>  <s_lp_Variant>  (61) 
41:0-5

>  <s_i_glide_gridfile>  (61) 
pfpi4k_grid

>  <i_i_glide_lignum>  (61) 
32

>  <i_i_glide_rotatable_bonds>  (61) 
7

>  <r_i_docking_score>  (61) 
-2.33969

>  <r_i_glide_ligand_efficiency>  (61) 
-0.0519932

>  <r_i_glide_ligand_efficiency_sa>  (61) 
-0.184934

>  <r_i_glide_ligand_efficiency_ln>  (61) 
-0.486761

>  <r_i_glide_gscore>  (61) 
-2.33969

>  <r_i_glide_lipo>  (61) 
-0.155077

>  <r_i_glide_hbond>  (61) 
0

>  <r_i_glide_metal>  (61) 
-0

>  <r_i_glide_rewards>  (61) 
-0.500032

>  <r_i_glide_evdw>  (61) 
-21.5467

>  <r_i_glide_ecoul>  (61) 
-4.38454

>  <r_i_glide_erotb>  (61) 
0.0504293

>  <r_i_glide_esite>  (61) 
0

>  <r_i_glide_emodel>  (61) 
-35.4542

>  <r_i_glide_energy>  (61) 
-25.9312

>  <r_i_glide_einternal>  (61) 
1.42386

>  <r_i_glide_intrahb_reward>  (61) 
-0.5

>  <i_i_glide_confnum>  (61) 
2

>  <i_i_glide_posenum>  (61) 
30

>  <r_i_glide_eff_state_penalty>  (61) 
0

>  <ligand_id>  (61) 
41

>  <original_smiles>  (61) 
C=C1CC2(OC)C(C(C)(C)O)CC(OC)C34C=CC56C=CC7[S+]([O-])C(C)(C)OC3(O)C17C(C)(C2O4)C1(CO1)C(O)C5CCC6O

>  <smiles>  (61) 
[H]OC1([H])C([H])([H])C([H])([H])C2([H])C([H])(O[H])C3(OC3([H])[H])C3(C([H])([H])[H])C4([H])OC56C([H])=C([H])C12C([H])=C([H])C1([H])S(=O)C(C([H])([H])[H])(C([H])([H])[H])OC5(O[H])C13C(=C([H])[H])C([H])([H])C4(OC([H])([H])[H])C([H])(C(O[H])(C([H])([H])[H])C([H])([H])[H])C([H])([H])C6([H])OC([H])([H])[H]

$$$$
41:5:0
     RDKit          3D

 93100  0  0  1  0  0  0  0  0999 V2000
    3.2997   -5.0519    9.3346 C   0  0  0  0  0  0  0  0  0  0  0  0
    2.7965   -4.9250    8.0863 C   0  0  0  0  0  0  0  0  0  0  0  0
    1.8144   -3.7315    7.7759 C   0  0  0  0  0  0  0  0  0  0  0  0
    0.6877   -3.9956    6.6613 C   0  0  1  0  0  0  0  0  0  0  0  0
   -0.4960   -3.8956    7.4959 O   0  0  0  0  0  0  0  0  0  0  0  0
   -1.8316   -4.0752    7.0107 C   0  0  0  0  0  0  0  0  0  0  0  0
    0.5502   -2.8671    5.5164 C   0  0  1  0  0  0  0  0  0  0  0  0
    0.1626   -1.3842    5.9868 C   0  0  0  0  0  0  0  0  0  0  0  0
    1.2855   -0.3259    5.8677 C   0  0  0  0  0  0  0  0  0  0  0  0
   -1.0735   -0.8583    5.2290 C   0  0  0  0  0  0  0  0  0  0  0  0
   -0.1742   -1.2861    7.3531 O   0  0  0  0  0  0  0  0  0  0  0  0
    1.6133   -2.7579    4.3495 C   0  0  0  0  0  0  0  0  0  0  0  0
    2.2295   -3.9831    3.5917 C   0  0  1  0  0  0  0  0  0  0  0  0
    3.4216   -3.6065    2.8981 O   0  0  0  0  0  0  0  0  0  0  0  0
    3.2372   -2.6892    1.8247 C   0  0  0  0  0  0  0  0  0  0  0  0
    2.5037   -5.2782    4.4074 C   0  0  1  0  0  0  0  0  0  0  0  0
    3.0670   -6.4065    3.5122 C   0  0  0  0  0  0  0  0  0  0  0  0
    2.3928   -7.5406    3.2792 C   0  0  0  0  0  0  0  0  0  0  0  0
    2.6218   -8.9345    3.9187 C   0  0  1  0  0  0  0  0  0  0  0  0
    3.3117   -8.9778    5.2968 C   0  0  0  0  0  0  0  0  0  0  0  0
    4.0627   -8.0049    5.7956 C   0  0  0  0  0  0  0  0  0  0  0  0
    3.9392   -7.2669    7.1360 C   0  0  1  0  0  0  0  0  0  0  0  0
    5.7053   -6.8145    7.5295 S   0  0  0  0  0  0  0  0  0  0  0  0
    5.8901   -6.2223    8.9236 O   0  0  0  0  0  0  0  0  0  0  0  0
    5.8854   -5.4864    6.2550 C   0  0  0  0  0  0  0  0  0  0  0  0
    6.2152   -4.1781    7.0069 C   0  0  0  0  0  0  0  0  0  0  0  0
    7.1025   -5.9047    5.4199 C   0  0  0  0  0  0  0  0  0  0  0  0
    4.7930   -5.4332    5.3139 O   0  0  0  0  0  0  0  0  0  0  0  0
    3.4651   -5.1196    5.6707 C   0  0  1  0  0  0  0  0  0  0  0  0
    3.6572   -3.7518    5.9133 O   0  0  0  0  0  0  0  0  0  0  0  0
    2.9224   -6.0031    6.9778 C   0  0  2  0  0  0  0  0  0  0  0  0
    1.3357   -6.5573    6.9558 C   0  0  1  0  0  0  0  0  0  0  0  0
    0.6212   -6.4125    8.3887 C   0  0  0  0  0  0  0  0  0  0  0  0
    0.6786   -5.4679    6.0875 C   0  0  2  0  0  0  0  0  0  0  0  0
    1.1556   -5.6185    4.7590 O   0  0  0  0  0  0  0  0  0  0  0  0
    0.8990   -8.1174    6.6384 C   0  0  1  0  0  0  0  0  0  0  0  0
    1.2657   -9.2190    7.6569 C   0  0  0  0  0  0  0  0  0  0  0  0
   -0.0157   -8.6352    7.6382 O   0  0  0  0  0  0  0  0  0  0  0  0
    0.3206   -8.6297    5.2589 C   0  0  1  0  0  0  0  0  0  0  0  0
   -0.5699   -7.7365    4.6037 O   0  0  0  0  0  0  0  0  0  0  0  0
    1.1939   -9.4348    4.2076 C   0  0  2  0  0  0  0  0  0  0  0  0
    1.3203  -10.9705    4.3180 C   0  0  0  0  0  0  0  0  0  0  0  0
    2.6183  -11.3308    3.5656 C   0  0  0  0  0  0  0  0  0  0  0  0
    3.2025  -10.0207    3.0034 C   0  0  1  0  0  0  0  0  0  0  0  0
    2.7940   -9.8689    1.6639 O   0  0  0  0  0  0  0  0  0  0  0  0
    3.8271   -5.9339    9.6450 H   0  0  0  0  0  0  0  0  0  0  0  0
    3.1008   -4.3127   10.0946 H   0  0  0  0  0  0  0  0  0  0  0  0
    1.3383   -3.4725    8.7227 H   0  0  0  0  0  0  0  0  0  0  0  0
    2.3520   -2.8030    7.5856 H   0  0  0  0  0  0  0  0  0  0  0  0
   -2.5284   -3.7681    7.7870 H   0  0  0  0  0  0  0  0  0  0  0  0
   -2.0982   -5.1069    6.7878 H   0  0  0  0  0  0  0  0  0  0  0  0
   -2.0496   -3.4606    6.1449 H   0  0  0  0  0  0  0  0  0  0  0  0
   -0.3086   -3.2218    4.9482 H   0  0  0  0  0  0  0  0  0  0  0  0
    1.5016   -0.0934    4.8240 H   0  0  0  0  0  0  0  0  0  0  0  0
    2.2112   -0.6502    6.3434 H   0  0  0  0  0  0  0  0  0  0  0  0
    0.9987    0.6203    6.3314 H   0  0  0  0  0  0  0  0  0  0  0  0
   -0.8740   -0.8023    4.1584 H   0  0  0  0  0  0  0  0  0  0  0  0
   -1.3495    0.1377    5.5792 H   0  0  0  0  0  0  0  0  0  0  0  0
   -1.9550   -1.4825    5.3637 H   0  0  0  0  0  0  0  0  0  0  0  0
    0.6017   -1.4223    7.8591 H   0  0  0  0  0  0  0  0  0  0  0  0
    1.1468   -2.1361    3.5857 H   0  0  0  0  0  0  0  0  0  0  0  0
    2.4587   -2.1593    4.6683 H   0  0  0  0  0  0  0  0  0  0  0  0
    1.5037   -4.2718    2.8354 H   0  0  0  0  0  0  0  0  0  0  0  0
    4.1903   -2.5166    1.3277 H   0  0  0  0  0  0  0  0  0  0  0  0
    2.8813   -1.7177    2.1668 H   0  0  0  0  0  0  0  0  0  0  0  0
    2.5399   -3.0694    1.0769 H   0  0  0  0  0  0  0  0  0  0  0  0
    4.1345   -6.4801    3.5045 H   0  0  0  0  0  0  0  0  0  0  0  0
    1.3441   -7.3530    3.1948 H   0  0  0  0  0  0  0  0  0  0  0  0
    2.8171   -9.6360    5.9721 H   0  0  0  0  0  0  0  0  0  0  0  0
    4.6614   -7.5514    5.0453 H   0  0  0  0  0  0  0  0  0  0  0  0
    3.6420   -7.9606    7.9179 H   0  0  0  0  0  0  0  0  0  0  0  0
    6.3181   -3.3398    6.3167 H   0  0  0  0  0  0  0  0  0  0  0  0
    7.1506   -4.2643    7.5639 H   0  0  0  0  0  0  0  0  0  0  0  0
    5.4555   -3.9313    7.7448 H   0  0  0  0  0  0  0  0  0  0  0  0
    7.3065   -5.1748    4.6379 H   0  0  0  0  0  0  0  0  0  0  0  0
    6.9380   -6.8633    4.9317 H   0  0  0  0  0  0  0  0  0  0  0  0
    8.0039   -6.0003    6.0286 H   0  0  0  0  0  0  0  0  0  0  0  0
    4.2355   -3.6660    6.6462 H   0  0  0  0  0  0  0  0  0  0  0  0
   -0.4524   -6.5978    8.2905 H   0  0  0  0  0  0  0  0  0  0  0  0
    0.6064   -5.4799    8.9121 H   0  0  0  0  0  0  0  0  0  0  0  0
    1.0340   -7.0920    9.1353 H   0  0  0  0  0  0  0  0  0  0  0  0
   -0.3568   -5.7528    5.9748 H   0  0  0  0  0  0  0  0  0  0  0  0
    1.3196  -10.2399    7.3278 H   0  0  0  0  0  0  0  0  0  0  0  0
    1.8234   -8.9990    8.5730 H   0  0  0  0  0  0  0  0  0  0  0  0
   -0.3830   -9.3898    5.5916 H   0  0  0  0  0  0  0  0  0  0  0  0
   -0.0580   -7.0032    4.2958 H   0  0  0  0  0  0  0  0  0  0  0  0
    0.6384   -9.3460    3.2700 H   0  0  0  0  0  0  0  0  0  0  0  0
    1.3885  -11.3108    5.3471 H   0  0  0  0  0  0  0  0  0  0  0  0
    0.4591  -11.4638    3.8709 H   0  0  0  0  0  0  0  0  0  0  0  0
    3.3301  -11.7547    4.2736 H   0  0  0  0  0  0  0  0  0  0  0  0
    2.4736  -12.0855    2.7940 H   0  0  0  0  0  0  0  0  0  0  0  0
    4.2921  -10.0210    3.0178 H   0  0  0  0  0  0  0  0  0  0  0  0
    3.2096  -10.5619    1.1682 H   0  0  0  0  0  0  0  0  0  0  0  0
  1  2  2  0
  1 46  1  0
  1 47  1  0
 31  2  1  1
  2  3  1  0
  3  4  1  0
  3 48  1  0
  3 49  1  0
  4 34  1  0
  4  5  1  1
  4  7  1  0
  5  6  1  0
  6 50  1  0
  6 51  1  0
  6 52  1  0
  7  8  1  0
  7 12  1  0
  7 53  1  6
  8  9  1  0
  8 10  1  0
  8 11  1  0
  9 54  1  0
  9 55  1  0
  9 56  1  0
 10 57  1  0
 10 58  1  0
 10 59  1  0
 11 60  1  0
 12 13  1  0
 12 61  1  0
 12 62  1  0
 13 14  1  0
 13 16  1  0
 13 63  1  6
 14 15  1  0
 15 64  1  0
 15 65  1  0
 15 66  1  0
 16 29  1  0
 16 35  1  1
 16 17  1  0
 17 18  2  3
 17 67  1  0
 19 18  1  6
 18 68  1  0
 19 41  1  0
 19 44  1  0
 19 20  1  0
 20 21  2  3
 20 69  1  0
 21 22  1  0
 21 70  1  0
 22 31  1  0
 22 23  1  0
 22 71  1  1
 23 24  2  0
 23 25  1  6
 25 26  1  0
 25 27  1  0
 25 28  1  0
 26 72  1  0
 26 73  1  0
 26 74  1  0
 27 75  1  0
 27 76  1  0
 27 77  1  0
 28 29  1  0
 29 30  1  1
 29 31  1  0
 30 78  1  0
 31 32  1  0
 32 33  1  1
 32 34  1  0
 32 36  1  0
 33 79  1  0
 33 80  1  0
 33 81  1  0
 34 35  1  0
 34 82  1  6
 36 38  1  1
 36 37  1  0
 36 39  1  0
 37 38  1  0
 37 83  1  0
 37 84  1  0
 39 40  1  0
 39 41  1  0
 39 85  1  1
 40 86  1  0
 41 42  1  0
 41 87  1  6
 42 43  1  0
 42 88  1  0
 42 89  1  0
 43 44  1  0
 43 90  1  0
 43 91  1  0
 44 45  1  0
 44 92  1  6
 45 93  1  0
M  END
>  <i_m_ct_stereo_status>  (62) 
1

>  <s_m_source_file>  (62) 
/var/tmp/pbs.5075288.sched01/tmp228mwnki/64h1usuhcs.sdf

>  <i_m_source_file_index>  (62) 
33

>  <i_lp_mmshare_version>  (62) 
48012

>  <i_f3d_flags>  (62) 
0

>  <s_epik_input>  (62) 
W0NIM11PW0NAQEhdMVtDSDJdW0NASF0oQyhbQ0gzXSkoW0NIM10pW09IXSlbQ0BdKE9bQ0gzXSkoW0NIMl1DMj1bQ0gyXSlbQ0BASF0oTzMpW0NAQF00KFtDSDNdKUM1KFtDSDJdTzUpW0NAQEhdKFtPSF0pW0NASF0oW0NIMl1bQ0gyXVtDQEhdNltPSF0pW0NAQF02KC9bQ0hdPVtDSF1cNykvW0NIXT1bQ0hdL1tDQEBIXShbUytdKFtPLV0pQyhPOCkoW0NIM10pW0NIM10pW0NAXTI0W0NAQF04KFtDQF0xMzcpW09IXQ==

>  <s_epik_cmdline>  (62) 
J2VwaWtfcHl0aG9uJywgJy1waHQnLCAnMi4wJywgJy1waCcsICc3LjAnLCAnLXRuJywgJzgnLCAnLW1hJywgJzIwMCcsICctaW1hZScsICc8aW5maWxlLm1hZT4nLCAnLW9tYWUnLCAnPG91dGZpbGUubWFlPic=

>  <r_lp_tautomer_probability>  (62) 
1

>  <r_epik_Ionization_Penalty>  (62) 
6.47439e-06

>  <r_epik_Ionization_Penalty_Charging>  (62) 
0

>  <r_epik_Ionization_Penalty_Neutral>  (62) 
6.47439e-06

>  <r_epik_State_Penalty>  (62) 
-0

>  <r_epik_Charging_Adjusted_Penalty>  (62) 
0

>  <i_epik_Tot_Q>  (62) 
0

>  <i_epik_Tot_abs_Q>  (62) 
2

>  <s_lp_Force_Field>  (62) 
OPLS3e

>  <r_lp_Energy>  (62) 
279.58

>  <b_lp_Chiralities_Consistent>  (62) 
1

>  <s_lp_Variant>  (62) 
41:0-6

>  <s_i_glide_gridfile>  (62) 
pfpi4k_grid

>  <i_i_glide_lignum>  (62) 
33

>  <i_i_glide_rotatable_bonds>  (62) 
7

>  <r_i_docking_score>  (62) 
-2.80967

>  <r_i_glide_ligand_efficiency>  (62) 
-0.0624371

>  <r_i_glide_ligand_efficiency_sa>  (62) 
-0.222082

>  <r_i_glide_ligand_efficiency_ln>  (62) 
-0.584537

>  <r_i_glide_gscore>  (62) 
-2.80967

>  <r_i_glide_lipo>  (62) 
-0.0636747

>  <r_i_glide_hbond>  (62) 
-0.16

>  <r_i_glide_metal>  (62) 
-0

>  <r_i_glide_rewards>  (62) 
-0.5

>  <r_i_glide_evdw>  (62) 
-23.0977

>  <r_i_glide_ecoul>  (62) 
-6.5436

>  <r_i_glide_erotb>  (62) 
0.0504293

>  <r_i_glide_esite>  (62) 
0

>  <r_i_glide_emodel>  (62) 
-39.1255

>  <r_i_glide_energy>  (62) 
-29.6413

>  <r_i_glide_einternal>  (62) 
3.01863

>  <r_i_glide_intrahb_reward>  (62) 
-0.5

>  <i_i_glide_confnum>  (62) 
4

>  <i_i_glide_posenum>  (62) 
22

>  <r_i_glide_eff_state_penalty>  (62) 
0

>  <ligand_id>  (62) 
41

>  <original_smiles>  (62) 
C=C1CC2(OC)C(C(C)(C)O)CC(OC)C34C=CC56C=CC7[S+]([O-])C(C)(C)OC3(O)C17C(C)(C2O4)C1(CO1)C(O)C5CCC6O

>  <smiles>  (62) 
[H]OC1([H])C([H])([H])C([H])([H])C2([H])C([H])(O[H])C3(OC3([H])[H])C3(C([H])([H])[H])C4([H])OC56C([H])=C([H])C12C([H])=C([H])C1([H])S(=O)C(C([H])([H])[H])(C([H])([H])[H])OC5(O[H])C13C(=C([H])[H])C([H])([H])C4(OC([H])([H])[H])C([H])(C(O[H])(C([H])([H])[H])C([H])([H])[H])C([H])([H])C6([H])OC([H])([H])[H]

$$$$
41:5:1
     RDKit          3D

 93100  0  0  1  0  0  0  0  0999 V2000
    6.9119   -5.1743    6.4353 C   0  0  0  0  0  0  0  0  0  0  0  0
    5.8050   -4.9972    5.7094 C   0  0  0  0  0  0  0  0  0  0  0  0
    5.2630   -3.5286    5.4612 C   0  0  0  0  0  0  0  0  0  0  0  0
    3.6736   -3.3205    5.3121 C   0  0  1  0  0  0  0  0  0  0  0  0
    3.3870   -2.5332    6.4837 O   0  0  0  0  0  0  0  0  0  0  0  0
    2.0760   -2.1268    6.8709 C   0  0  0  0  0  0  0  0  0  0  0  0
    3.1851   -2.4234    4.0620 C   0  0  1  0  0  0  0  0  0  0  0  0
    3.7288   -0.9099    3.9872 C   0  0  0  0  0  0  0  0  0  0  0  0
    3.3707    0.0339    5.1563 C   0  0  0  0  0  0  0  0  0  0  0  0
    5.2413   -0.7578    3.7179 C   0  0  0  0  0  0  0  0  0  0  0  0
    3.1172   -0.2632    2.8871 O   0  0  0  0  0  0  0  0  0  0  0  0
    3.2437   -3.0318    2.5958 C   0  0  0  0  0  0  0  0  0  0  0  0
    2.8172   -4.4941    2.2052 C   0  0  1  0  0  0  0  0  0  0  0  0
    3.3125   -4.8610    0.9103 O   0  0  0  0  0  0  0  0  0  0  0  0
    2.9051   -4.0280   -0.1743 C   0  0  0  0  0  0  0  0  0  0  0  0
    3.1264   -5.6393    3.2085 C   0  0  1  0  0  0  0  0  0  0  0  0
    2.5940   -7.0016    2.7144 C   0  0  0  0  0  0  0  0  0  0  0  0
    1.6289   -7.6674    3.3585 C   0  0  0  0  0  0  0  0  0  0  0  0
    1.7803   -8.8933    4.2981 C   0  0  1  0  0  0  0  0  0  0  0  0
    3.1370   -9.0848    5.0030 C   0  0  0  0  0  0  0  0  0  0  0  0
    4.2840   -8.5721    4.5930 C   0  0  0  0  0  0  0  0  0  0  0  0
    5.2866   -7.6862    5.3624 C   0  0  1  0  0  0  0  0  0  0  0  0
    6.9109   -8.1166    4.5665 S   0  0  0  0  0  0  0  0  0  0  0  0
    8.1260   -7.5163    5.2825 O   0  0  0  0  0  0  0  0  0  0  0  0
    6.6277   -7.2336    2.9662 C   0  0  0  0  0  0  0  0  0  0  0  0
    7.7408   -6.1677    2.8242 C   0  0  0  0  0  0  0  0  0  0  0  0
    6.8118   -8.3086    1.8891 C   0  0  0  0  0  0  0  0  0  0  0  0
    5.2651   -6.7934    2.7942 O   0  0  0  0  0  0  0  0  0  0  0  0
    4.6631   -5.8189    3.6079 C   0  0  1  0  0  0  0  0  0  0  0  0
    5.3510   -4.7127    3.1175 O   0  0  0  0  0  0  0  0  0  0  0  0
    4.8461   -6.1259    5.2336 C   0  0  2  0  0  0  0  0  0  0  0  0
    3.5665   -5.8106    6.2683 C   0  0  1  0  0  0  0  0  0  0  0  0
    4.0071   -5.1353    7.6593 C   0  0  0  0  0  0  0  0  0  0  0  0
    2.8535   -4.6691    5.4870 C   0  0  2  0  0  0  0  0  0  0  0  0
    2.3049   -5.2181    4.3017 O   0  0  0  0  0  0  0  0  0  0  0  0
    2.5605   -7.0012    6.8963 C   0  0  1  0  0  0  0  0  0  0  0  0
    3.1453   -7.9701    7.9345 C   0  0  0  0  0  0  0  0  0  0  0  0
    2.4165   -6.8234    8.3232 O   0  0  0  0  0  0  0  0  0  0  0  0
    1.1261   -7.3137    6.3631 C   0  0  1  0  0  0  0  0  0  0  0  0
    0.3449   -6.1956    5.9646 O   0  0  0  0  0  0  0  0  0  0  0  0
    0.8056   -8.5764    5.4535 C   0  0  2  0  0  0  0  0  0  0  0  0
    0.5121   -9.9392    6.1142 C   0  0  0  0  0  0  0  0  0  0  0  0
    0.8392  -10.9949    5.0314 C   0  0  0  0  0  0  0  0  0  0  0  0
    1.2623  -10.2389    3.7620 C   0  0  1  0  0  0  0  0  0  0  0  0
    0.1357  -10.0916    2.9233 O   0  0  0  0  0  0  0  0  0  0  0  0
    7.2441   -6.1493    6.7656 H   0  0  0  0  0  0  0  0  0  0  0  0
    7.4917   -4.3312    6.7881 H   0  0  0  0  0  0  0  0  0  0  0  0
    5.6364   -2.9148    6.2840 H   0  0  0  0  0  0  0  0  0  0  0  0
    5.8313   -3.0723    4.6473 H   0  0  0  0  0  0  0  0  0  0  0  0
    2.1944   -1.3652    7.6301 H   0  0  0  0  0  0  0  0  0  0  0  0
    1.4965   -2.9129    7.3696 H   0  0  0  0  0  0  0  0  0  0  0  0
    1.5428   -1.6230    6.0759 H   0  0  0  0  0  0  0  0  0  0  0  0
    2.1018   -2.3376    4.1819 H   0  0  0  0  0  0  0  0  0  0  0  0
    3.9181   -0.2141    6.0610 H   0  0  0  0  0  0  0  0  0  0  0  0
    2.3090   -0.0063    5.3927 H   0  0  0  0  0  0  0  0  0  0  0  0
    3.7083    1.0568    4.9376 H   0  0  0  0  0  0  0  0  0  0  0  0
    5.8219   -1.0958    4.5752 H   0  0  0  0  0  0  0  0  0  0  0  0
    5.5002    0.2851    3.5279 H   0  0  0  0  0  0  0  0  0  0  0  0
    5.5798   -1.3121    2.8484 H   0  0  0  0  0  0  0  0  0  0  0  0
    2.1842   -0.2023    3.0547 H   0  0  0  0  0  0  0  0  0  0  0  0
    2.5854   -2.4282    1.9711 H   0  0  0  0  0  0  0  0  0  0  0  0
    4.2252   -2.8308    2.1703 H   0  0  0  0  0  0  0  0  0  0  0  0
    1.7318   -4.4779    2.1152 H   0  0  0  0  0  0  0  0  0  0  0  0
    3.2974   -4.4229   -1.1107 H   0  0  0  0  0  0  0  0  0  0  0  0
    3.2966   -3.0140   -0.0862 H   0  0  0  0  0  0  0  0  0  0  0  0
    1.8204   -3.9749   -0.2654 H   0  0  0  0  0  0  0  0  0  0  0  0
    3.3160   -7.6023    2.1949 H   0  0  0  0  0  0  0  0  0  0  0  0
    0.8981   -6.9893    3.7561 H   0  0  0  0  0  0  0  0  0  0  0  0
    3.0354   -9.3128    6.0379 H   0  0  0  0  0  0  0  0  0  0  0  0
    4.3585   -8.5731    3.5343 H   0  0  0  0  0  0  0  0  0  0  0  0
    5.3692   -8.0163    6.4000 H   0  0  0  0  0  0  0  0  0  0  0  0
    7.6278   -5.6044    1.9015 H   0  0  0  0  0  0  0  0  0  0  0  0
    8.7269   -6.6311    2.8003 H   0  0  0  0  0  0  0  0  0  0  0  0
    7.7562   -5.4574    3.6506 H   0  0  0  0  0  0  0  0  0  0  0  0
    6.6818   -7.8960    0.8888 H   0  0  0  0  0  0  0  0  0  0  0  0
    6.0986   -9.1259    2.0043 H   0  0  0  0  0  0  0  0  0  0  0  0
    7.8149   -8.7311    1.9416 H   0  0  0  0  0  0  0  0  0  0  0  0
    6.2682   -4.8274    3.3169 H   0  0  0  0  0  0  0  0  0  0  0  0
    3.1396   -4.7756    8.2100 H   0  0  0  0  0  0  0  0  0  0  0  0
    4.6177   -4.2484    7.6710 H   0  0  0  0  0  0  0  0  0  0  0  0
    4.5798   -5.8150    8.2843 H   0  0  0  0  0  0  0  0  0  0  0  0
    1.9694   -4.4205    6.0471 H   0  0  0  0  0  0  0  0  0  0  0  0
    2.6518   -8.9230    8.1341 H   0  0  0  0  0  0  0  0  0  0  0  0
    4.1858   -7.9302    8.2177 H   0  0  0  0  0  0  0  0  0  0  0  0
    0.5981   -7.5803    7.2733 H   0  0  0  0  0  0  0  0  0  0  0  0
    0.7882   -5.7719    5.2361 H   0  0  0  0  0  0  0  0  0  0  0  0
   -0.1629   -8.3451    4.9989 H   0  0  0  0  0  0  0  0  0  0  0  0
    1.1228  -10.1145    6.9950 H   0  0  0  0  0  0  0  0  0  0  0  0
   -0.5327   -9.9955    6.4334 H   0  0  0  0  0  0  0  0  0  0  0  0
    1.6772  -11.5993    5.3676 H   0  0  0  0  0  0  0  0  0  0  0  0
    0.0252  -11.6937    4.8451 H   0  0  0  0  0  0  0  0  0  0  0  0
    2.0386  -10.7694    3.2173 H   0  0  0  0  0  0  0  0  0  0  0  0
   -0.6389  -10.0502    3.4737 H   0  0  0  0  0  0  0  0  0  0  0  0
  1  2  2  0
  1 46  1  0
  1 47  1  0
 31  2  1  1
  2  3  1  0
  3  4  1  0
  3 48  1  0
  3 49  1  0
  4 34  1  0
  4  5  1  1
  4  7  1  0
  5  6  1  0
  6 50  1  0
  6 51  1  0
  6 52  1  0
  7  8  1  0
  7 12  1  0
  7 53  1  1
  8  9  1  0
  8 10  1  0
  8 11  1  0
  9 54  1  0
  9 55  1  0
  9 56  1  0
 10 57  1  0
 10 58  1  0
 10 59  1  0
 11 60  1  0
 12 13  1  0
 12 61  1  0
 12 62  1  0
 13 14  1  0
 13 16  1  0
 13 63  1  6
 14 15  1  0
 15 64  1  0
 15 65  1  0
 15 66  1  0
 16 29  1  0
 16 35  1  1
 16 17  1  0
 17 18  2  3
 17 67  1  0
 19 18  1  6
 18 68  1  0
 19 41  1  0
 19 44  1  0
 19 20  1  0
 20 21  2  3
 20 69  1  0
 21 22  1  0
 21 70  1  0
 22 31  1  0
 22 23  1  0
 22 71  1  1
 23 24  2  0
 23 25  1  6
 25 26  1  0
 25 27  1  0
 25 28  1  0
 26 72  1  0
 26 73  1  0
 26 74  1  0
 27 75  1  0
 27 76  1  0
 27 77  1  0
 28 29  1  0
 29 30  1  1
 29 31  1  0
 30 78  1  0
 31 32  1  0
 32 33  1  1
 32 34  1  0
 32 36  1  0
 33 79  1  0
 33 80  1  0
 33 81  1  0
 34 35  1  0
 34 82  1  1
 36 38  1  1
 36 37  1  0
 36 39  1  0
 37 38  1  0
 37 83  1  0
 37 84  1  0
 39 40  1  0
 39 41  1  0
 39 85  1  1
 40 86  1  0
 41 42  1  0
 41 87  1  6
 42 43  1  0
 42 88  1  0
 42 89  1  0
 43 44  1  0
 43 90  1  0
 43 91  1  0
 44 45  1  0
 44 92  1  6
 45 93  1  0
M  END
>  <i_m_ct_stereo_status>  (63) 
1

>  <s_m_source_file>  (63) 
/var/tmp/pbs.5075288.sched01/tmp228mwnki/64h1usuhcs.sdf

>  <i_m_source_file_index>  (63) 
33

>  <i_lp_mmshare_version>  (63) 
48012

>  <i_f3d_flags>  (63) 
0

>  <s_epik_input>  (63) 
W0NIM11PW0NAQEhdMVtDSDJdW0NASF0oQyhbQ0gzXSkoW0NIM10pW09IXSlbQ0BdKE9bQ0gzXSkoW0NIMl1DMj1bQ0gyXSlbQ0BASF0oTzMpW0NAQF00KFtDSDNdKUM1KFtDSDJdTzUpW0NAQEhdKFtPSF0pW0NASF0oW0NIMl1bQ0gyXVtDQEhdNltPSF0pW0NAQF02KC9bQ0hdPVtDSF1cNykvW0NIXT1bQ0hdL1tDQEBIXShbUytdKFtPLV0pQyhPOCkoW0NIM10pW0NIM10pW0NAXTI0W0NAQF04KFtDQF0xMzcpW09IXQ==

>  <s_epik_cmdline>  (63) 
J2VwaWtfcHl0aG9uJywgJy1waHQnLCAnMi4wJywgJy1waCcsICc3LjAnLCAnLXRuJywgJzgnLCAnLW1hJywgJzIwMCcsICctaW1hZScsICc8aW5maWxlLm1hZT4nLCAnLW9tYWUnLCAnPG91dGZpbGUubWFlPic=

>  <r_lp_tautomer_probability>  (63) 
1

>  <r_epik_Ionization_Penalty>  (63) 
6.47439e-06

>  <r_epik_Ionization_Penalty_Charging>  (63) 
0

>  <r_epik_Ionization_Penalty_Neutral>  (63) 
6.47439e-06

>  <r_epik_State_Penalty>  (63) 
-0

>  <r_epik_Charging_Adjusted_Penalty>  (63) 
0

>  <i_epik_Tot_Q>  (63) 
0

>  <i_epik_Tot_abs_Q>  (63) 
2

>  <s_lp_Force_Field>  (63) 
OPLS3e

>  <r_lp_Energy>  (63) 
279.58

>  <b_lp_Chiralities_Consistent>  (63) 
1

>  <s_lp_Variant>  (63) 
41:0-6

>  <s_i_glide_gridfile>  (63) 
pfpi4k_grid

>  <i_i_glide_lignum>  (63) 
33

>  <i_i_glide_rotatable_bonds>  (63) 
7

>  <r_i_docking_score>  (63) 
-2.1138

>  <r_i_glide_ligand_efficiency>  (63) 
-0.0469734

>  <r_i_glide_ligand_efficiency_sa>  (63) 
-0.16708

>  <r_i_glide_ligand_efficiency_ln>  (63) 
-0.439766

>  <r_i_glide_gscore>  (63) 
-2.1138

>  <r_i_glide_lipo>  (63) 
-0.283321

>  <r_i_glide_hbond>  (63) 
0

>  <r_i_glide_metal>  (63) 
-0

>  <r_i_glide_rewards>  (63) 
-0.5

>  <r_i_glide_evdw>  (63) 
-23.7832

>  <r_i_glide_ecoul>  (63) 
-1.27835

>  <r_i_glide_erotb>  (63) 
0.0504293

>  <r_i_glide_esite>  (63) 
0

>  <r_i_glide_emodel>  (63) 
-33.3751

>  <r_i_glide_energy>  (63) 
-25.0616

>  <r_i_glide_einternal>  (63) 
1.12501

>  <r_i_glide_intrahb_reward>  (63) 
-0.5

>  <i_i_glide_confnum>  (63) 
1

>  <i_i_glide_posenum>  (63) 
35

>  <r_i_glide_eff_state_penalty>  (63) 
0

>  <ligand_id>  (63) 
41

>  <original_smiles>  (63) 
C=C1CC2(OC)C(C(C)(C)O)CC(OC)C34C=CC56C=CC7[S+]([O-])C(C)(C)OC3(O)C17C(C)(C2O4)C1(CO1)C(O)C5CCC6O

>  <smiles>  (63) 
[H]OC1([H])C([H])([H])C([H])([H])C2([H])C([H])(O[H])C3(OC3([H])[H])C3(C([H])([H])[H])C4([H])OC56C([H])=C([H])C12C([H])=C([H])C1([H])S(=O)C(C([H])([H])[H])(C([H])([H])[H])OC5(O[H])C13C(=C([H])[H])C([H])([H])C4(OC([H])([H])[H])C([H])(C(O[H])(C([H])([H])[H])C([H])([H])[H])C([H])([H])C6([H])OC([H])([H])[H]

$$$$
41:5:2
     RDKit          3D

 93100  0  0  1  0  0  0  0  0999 V2000
    2.4364   -0.0720    9.0422 C   0  0  0  0  0  0  0  0  0  0  0  0
    2.2030    0.2716    7.7756 C   0  0  0  0  0  0  0  0  0  0  0  0
    0.9234    1.1326    7.4276 C   0  0  0  0  0  0  0  0  0  0  0  0
    0.2262    0.9011    5.9896 C   0  0  1  0  0  0  0  0  0  0  0  0
   -1.0520    0.3420    6.3933 O   0  0  0  0  0  0  0  0  0  0  0  0
   -2.0151   -0.1796    5.4676 C   0  0  0  0  0  0  0  0  0  0  0  0
   -0.1304    2.2317    5.1363 C   0  0  1  0  0  0  0  0  0  0  0  0
   -1.1095    3.3020    5.8305 C   0  0  0  0  0  0  0  0  0  0  0  0
   -2.5436    2.8237    6.0941 C   0  0  0  0  0  0  0  0  0  0  0  0
   -0.5974    3.9550    7.1263 C   0  0  0  0  0  0  0  0  0  0  0  0
   -1.3396    4.3769    4.9164 O   0  0  0  0  0  0  0  0  0  0  0  0
    1.0351    3.0419    4.4430 C   0  0  0  0  0  0  0  0  0  0  0  0
    2.2368    2.4103    3.6664 C   0  0  1  0  0  0  0  0  0  0  0  0
    3.2646    3.3896    3.5379 O   0  0  0  0  0  0  0  0  0  0  0  0
    2.9537    4.4969    2.6954 C   0  0  0  0  0  0  0  0  0  0  0  0
    2.8392    1.0760    4.2014 C   0  0  1  0  0  0  0  0  0  0  0  0
    3.9631    0.5338    3.2984 C   0  0  0  0  0  0  0  0  0  0  0  0
    3.8573   -0.6193    2.6227 C   0  0  0  0  0  0  0  0  0  0  0  0
    4.4936   -1.9903    2.9744 C   0  0  1  0  0  0  0  0  0  0  0  0
    4.8415   -2.2531    4.4545 C   0  0  0  0  0  0  0  0  0  0  0  0
    5.0311   -1.3090    5.3671 C   0  0  0  0  0  0  0  0  0  0  0  0
    4.3467   -1.1210    6.7324 C   0  0  1  0  0  0  0  0  0  0  0  0
    5.6639   -0.2706    7.7403 S   0  0  0  0  0  0  0  0  0  0  0  0
    5.3165   -0.1366    9.2195 O   0  0  0  0  0  0  0  0  0  0  0  0
    5.5637    1.3781    6.9117 C   0  0  0  0  0  0  0  0  0  0  0  0
    5.1755    2.4103    8.0000 C   0  0  0  0  0  0  0  0  0  0  0  0
    6.9933    1.6669    6.4249 C   0  0  0  0  0  0  0  0  0  0  0  0
    4.7699    1.3698    5.7124 O   0  0  0  0  0  0  0  0  0  0  0  0
    3.3861    1.1089    5.6959 C   0  0  1  0  0  0  0  0  0  0  0  0
    2.9605    2.3162    6.2721 O   0  0  0  0  0  0  0  0  0  0  0  0
    2.9731   -0.2763    6.5381 C   0  0  2  0  0  0  0  0  0  0  0  0
    1.7766   -1.2737    5.9074 C   0  0  1  0  0  0  0  0  0  0  0  0
    0.7699   -1.8401    7.0363 C   0  0  0  0  0  0  0  0  0  0  0  0
    0.9384   -0.2364    5.1324 C   0  0  2  0  0  0  0  0  0  0  0  0
    1.7049    0.2246    4.0343 O   0  0  0  0  0  0  0  0  0  0  0  0
    2.0829   -2.6944    5.1407 C   0  0  1  0  0  0  0  0  0  0  0  0
    2.6215   -3.8977    5.9459 C   0  0  0  0  0  0  0  0  0  0  0  0
    1.2522   -3.7685    5.6541 O   0  0  0  0  0  0  0  0  0  0  0  0
    2.0454   -2.8934    3.5634 C   0  0  1  0  0  0  0  0  0  0  0  0
    1.0227   -2.1911    2.8865 O   0  0  0  0  0  0  0  0  0  0  0  0
    3.3560   -2.9919    2.6837 C   0  0  2  0  0  0  0  0  0  0  0  0
    4.0557   -4.3564    2.4974 C   0  0  0  0  0  0  0  0  0  0  0  0
    5.5159   -4.0198    2.1250 C   0  0  0  0  0  0  0  0  0  0  0  0
    5.6298   -2.4832    2.0615 C   0  0  1  0  0  0  0  0  0  0  0  0
    5.4762   -2.0578    0.7184 O   0  0  0  0  0  0  0  0  0  0  0  0
    3.2077   -0.7763    9.3288 H   0  0  0  0  0  0  0  0  0  0  0  0
    1.8118    0.2978    9.8450 H   0  0  0  0  0  0  0  0  0  0  0  0
    0.1985    0.9410    8.2154 H   0  0  0  0  0  0  0  0  0  0  0  0
    1.1338    2.1758    7.6534 H   0  0  0  0  0  0  0  0  0  0  0  0
   -2.9534   -0.2664    6.0202 H   0  0  0  0  0  0  0  0  0  0  0  0
   -1.7935   -1.1855    5.1079 H   0  0  0  0  0  0  0  0  0  0  0  0
   -2.2130    0.4829    4.6307 H   0  0  0  0  0  0  0  0  0  0  0  0
   -0.6632    1.8680    4.2581 H   0  0  0  0  0  0  0  0  0  0  0  0
   -2.6022    2.0900    6.9016 H   0  0  0  0  0  0  0  0  0  0  0  0
   -2.9174    2.4003    5.1635 H   0  0  0  0  0  0  0  0  0  0  0  0
   -3.1956    3.6423    6.4153 H   0  0  0  0  0  0  0  0  0  0  0  0
   -0.5440    3.2322    7.9444 H   0  0  0  0  0  0  0  0  0  0  0  0
   -1.2650    4.7645    7.4365 H   0  0  0  0  0  0  0  0  0  0  0  0
    0.3919    4.3917    6.9966 H   0  0  0  0  0  0  0  0  0  0  0  0
   -1.3715    4.0116    4.0463 H   0  0  0  0  0  0  0  0  0  0  0  0
    0.5844    3.6710    3.6738 H   0  0  0  0  0  0  0  0  0  0  0  0
    1.4184    3.7731    5.1509 H   0  0  0  0  0  0  0  0  0  0  0  0
    1.8774    2.1791    2.6581 H   0  0  0  0  0  0  0  0  0  0  0  0
    3.8384    5.1102    2.5387 H   0  0  0  0  0  0  0  0  0  0  0  0
    2.2073    5.1489    3.1487 H   0  0  0  0  0  0  0  0  0  0  0  0
    2.5965    4.1919    1.7085 H   0  0  0  0  0  0  0  0  0  0  0  0
    4.9513    0.8048    3.6106 H   0  0  0  0  0  0  0  0  0  0  0  0
    2.8601   -0.7547    2.2510 H   0  0  0  0  0  0  0  0  0  0  0  0
    4.5206   -3.2085    4.7930 H   0  0  0  0  0  0  0  0  0  0  0  0
    5.5377   -0.4716    4.9601 H   0  0  0  0  0  0  0  0  0  0  0  0
    4.1800   -2.0818    7.2122 H   0  0  0  0  0  0  0  0  0  0  0  0
    5.0773    3.4099    7.5786 H   0  0  0  0  0  0  0  0  0  0  0  0
    5.9292    2.4568    8.7872 H   0  0  0  0  0  0  0  0  0  0  0  0
    4.2410    2.1492    8.4957 H   0  0  0  0  0  0  0  0  0  0  0  0
    7.0525    2.6386    5.9376 H   0  0  0  0  0  0  0  0  0  0  0  0
    7.3244    0.9156    5.7083 H   0  0  0  0  0  0  0  0  0  0  0  0
    7.7065    1.6684    7.2496 H   0  0  0  0  0  0  0  0  0  0  0  0
    3.2730    2.3446    7.1545 H   0  0  0  0  0  0  0  0  0  0  0  0
   -0.1000   -2.3114    6.5770 H   0  0  0  0  0  0  0  0  0  0  0  0
    0.2709   -1.1708    7.7274 H   0  0  0  0  0  0  0  0  0  0  0  0
    1.2512   -2.5396    7.7130 H   0  0  0  0  0  0  0  0  0  0  0  0
    0.1631   -0.7807    4.6148 H   0  0  0  0  0  0  0  0  0  0  0  0
    3.1294   -4.7309    5.4538 H   0  0  0  0  0  0  0  0  0  0  0  0
    2.8502   -3.7878    7.0000 H   0  0  0  0  0  0  0  0  0  0  0  0
    1.6582   -3.9000    3.4737 H   0  0  0  0  0  0  0  0  0  0  0  0
    1.2711   -1.2792    2.8132 H   0  0  0  0  0  0  0  0  0  0  0  0
    3.0096   -2.7928    1.6681 H   0  0  0  0  0  0  0  0  0  0  0  0
    4.0306   -4.9666    3.4003 H   0  0  0  0  0  0  0  0  0  0  0  0
    3.5736   -4.9303    1.7037 H   0  0  0  0  0  0  0  0  0  0  0  0
    6.1725   -4.3943    2.9104 H   0  0  0  0  0  0  0  0  0  0  0  0
    5.8397   -4.4927    1.1989 H   0  0  0  0  0  0  0  0  0  0  0  0
    6.5964   -2.1248    2.4096 H   0  0  0  0  0  0  0  0  0  0  0  0
    4.6065   -2.2783    0.4316 H   0  0  0  0  0  0  0  0  0  0  0  0
  1  2  2  0
  1 46  1  0
  1 47  1  0
 31  2  1  1
  2  3  1  0
  3  4  1  0
  3 48  1  0
  3 49  1  0
  4 34  1  0
  4  5  1  1
  4  7  1  0
  5  6  1  0
  6 50  1  0
  6 51  1  0
  6 52  1  0
  7  8  1  0
  7 12  1  0
  7 53  1  6
  8  9  1  0
  8 10  1  0
  8 11  1  0
  9 54  1  0
  9 55  1  0
  9 56  1  0
 10 57  1  0
 10 58  1  0
 10 59  1  0
 11 60  1  0
 12 13  1  0
 12 61  1  0
 12 62  1  0
 13 14  1  0
 13 16  1  0
 13 63  1  6
 14 15  1  0
 15 64  1  0
 15 65  1  0
 15 66  1  0
 16 29  1  0
 16 35  1  1
 16 17  1  0
 17 18  2  3
 17 67  1  0
 19 18  1  1
 18 68  1  0
 19 41  1  0
 19 44  1  0
 19 20  1  0
 20 21  2  3
 20 69  1  0
 21 22  1  0
 21 70  1  0
 22 31  1  0
 22 23  1  0
 22 71  1  1
 23 24  2  0
 23 25  1  6
 25 26  1  0
 25 27  1  0
 25 28  1  0
 26 72  1  0
 26 73  1  0
 26 74  1  0
 27 75  1  0
 27 76  1  0
 27 77  1  0
 28 29  1  0
 29 30  1  1
 29 31  1  0
 30 78  1  0
 31 32  1  0
 32 33  1  1
 32 34  1  0
 32 36  1  0
 33 79  1  0
 33 80  1  0
 33 81  1  0
 34 35  1  0
 34 82  1  6
 36 38  1  1
 36 37  1  0
 36 39  1  0
 37 38  1  0
 37 83  1  0
 37 84  1  0
 39 40  1  0
 39 41  1  0
 39 85  1  1
 40 86  1  0
 41 42  1  0
 41 87  1  6
 42 43  1  0
 42 88  1  0
 42 89  1  0
 43 44  1  0
 43 90  1  0
 43 91  1  0
 44 45  1  0
 44 92  1  1
 45 93  1  0
M  END
>  <i_m_ct_stereo_status>  (64) 
1

>  <s_m_source_file>  (64) 
/var/tmp/pbs.5075288.sched01/tmp228mwnki/64h1usuhcs.sdf

>  <i_m_source_file_index>  (64) 
33

>  <i_lp_mmshare_version>  (64) 
48012

>  <i_f3d_flags>  (64) 
0

>  <s_epik_input>  (64) 
W0NIM11PW0NAQEhdMVtDSDJdW0NASF0oQyhbQ0gzXSkoW0NIM10pW09IXSlbQ0BdKE9bQ0gzXSkoW0NIMl1DMj1bQ0gyXSlbQ0BASF0oTzMpW0NAQF00KFtDSDNdKUM1KFtDSDJdTzUpW0NAQEhdKFtPSF0pW0NASF0oW0NIMl1bQ0gyXVtDQEhdNltPSF0pW0NAQF02KC9bQ0hdPVtDSF1cNykvW0NIXT1bQ0hdL1tDQEBIXShbUytdKFtPLV0pQyhPOCkoW0NIM10pW0NIM10pW0NAXTI0W0NAQF04KFtDQF0xMzcpW09IXQ==

>  <s_epik_cmdline>  (64) 
J2VwaWtfcHl0aG9uJywgJy1waHQnLCAnMi4wJywgJy1waCcsICc3LjAnLCAnLXRuJywgJzgnLCAnLW1hJywgJzIwMCcsICctaW1hZScsICc8aW5maWxlLm1hZT4nLCAnLW9tYWUnLCAnPG91dGZpbGUubWFlPic=

>  <r_lp_tautomer_probability>  (64) 
1

>  <r_epik_Ionization_Penalty>  (64) 
6.47439e-06

>  <r_epik_Ionization_Penalty_Charging>  (64) 
0

>  <r_epik_Ionization_Penalty_Neutral>  (64) 
6.47439e-06

>  <r_epik_State_Penalty>  (64) 
-0

>  <r_epik_Charging_Adjusted_Penalty>  (64) 
0

>  <i_epik_Tot_Q>  (64) 
0

>  <i_epik_Tot_abs_Q>  (64) 
2

>  <s_lp_Force_Field>  (64) 
OPLS3e

>  <r_lp_Energy>  (64) 
279.58

>  <b_lp_Chiralities_Consistent>  (64) 
1

>  <s_lp_Variant>  (64) 
41:0-6

>  <s_i_glide_gridfile>  (64) 
pfpi4k_grid

>  <i_i_glide_lignum>  (64) 
33

>  <i_i_glide_rotatable_bonds>  (64) 
7

>  <r_i_docking_score>  (64) 
-2.08451

>  <r_i_glide_ligand_efficiency>  (64) 
-0.0463225

>  <r_i_glide_ligand_efficiency_sa>  (64) 
-0.164764

>  <r_i_glide_ligand_efficiency_ln>  (64) 
-0.433672

>  <r_i_glide_gscore>  (64) 
-2.08451

>  <r_i_glide_lipo>  (64) 
-0.512502

>  <r_i_glide_hbond>  (64) 
-0.0497081

>  <r_i_glide_metal>  (64) 
-0

>  <r_i_glide_rewards>  (64) 
-0.501822

>  <r_i_glide_evdw>  (64) 
-22.1114

>  <r_i_glide_ecoul>  (64) 
0.231071

>  <r_i_glide_erotb>  (64) 
0.0504293

>  <r_i_glide_esite>  (64) 
0

>  <r_i_glide_emodel>  (64) 
-30.1595

>  <r_i_glide_energy>  (64) 
-21.8804

>  <r_i_glide_einternal>  (64) 
1.47236

>  <r_i_glide_intrahb_reward>  (64) 
-0.5

>  <i_i_glide_confnum>  (64) 
3

>  <i_i_glide_posenum>  (64) 
29

>  <r_i_glide_eff_state_penalty>  (64) 
0

>  <ligand_id>  (64) 
41

>  <original_smiles>  (64) 
C=C1CC2(OC)C(C(C)(C)O)CC(OC)C34C=CC56C=CC7[S+]([O-])C(C)(C)OC3(O)C17C(C)(C2O4)C1(CO1)C(O)C5CCC6O

>  <smiles>  (64) 
[H]OC1([H])C([H])([H])C([H])([H])C2([H])C([H])(O[H])C3(OC3([H])[H])C3(C([H])([H])[H])C4([H])OC56C([H])=C([H])C12C([H])=C([H])C1([H])S(=O)C(C([H])([H])[H])(C([H])([H])[H])OC5(O[H])C13C(=C([H])[H])C([H])([H])C4(OC([H])([H])[H])C([H])(C(O[H])(C([H])([H])[H])C([H])([H])[H])C([H])([H])C6([H])OC([H])([H])[H]

$$$$
41:6:0
     RDKit          3D

 93100  0  0  1  0  0  0  0  0999 V2000
    2.9669   -4.6782    9.2104 C   0  0  0  0  0  0  0  0  0  0  0  0
    2.5337   -4.7483    7.9350 C   0  0  0  0  0  0  0  0  0  0  0  0
    1.5470   -3.6576    7.4238 C   0  0  0  0  0  0  0  0  0  0  0  0
    0.3756   -4.1010    6.4417 C   0  0  1  0  0  0  0  0  0  0  0  0
   -0.8136   -3.9197    7.2543 O   0  0  0  0  0  0  0  0  0  0  0  0
   -1.9924   -4.7430    7.1217 C   0  0  0  0  0  0  0  0  0  0  0  0
    0.1789   -3.0705    5.2441 C   0  0  1  0  0  0  0  0  0  0  0  0
   -0.4948   -1.6605    5.5976 C   0  0  0  0  0  0  0  0  0  0  0  0
    0.0006   -0.9695    6.8849 C   0  0  0  0  0  0  0  0  0  0  0  0
   -0.4352   -0.5837    4.4820 C   0  0  0  0  0  0  0  0  0  0  0  0
   -1.8819   -1.8580    5.7381 O   0  0  0  0  0  0  0  0  0  0  0  0
    1.4760   -2.8170    4.4157 C   0  0  0  0  0  0  0  0  0  0  0  0
    2.1757   -3.9578    3.6476 C   0  0  1  0  0  0  0  0  0  0  0  0
    3.3675   -3.4229    3.0511 O   0  0  0  0  0  0  0  0  0  0  0  0
    3.1829   -2.6502    1.8670 C   0  0  0  0  0  0  0  0  0  0  0  0
    2.4571   -5.3165    4.3623 C   0  0  1  0  0  0  0  0  0  0  0  0
    3.1337   -6.2006    3.2997 C   0  0  0  0  0  0  0  0  0  0  0  0
    3.4543   -7.5053    3.3079 C   0  0  0  0  0  0  0  0  0  0  0  0
    2.8829   -8.6948    4.0808 C   0  0  1  0  0  0  0  0  0  0  0  0
    3.5754   -8.9886    5.4492 C   0  0  0  0  0  0  0  0  0  0  0  0
    3.9233   -8.3996    6.6319 C   0  0  0  0  0  0  0  0  0  0  0  0
    3.7818   -7.0728    7.4292 C   0  0  1  0  0  0  0  0  0  0  0  0
    5.5310   -6.4994    7.7617 S   0  0  0  0  0  0  0  0  0  0  0  0
    5.5938   -5.2701    8.6707 O   0  0  0  0  0  0  0  0  0  0  0  0
    5.8102   -5.9271    6.0322 C   0  0  0  0  0  0  0  0  0  0  0  0
    6.5523   -4.5856    6.1084 C   0  0  0  0  0  0  0  0  0  0  0  0
    6.7314   -6.9657    5.3807 C   0  0  0  0  0  0  0  0  0  0  0  0
    4.6081   -5.9349    5.2515 O   0  0  0  0  0  0  0  0  0  0  0  0
    3.4151   -5.2685    5.6245 C   0  0  1  0  0  0  0  0  0  0  0  0
    3.8070   -3.9425    5.8165 O   0  0  0  0  0  0  0  0  0  0  0  0
    2.7728   -5.9435    6.9589 C   0  0  2  0  0  0  0  0  0  0  0  0
    1.2482   -6.5753    6.9541 C   0  0  1  0  0  0  0  0  0  0  0  0
    0.5452   -6.4480    8.3869 C   0  0  0  0  0  0  0  0  0  0  0  0
    0.5523   -5.6003    5.9380 C   0  0  2  0  0  0  0  0  0  0  0  0
    1.1334   -5.7732    4.6448 O   0  0  0  0  0  0  0  0  0  0  0  0
    0.9797   -8.1819    6.6703 C   0  0  1  0  0  0  0  0  0  0  0  0
    1.4200   -9.2277    7.6971 C   0  0  0  0  0  0  0  0  0  0  0  0
    0.0640   -8.7389    7.6333 O   0  0  0  0  0  0  0  0  0  0  0  0
    0.4863   -8.6768    5.3211 C   0  0  1  0  0  0  0  0  0  0  0  0
   -0.8301   -8.2510    4.9681 O   0  0  0  0  0  0  0  0  0  0  0  0
    1.3141   -8.6460    4.0365 C   0  0  2  0  0  0  0  0  0  0  0  0
    0.8462   -9.8200    3.1473 C   0  0  0  0  0  0  0  0  0  0  0  0
    1.9361  -10.8527    3.2842 C   0  0  0  0  0  0  0  0  0  0  0  0
    3.1801   -9.9856    3.1990 C   0  0  1  0  0  0  0  0  0  0  0  0
    3.3775   -9.7184    1.8157 O   0  0  0  0  0  0  0  0  0  0  0  0
    3.5308   -5.4694    9.6686 H   0  0  0  0  0  0  0  0  0  0  0  0
    2.6867   -3.8531    9.8467 H   0  0  0  0  0  0  0  0  0  0  0  0
    1.1049   -3.2212    8.3232 H   0  0  0  0  0  0  0  0  0  0  0  0
    2.1258   -2.8181    7.0423 H   0  0  0  0  0  0  0  0  0  0  0  0
   -2.8775   -4.2153    7.5696 H   0  0  0  0  0  0  0  0  0  0  0  0
   -1.7752   -5.6881    7.6258 H   0  0  0  0  0  0  0  0  0  0  0  0
   -2.2916   -4.9612    6.1097 H   0  0  0  0  0  0  0  0  0  0  0  0
   -0.5222   -3.5435    4.5456 H   0  0  0  0  0  0  0  0  0  0  0  0
    1.0795   -0.8198    6.8669 H   0  0  0  0  0  0  0  0  0  0  0  0
   -0.2483   -1.5327    7.7804 H   0  0  0  0  0  0  0  0  0  0  0  0
   -0.4428    0.0226    7.0030 H   0  0  0  0  0  0  0  0  0  0  0  0
    0.5668   -0.1685    4.3781 H   0  0  0  0  0  0  0  0  0  0  0  0
   -1.1086    0.2607    4.6707 H   0  0  0  0  0  0  0  0  0  0  0  0
   -0.7097   -0.9934    3.5182 H   0  0  0  0  0  0  0  0  0  0  0  0
   -2.2637   -1.8005    4.8677 H   0  0  0  0  0  0  0  0  0  0  0  0
    1.2102   -2.1661    3.5936 H   0  0  0  0  0  0  0  0  0  0  0  0
    2.1836   -2.2279    4.9956 H   0  0  0  0  0  0  0  0  0  0  0  0
    1.4999   -4.2180    2.8360 H   0  0  0  0  0  0  0  0  0  0  0  0
    4.1572   -2.3326    1.5090 H   0  0  0  0  0  0  0  0  0  0  0  0
    2.6045   -1.7407    2.0243 H   0  0  0  0  0  0  0  0  0  0  0  0
    2.7072   -3.2285    1.0738 H   0  0  0  0  0  0  0  0  0  0  0  0
    3.6677   -5.6436    2.5528 H   0  0  0  0  0  0  0  0  0  0  0  0
    4.1486   -7.7470    2.5198 H   0  0  0  0  0  0  0  0  0  0  0  0
    3.9203  -10.0108    5.4739 H   0  0  0  0  0  0  0  0  0  0  0  0
    4.4561   -9.1009    7.2535 H   0  0  0  0  0  0  0  0  0  0  0  0
    3.4581   -7.3826    8.4198 H   0  0  0  0  0  0  0  0  0  0  0  0
    6.6092   -4.1410    5.1200 H   0  0  0  0  0  0  0  0  0  0  0  0
    7.5649   -4.7195    6.4871 H   0  0  0  0  0  0  0  0  0  0  0  0
    6.0798   -3.8677    6.7710 H   0  0  0  0  0  0  0  0  0  0  0  0
    6.9795   -6.6811    4.3571 H   0  0  0  0  0  0  0  0  0  0  0  0
    6.2765   -7.9501    5.3397 H   0  0  0  0  0  0  0  0  0  0  0  0
    7.6674   -7.0670    5.9318 H   0  0  0  0  0  0  0  0  0  0  0  0
    4.3734   -3.9152    6.5843 H   0  0  0  0  0  0  0  0  0  0  0  0
   -0.4762   -6.7877    8.4273 H   0  0  0  0  0  0  0  0  0  0  0  0
    0.3903   -5.4439    8.7548 H   0  0  0  0  0  0  0  0  0  0  0  0
    1.1629   -6.9161    9.1737 H   0  0  0  0  0  0  0  0  0  0  0  0
   -0.4197   -6.0040    5.7225 H   0  0  0  0  0  0  0  0  0  0  0  0
    1.6111  -10.2498    7.3576 H   0  0  0  0  0  0  0  0  0  0  0  0
    1.8761   -8.9801    8.6530 H   0  0  0  0  0  0  0  0  0  0  0  0
    0.3441   -9.7389    5.5584 H   0  0  0  0  0  0  0  0  0  0  0  0
   -1.3701   -9.0421    4.8976 H   0  0  0  0  0  0  0  0  0  0  0  0
    0.9924   -7.7662    3.4784 H   0  0  0  0  0  0  0  0  0  0  0  0
   -0.1449  -10.2148    3.3825 H   0  0  0  0  0  0  0  0  0  0  0  0
    0.8069   -9.4824    2.1149 H   0  0  0  0  0  0  0  0  0  0  0  0
    1.8644  -11.3406    4.2547 H   0  0  0  0  0  0  0  0  0  0  0  0
    1.8972  -11.6268    2.5178 H   0  0  0  0  0  0  0  0  0  0  0  0
    4.0525  -10.5565    3.5207 H   0  0  0  0  0  0  0  0  0  0  0  0
    3.6207  -10.5593    1.4020 H   0  0  0  0  0  0  0  0  0  0  0  0
  1  2  2  0
  1 46  1  0
  1 47  1  0
 31  2  1  1
  2  3  1  0
  3  4  1  0
  3 48  1  0
  3 49  1  0
  4 34  1  0
  4  5  1  1
  4  7  1  0
  5  6  1  0
  6 50  1  0
  6 51  1  0
  6 52  1  0
  7  8  1  0
  7 12  1  0
  7 53  1  6
  8  9  1  0
  8 10  1  0
  8 11  1  0
  9 54  1  0
  9 55  1  0
  9 56  1  0
 10 57  1  0
 10 58  1  0
 10 59  1  0
 11 60  1  0
 12 13  1  0
 12 61  1  0
 12 62  1  0
 13 14  1  0
 13 16  1  0
 13 63  1  6
 14 15  1  0
 15 64  1  0
 15 65  1  0
 15 66  1  0
 16 29  1  0
 16 35  1  1
 16 17  1  0
 17 18  2  3
 17 67  1  0
 19 18  1  6
 18 68  1  0
 19 41  1  0
 19 44  1  0
 19 20  1  0
 20 21  2  3
 20 69  1  0
 21 22  1  0
 21 70  1  0
 22 31  1  0
 22 23  1  0
 22 71  1  1
 23 24  2  0
 23 25  1  6
 25 26  1  0
 25 27  1  0
 25 28  1  0
 26 72  1  0
 26 73  1  0
 26 74  1  0
 27 75  1  0
 27 76  1  0
 27 77  1  0
 28 29  1  0
 29 30  1  1
 29 31  1  0
 30 78  1  0
 31 32  1  0
 32 33  1  1
 32 34  1  0
 32 36  1  0
 33 79  1  0
 33 80  1  0
 33 81  1  0
 34 35  1  0
 34 82  1  6
 36 38  1  1
 36 37  1  0
 36 39  1  0
 37 38  1  0
 37 83  1  0
 37 84  1  0
 39 40  1  0
 39 41  1  0
 39 85  1  1
 40 86  1  0
 41 42  1  0
 41 87  1  6
 42 43  1  0
 42 88  1  0
 42 89  1  0
 43 44  1  0
 43 90  1  0
 43 91  1  0
 44 45  1  0
 44 92  1  1
 45 93  1  0
M  END
>  <i_m_ct_stereo_status>  (65) 
1

>  <s_m_source_file>  (65) 
/var/tmp/pbs.5075288.sched01/tmp228mwnki/64h1usuhcs.sdf

>  <i_m_source_file_index>  (65) 
34

>  <i_lp_mmshare_version>  (65) 
48012

>  <i_f3d_flags>  (65) 
0

>  <s_epik_input>  (65) 
W0NIM11PW0NAQEhdMVtDSDJdW0NASF0oQyhbQ0gzXSkoW0NIM10pW09IXSlbQ0BdKE9bQ0gzXSkoW0NIMl1DMj1bQ0gyXSlbQ0BASF0oTzMpW0NAQF00KFtDSDNdKUM1KFtDSDJdTzUpW0NAQEhdKFtPSF0pW0NASF0oW0NIMl1bQ0gyXVtDQEhdNltPSF0pW0NAQF02KC9bQ0hdPVtDSF1cNykvW0NIXT1bQ0hdL1tDQEBIXShbUytdKFtPLV0pQyhPOCkoW0NIM10pW0NIM10pW0NAXTI0W0NAQF04KFtDQF0xMzcpW09IXQ==

>  <s_epik_cmdline>  (65) 
J2VwaWtfcHl0aG9uJywgJy1waHQnLCAnMi4wJywgJy1waCcsICc3LjAnLCAnLXRuJywgJzgnLCAnLW1hJywgJzIwMCcsICctaW1hZScsICc8aW5maWxlLm1hZT4nLCAnLW9tYWUnLCAnPG91dGZpbGUubWFlPic=

>  <r_lp_tautomer_probability>  (65) 
1

>  <r_epik_Ionization_Penalty>  (65) 
6.47439e-06

>  <r_epik_Ionization_Penalty_Charging>  (65) 
0

>  <r_epik_Ionization_Penalty_Neutral>  (65) 
6.47439e-06

>  <r_epik_State_Penalty>  (65) 
-0

>  <r_epik_Charging_Adjusted_Penalty>  (65) 
0

>  <i_epik_Tot_Q>  (65) 
0

>  <i_epik_Tot_abs_Q>  (65) 
2

>  <s_lp_Force_Field>  (65) 
OPLS3e

>  <r_lp_Energy>  (65) 
218.661

>  <b_lp_Chiralities_Consistent>  (65) 
1

>  <s_lp_Variant>  (65) 
41:0-7

>  <s_i_glide_gridfile>  (65) 
pfpi4k_grid

>  <i_i_glide_lignum>  (65) 
34

>  <i_i_glide_rotatable_bonds>  (65) 
7

>  <r_i_docking_score>  (65) 
-2.76254

>  <r_i_glide_ligand_efficiency>  (65) 
-0.0613898

>  <r_i_glide_ligand_efficiency_sa>  (65) 
-0.218357

>  <r_i_glide_ligand_efficiency_ln>  (65) 
-0.574732

>  <r_i_glide_gscore>  (65) 
-2.76254

>  <r_i_glide_lipo>  (65) 
-0.200873

>  <r_i_glide_hbond>  (65) 
-0.154941

>  <r_i_glide_metal>  (65) 
-0

>  <r_i_glide_rewards>  (65) 
0

>  <r_i_glide_evdw>  (65) 
-20.2294

>  <r_i_glide_ecoul>  (65) 
-9.63791

>  <r_i_glide_erotb>  (65) 
0.0504293

>  <r_i_glide_esite>  (65) 
0

>  <r_i_glide_emodel>  (65) 
-30.1392

>  <r_i_glide_energy>  (65) 
-29.8673

>  <r_i_glide_einternal>  (65) 
6.88521

>  <r_i_glide_intrahb_reward>  (65) 
-0

>  <i_i_glide_confnum>  (65) 
4

>  <i_i_glide_posenum>  (65) 
7

>  <r_i_glide_eff_state_penalty>  (65) 
0

>  <ligand_id>  (65) 
41

>  <original_smiles>  (65) 
C=C1CC2(OC)C(C(C)(C)O)CC(OC)C34C=CC56C=CC7[S+]([O-])C(C)(C)OC3(O)C17C(C)(C2O4)C1(CO1)C(O)C5CCC6O

>  <smiles>  (65) 
[H]OC1([H])C([H])([H])C([H])([H])C2([H])C([H])(O[H])C3(OC3([H])[H])C3(C([H])([H])[H])C4([H])OC56C([H])=C([H])C12C([H])=C([H])C1([H])S(=O)C(C([H])([H])[H])(C([H])([H])[H])OC5(O[H])C13C(=C([H])[H])C([H])([H])C4(OC([H])([H])[H])C([H])(C(O[H])(C([H])([H])[H])C([H])([H])[H])C([H])([H])C6([H])OC([H])([H])[H]

$$$$
41:6:1
     RDKit          3D

 93100  0  0  1  0  0  0  0  0999 V2000
    4.5033   -3.4555    7.5082 C   0  0  0  0  0  0  0  0  0  0  0  0
    3.9811   -3.8602    6.3143 C   0  0  0  0  0  0  0  0  0  0  0  0
    3.5005   -2.7754    5.3124 C   0  0  0  0  0  0  0  0  0  0  0  0
    2.1912   -3.0711    4.4525 C   0  0  1  0  0  0  0  0  0  0  0  0
    1.2141   -2.2030    5.0461 O   0  0  0  0  0  0  0  0  0  0  0  0
   -0.1878   -2.3626    4.7932 C   0  0  0  0  0  0  0  0  0  0  0  0
    2.3238   -2.6032    2.9317 C   0  0  1  0  0  0  0  0  0  0  0  0
    2.3364   -1.0203    2.6044 C   0  0  0  0  0  0  0  0  0  0  0  0
    0.9871   -0.2602    2.7510 C   0  0  0  0  0  0  0  0  0  0  0  0
    3.3983   -0.2315    3.4009 C   0  0  0  0  0  0  0  0  0  0  0  0
    2.6505   -0.7921    1.2277 O   0  0  0  0  0  0  0  0  0  0  0  0
    3.5464   -3.2766    2.2107 C   0  0  0  0  0  0  0  0  0  0  0  0
    3.6602   -4.8161    2.0598 C   0  0  1  0  0  0  0  0  0  0  0  0
    4.9214   -5.1042    1.4389 O   0  0  0  0  0  0  0  0  0  0  0  0
    4.9664   -4.9533    0.0233 C   0  0  0  0  0  0  0  0  0  0  0  0
    3.4174   -5.7558    3.2896 C   0  0  1  0  0  0  0  0  0  0  0  0
    3.5994   -7.1864    2.7461 C   0  0  0  0  0  0  0  0  0  0  0  0
    3.3588   -8.3879    3.3109 C   0  0  0  0  0  0  0  0  0  0  0  0
    2.4210   -8.8202    4.4377 C   0  0  1  0  0  0  0  0  0  0  0  0
    3.0392   -8.7759    5.8685 C   0  0  0  0  0  0  0  0  0  0  0  0
    3.6782   -7.9397    6.7510 C   0  0  0  0  0  0  0  0  0  0  0  0
    4.1386   -6.4659    6.9244 C   0  0  1  0  0  0  0  0  0  0  0  0
    5.9973   -6.5605    7.1737 S   0  0  0  0  0  0  0  0  0  0  0  0
    6.6267   -5.2173    7.5176 O   0  0  0  0  0  0  0  0  0  0  0  0
    6.3576   -6.9208    5.4006 C   0  0  0  0  0  0  0  0  0  0  0  0
    7.5941   -6.0850    4.9996 C   0  0  0  0  0  0  0  0  0  0  0  0
    6.7265   -8.4075    5.3273 C   0  0  0  0  0  0  0  0  0  0  0  0
    5.1955   -6.7660    4.5778 O   0  0  0  0  0  0  0  0  0  0  0  0
    4.4009   -5.5952    4.5164 C   0  0  1  0  0  0  0  0  0  0  0  0
    5.3202   -4.5753    4.2139 O   0  0  0  0  0  0  0  0  0  0  0  0
    3.6502   -5.3232    5.9412 C   0  0  2  0  0  0  0  0  0  0  0  0
    1.9937   -5.2461    6.0031 C   0  0  1  0  0  0  0  0  0  0  0  0
    1.4855   -4.2074    7.1226 C   0  0  0  0  0  0  0  0  0  0  0  0
    1.6986   -4.5744    4.6131 C   0  0  2  0  0  0  0  0  0  0  0  0
    2.0552   -5.4925    3.5793 O   0  0  0  0  0  0  0  0  0  0  0  0
    1.0999   -6.5531    6.3899 C   0  0  1  0  0  0  0  0  0  0  0  0
    1.1356   -7.1790    7.7917 C   0  0  0  0  0  0  0  0  0  0  0  0
    0.1286   -6.2319    7.4078 O   0  0  0  0  0  0  0  0  0  0  0  0
    0.3271   -7.3325    5.3157 C   0  0  1  0  0  0  0  0  0  0  0  0
   -0.7079   -6.5648    4.7205 O   0  0  0  0  0  0  0  0  0  0  0  0
    1.0118   -8.1602    4.2102 C   0  0  2  0  0  0  0  0  0  0  0  0
    0.0439   -9.3000    3.8220 C   0  0  0  0  0  0  0  0  0  0  0  0
    0.6187  -10.5327    4.4811 C   0  0  0  0  0  0  0  0  0  0  0  0
    2.1006  -10.3619    4.2026 C   0  0  1  0  0  0  0  0  0  0  0  0
    2.2834  -10.8717    2.8742 O   0  0  0  0  0  0  0  0  0  0  0  0
    4.7361   -4.1473    8.2913 H   0  0  0  0  0  0  0  0  0  0  0  0
    4.6452   -2.4093    7.7148 H   0  0  0  0  0  0  0  0  0  0  0  0
    3.3350   -1.8571    5.8845 H   0  0  0  0  0  0  0  0  0  0  0  0
    4.3474   -2.4803    4.6886 H   0  0  0  0  0  0  0  0  0  0  0  0
   -0.6936   -1.4359    5.0844 H   0  0  0  0  0  0  0  0  0  0  0  0
   -0.6594   -3.1604    5.3430 H   0  0  0  0  0  0  0  0  0  0  0  0
   -0.3773   -2.5235    3.7276 H   0  0  0  0  0  0  0  0  0  0  0  0
    1.4447   -2.9986    2.4148 H   0  0  0  0  0  0  0  0  0  0  0  0
    0.6072   -0.2403    3.7795 H   0  0  0  0  0  0  0  0  0  0  0  0
    0.2503   -0.7122    2.0818 H   0  0  0  0  0  0  0  0  0  0  0  0
    1.1199    0.7815    2.3832 H   0  0  0  0  0  0  0  0  0  0  0  0
    3.1187   -0.1160    4.4567 H   0  0  0  0  0  0  0  0  0  0  0  0
    3.4906    0.7740    3.0031 H   0  0  0  0  0  0  0  0  0  0  0  0
    4.3973   -0.6690    3.3653 H   0  0  0  0  0  0  0  0  0  0  0  0
    1.8963   -0.9954    0.6843 H   0  0  0  0  0  0  0  0  0  0  0  0
    3.5379   -2.9526    1.1745 H   0  0  0  0  0  0  0  0  0  0  0  0
    4.4871   -2.8696    2.5885 H   0  0  0  0  0  0  0  0  0  0  0  0
    2.8824   -5.1017    1.3532 H   0  0  0  0  0  0  0  0  0  0  0  0
    5.9625   -5.2166   -0.3161 H   0  0  0  0  0  0  0  0  0  0  0  0
    4.7800   -3.9327   -0.3031 H   0  0  0  0  0  0  0  0  0  0  0  0
    4.2561   -5.6141   -0.4759 H   0  0  0  0  0  0  0  0  0  0  0  0
    4.2652   -7.2502    1.9042 H   0  0  0  0  0  0  0  0  0  0  0  0
    3.8393   -9.1935    2.7751 H   0  0  0  0  0  0  0  0  0  0  0  0
    2.9464   -9.7333    6.3439 H   0  0  0  0  0  0  0  0  0  0  0  0
    3.9352   -8.4787    7.6535 H   0  0  0  0  0  0  0  0  0  0  0  0
    3.7952   -6.1906    7.9245 H   0  0  0  0  0  0  0  0  0  0  0  0
    7.7693   -6.1406    3.9270 H   0  0  0  0  0  0  0  0  0  0  0  0
    8.4866   -6.4438    5.5121 H   0  0  0  0  0  0  0  0  0  0  0  0
    7.5006   -5.0391    5.2741 H   0  0  0  0  0  0  0  0  0  0  0  0
    6.9903   -8.6901    4.3094 H   0  0  0  0  0  0  0  0  0  0  0  0
    5.9049   -9.0503    5.6421 H   0  0  0  0  0  0  0  0  0  0  0  0
    7.5800   -8.6366    5.9666 H   0  0  0  0  0  0  0  0  0  0  0  0
    5.9030   -4.4790    4.9396 H   0  0  0  0  0  0  0  0  0  0  0  0
    0.4060   -4.0916    7.0629 H   0  0  0  0  0  0  0  0  0  0  0  0
    1.8338   -3.2029    7.1098 H   0  0  0  0  0  0  0  0  0  0  0  0
    1.7409   -4.5526    8.1178 H   0  0  0  0  0  0  0  0  0  0  0  0
    0.6305   -4.5770    4.4933 H   0  0  0  0  0  0  0  0  0  0  0  0
    0.8426   -8.2244    7.9333 H   0  0  0  0  0  0  0  0  0  0  0  0
    1.7766   -6.7703    8.5783 H   0  0  0  0  0  0  0  0  0  0  0  0
   -0.1933   -8.0460    5.9285 H   0  0  0  0  0  0  0  0  0  0  0  0
   -1.3420   -7.1842    4.3905 H   0  0  0  0  0  0  0  0  0  0  0  0
    1.0348   -7.5341    3.3181 H   0  0  0  0  0  0  0  0  0  0  0  0
   -0.9989   -9.1412    4.0987 H   0  0  0  0  0  0  0  0  0  0  0  0
    0.0576   -9.4325    2.7393 H   0  0  0  0  0  0  0  0  0  0  0  0
    0.4265  -10.5202    5.5502 H   0  0  0  0  0  0  0  0  0  0  0  0
    0.2212  -11.4651    4.0768 H   0  0  0  0  0  0  0  0  0  0  0  0
    2.6806  -11.0356    4.8230 H   0  0  0  0  0  0  0  0  0  0  0  0
    1.6867  -10.4287    2.2945 H   0  0  0  0  0  0  0  0  0  0  0  0
  1  2  2  0
  1 46  1  0
  1 47  1  0
 31  2  1  1
  2  3  1  0
  3  4  1  0
  3 48  1  0
  3 49  1  0
  4 34  1  0
  4  5  1  1
  4  7  1  0
  5  6  1  0
  6 50  1  0
  6 51  1  0
  6 52  1  0
  7  8  1  0
  7 12  1  0
  7 53  1  6
  8  9  1  0
  8 10  1  0
  8 11  1  0
  9 54  1  0
  9 55  1  0
  9 56  1  0
 10 57  1  0
 10 58  1  0
 10 59  1  0
 11 60  1  0
 12 13  1  0
 12 61  1  0
 12 62  1  0
 13 14  1  0
 13 16  1  0
 13 63  1  6
 14 15  1  0
 15 64  1  0
 15 65  1  0
 15 66  1  0
 16 29  1  0
 16 35  1  1
 16 17  1  0
 17 18  2  3
 17 67  1  0
 19 18  1  6
 18 68  1  0
 19 41  1  0
 19 44  1  0
 19 20  1  0
 20 21  2  3
 20 69  1  0
 21 22  1  0
 21 70  1  0
 22 31  1  0
 22 23  1  0
 22 71  1  1
 23 24  2  0
 23 25  1  6
 25 26  1  0
 25 27  1  0
 25 28  1  0
 26 72  1  0
 26 73  1  0
 26 74  1  0
 27 75  1  0
 27 76  1  0
 27 77  1  0
 28 29  1  0
 29 30  1  6
 29 31  1  0
 30 78  1  0
 31 32  1  0
 32 33  1  1
 32 34  1  0
 32 36  1  0
 33 79  1  0
 33 80  1  0
 33 81  1  0
 34 35  1  0
 34 82  1  1
 36 38  1  1
 36 37  1  0
 36 39  1  0
 37 38  1  0
 37 83  1  0
 37 84  1  0
 39 40  1  0
 39 41  1  0
 39 85  1  1
 40 86  1  0
 41 42  1  0
 41 87  1  6
 42 43  1  0
 42 88  1  0
 42 89  1  0
 43 44  1  0
 43 90  1  0
 43 91  1  0
 44 45  1  0
 44 92  1  1
 45 93  1  0
M  END
>  <i_m_ct_stereo_status>  (66) 
1

>  <s_m_source_file>  (66) 
/var/tmp/pbs.5075288.sched01/tmp228mwnki/64h1usuhcs.sdf

>  <i_m_source_file_index>  (66) 
34

>  <i_lp_mmshare_version>  (66) 
48012

>  <i_f3d_flags>  (66) 
0

>  <s_epik_input>  (66) 
W0NIM11PW0NAQEhdMVtDSDJdW0NASF0oQyhbQ0gzXSkoW0NIM10pW09IXSlbQ0BdKE9bQ0gzXSkoW0NIMl1DMj1bQ0gyXSlbQ0BASF0oTzMpW0NAQF00KFtDSDNdKUM1KFtDSDJdTzUpW0NAQEhdKFtPSF0pW0NASF0oW0NIMl1bQ0gyXVtDQEhdNltPSF0pW0NAQF02KC9bQ0hdPVtDSF1cNykvW0NIXT1bQ0hdL1tDQEBIXShbUytdKFtPLV0pQyhPOCkoW0NIM10pW0NIM10pW0NAXTI0W0NAQF04KFtDQF0xMzcpW09IXQ==

>  <s_epik_cmdline>  (66) 
J2VwaWtfcHl0aG9uJywgJy1waHQnLCAnMi4wJywgJy1waCcsICc3LjAnLCAnLXRuJywgJzgnLCAnLW1hJywgJzIwMCcsICctaW1hZScsICc8aW5maWxlLm1hZT4nLCAnLW9tYWUnLCAnPG91dGZpbGUubWFlPic=

>  <r_lp_tautomer_probability>  (66) 
1

>  <r_epik_Ionization_Penalty>  (66) 
6.47439e-06

>  <r_epik_Ionization_Penalty_Charging>  (66) 
0

>  <r_epik_Ionization_Penalty_Neutral>  (66) 
6.47439e-06

>  <r_epik_State_Penalty>  (66) 
-0

>  <r_epik_Charging_Adjusted_Penalty>  (66) 
0

>  <i_epik_Tot_Q>  (66) 
0

>  <i_epik_Tot_abs_Q>  (66) 
2

>  <s_lp_Force_Field>  (66) 
OPLS3e

>  <r_lp_Energy>  (66) 
218.661

>  <b_lp_Chiralities_Consistent>  (66) 
1

>  <s_lp_Variant>  (66) 
41:0-7

>  <s_i_glide_gridfile>  (66) 
pfpi4k_grid

>  <i_i_glide_lignum>  (66) 
34

>  <i_i_glide_rotatable_bonds>  (66) 
7

>  <r_i_docking_score>  (66) 
-2.13952

>  <r_i_glide_ligand_efficiency>  (66) 
-0.0475449

>  <r_i_glide_ligand_efficiency_sa>  (66) 
-0.169112

>  <r_i_glide_ligand_efficiency_ln>  (66) 
-0.445116

>  <r_i_glide_gscore>  (66) 
-2.13952

>  <r_i_glide_lipo>  (66) 
-0.0571205

>  <r_i_glide_hbond>  (66) 
-0.16

>  <r_i_glide_metal>  (66) 
-0

>  <r_i_glide_rewards>  (66) 
0

>  <r_i_glide_evdw>  (66) 
-24.0577

>  <r_i_glide_ecoul>  (66) 
-5.13299

>  <r_i_glide_erotb>  (66) 
0.0504293

>  <r_i_glide_esite>  (66) 
0

>  <r_i_glide_emodel>  (66) 
-32.0784

>  <r_i_glide_energy>  (66) 
-29.1906

>  <r_i_glide_einternal>  (66) 
3.20258

>  <r_i_glide_intrahb_reward>  (66) 
-0

>  <i_i_glide_confnum>  (66) 
1

>  <i_i_glide_posenum>  (66) 
13

>  <r_i_glide_eff_state_penalty>  (66) 
0

>  <ligand_id>  (66) 
41

>  <original_smiles>  (66) 
C=C1CC2(OC)C(C(C)(C)O)CC(OC)C34C=CC56C=CC7[S+]([O-])C(C)(C)OC3(O)C17C(C)(C2O4)C1(CO1)C(O)C5CCC6O

>  <smiles>  (66) 
[H]OC1([H])C([H])([H])C([H])([H])C2([H])C([H])(O[H])C3(OC3([H])[H])C3(C([H])([H])[H])C4([H])OC56C([H])=C([H])C12C([H])=C([H])C1([H])S(=O)C(C([H])([H])[H])(C([H])([H])[H])OC5(O[H])C13C(=C([H])[H])C([H])([H])C4(OC([H])([H])[H])C([H])(C(O[H])(C([H])([H])[H])C([H])([H])[H])C([H])([H])C6([H])OC([H])([H])[H]

$$$$
41:6:2
     RDKit          3D

 93100  0  0  1  0  0  0  0  0999 V2000
    5.7110   -5.0670    5.6892 C   0  0  0  0  0  0  0  0  0  0  0  0
    4.4411   -4.7118    5.3222 C   0  0  0  0  0  0  0  0  0  0  0  0
    3.4421   -5.8428    4.9559 C   0  0  0  0  0  0  0  0  0  0  0  0
    2.4246   -5.5596    3.7643 C   0  0  1  0  0  0  0  0  0  0  0  0
    2.9386   -6.3734    2.6966 O   0  0  0  0  0  0  0  0  0  0  0  0
    2.3947   -6.3307    1.3698 C   0  0  0  0  0  0  0  0  0  0  0  0
    0.9601   -6.0939    4.0650 C   0  0  1  0  0  0  0  0  0  0  0  0
    0.7001   -7.6816    4.0723 C   0  0  0  0  0  0  0  0  0  0  0  0
    1.4983   -8.4653    5.1399 C   0  0  0  0  0  0  0  0  0  0  0  0
   -0.8001   -8.0618    4.1886 C   0  0  0  0  0  0  0  0  0  0  0  0
    0.9930   -8.3218    2.8394 O   0  0  0  0  0  0  0  0  0  0  0  0
    0.3588   -5.4906    5.3688 C   0  0  0  0  0  0  0  0  0  0  0  0
    0.1673   -3.9573    5.5495 C   0  0  1  0  0  0  0  0  0  0  0  0
   -0.3409   -3.7101    6.8731 O   0  0  0  0  0  0  0  0  0  0  0  0
   -1.6832   -4.1101    7.1334 C   0  0  0  0  0  0  0  0  0  0  0  0
    1.3041   -2.9480    5.1644 C   0  0  1  0  0  0  0  0  0  0  0  0
    0.7193   -1.5465    5.4364 C   0  0  0  0  0  0  0  0  0  0  0  0
    1.1873   -0.3162    5.1467 C   0  0  0  0  0  0  0  0  0  0  0  0
    2.1723    0.1798    4.0883 C   0  0  1  0  0  0  0  0  0  0  0  0
    3.6688    0.1935    4.5321 C   0  0  0  0  0  0  0  0  0  0  0  0
    4.6579   -0.6138    5.0482 C   0  0  0  0  0  0  0  0  0  0  0  0
    4.9460   -2.0797    5.4543 C   0  0  1  0  0  0  0  0  0  0  0  0
    5.4231   -1.9978    7.2665 S   0  0  0  0  0  0  0  0  0  0  0  0
    5.9456   -3.3097    7.8249 O   0  0  0  0  0  0  0  0  0  0  0  0
    3.6943   -1.7300    7.8486 C   0  0  0  0  0  0  0  0  0  0  0  0
    3.4784   -2.6021    9.1059 C   0  0  0  0  0  0  0  0  0  0  0  0
    3.5989   -0.2510    8.2525 C   0  0  0  0  0  0  0  0  0  0  0  0
    2.7444   -1.8951    6.7929 O   0  0  0  0  0  0  0  0  0  0  0  0
    2.6413   -3.0568    5.9893 C   0  0  1  0  0  0  0  0  0  0  0  0
    2.4795   -4.1164    6.9094 O   0  0  0  0  0  0  0  0  0  0  0  0
    3.9701   -3.2618    5.0631 C   0  0  2  0  0  0  0  0  0  0  0  0
    3.8253   -3.3248    3.4169 C   0  0  1  0  0  0  0  0  0  0  0  0
    4.9204   -4.2937    2.7484 C   0  0  0  0  0  0  0  0  0  0  0  0
    2.4566   -4.0551    3.2678 C   0  0  2  0  0  0  0  0  0  0  0  0
    1.4408   -3.1865    3.7683 O   0  0  0  0  0  0  0  0  0  0  0  0
    4.0504   -1.9916    2.5106 C   0  0  1  0  0  0  0  0  0  0  0  0
    5.4130   -1.2879    2.3821 C   0  0  0  0  0  0  0  0  0  0  0  0
    4.9733   -2.2143    1.4105 O   0  0  0  0  0  0  0  0  0  0  0  0
    2.8650   -1.2511    1.8591 C   0  0  1  0  0  0  0  0  0  0  0  0
    2.2363   -2.0845    0.8931 O   0  0  0  0  0  0  0  0  0  0  0  0
    1.8120   -0.4777    2.6982 C   0  0  2  0  0  0  0  0  0  0  0  0
    1.2582    0.6629    1.8156 C   0  0  0  0  0  0  0  0  0  0  0  0
    1.9285    1.9167    2.3309 C   0  0  0  0  0  0  0  0  0  0  0  0
    1.8311    1.7137    3.8283 C   0  0  1  0  0  0  0  0  0  0  0  0
    0.5108    2.1458    4.1342 O   0  0  0  0  0  0  0  0  0  0  0  0
    6.4867   -4.3425    5.8337 H   0  0  0  0  0  0  0  0  0  0  0  0
    5.9817   -6.1026    5.7846 H   0  0  0  0  0  0  0  0  0  0  0  0
    4.0371   -6.7187    4.6873 H   0  0  0  0  0  0  0  0  0  0  0  0
    2.9433   -6.2065    5.8570 H   0  0  0  0  0  0  0  0  0  0  0  0
    2.6766   -7.2638    0.8844 H   0  0  0  0  0  0  0  0  0  0  0  0
    2.7808   -5.5191    0.7480 H   0  0  0  0  0  0  0  0  0  0  0  0
    1.3053   -6.2811    1.3525 H   0  0  0  0  0  0  0  0  0  0  0  0
    0.3243   -5.7101    3.2651 H   0  0  0  0  0  0  0  0  0  0  0  0
    1.3312   -8.0954    6.1512 H   0  0  0  0  0  0  0  0  0  0  0  0
    2.5686   -8.4349    4.9431 H   0  0  0  0  0  0  0  0  0  0  0  0
    1.2173   -9.5192    5.1456 H   0  0  0  0  0  0  0  0  0  0  0  0
   -1.1951   -7.9358    5.1976 H   0  0  0  0  0  0  0  0  0  0  0  0
   -0.9672   -9.1137    3.9435 H   0  0  0  0  0  0  0  0  0  0  0  0
   -1.4043   -7.4720    3.4984 H   0  0  0  0  0  0  0  0  0  0  0  0
    0.8626   -9.2473    2.9617 H   0  0  0  0  0  0  0  0  0  0  0  0
   -0.6517   -5.8812    5.4283 H   0  0  0  0  0  0  0  0  0  0  0  0
    0.8434   -5.9054    6.2520 H   0  0  0  0  0  0  0  0  0  0  0  0
   -0.5933   -3.6574    4.8409 H   0  0  0  0  0  0  0  0  0  0  0  0
   -1.9344   -3.8503    8.1568 H   0  0  0  0  0  0  0  0  0  0  0  0
   -1.8425   -5.1820    7.0485 H   0  0  0  0  0  0  0  0  0  0  0  0
   -2.3943   -3.5967    6.4907 H   0  0  0  0  0  0  0  0  0  0  0  0
   -0.0418   -1.5338    6.1944 H   0  0  0  0  0  0  0  0  0  0  0  0
    0.6744    0.4593    5.6956 H   0  0  0  0  0  0  0  0  0  0  0  0
    4.0915    1.1744    4.3999 H   0  0  0  0  0  0  0  0  0  0  0  0
    5.5605   -0.0446    5.2001 H   0  0  0  0  0  0  0  0  0  0  0  0
    5.8903   -2.3264    4.9841 H   0  0  0  0  0  0  0  0  0  0  0  0
    2.4325   -2.5938    9.4115 H   0  0  0  0  0  0  0  0  0  0  0  0
    4.0823   -2.2419    9.9393 H   0  0  0  0  0  0  0  0  0  0  0  0
    3.7745   -3.6372    8.9447 H   0  0  0  0  0  0  0  0  0  0  0  0
    2.6071   -0.0181    8.6406 H   0  0  0  0  0  0  0  0  0  0  0  0
    3.7832    0.4143    7.4088 H   0  0  0  0  0  0  0  0  0  0  0  0
    4.3266   -0.0029    9.0270 H   0  0  0  0  0  0  0  0  0  0  0  0
    2.3062   -4.9021    6.4372 H   0  0  0  0  0  0  0  0  0  0  0  0
    4.7308   -4.4197    1.6811 H   0  0  0  0  0  0  0  0  0  0  0  0
    5.0031   -5.3140    3.0802 H   0  0  0  0  0  0  0  0  0  0  0  0
    5.9298   -3.9147    2.8816 H   0  0  0  0  0  0  0  0  0  0  0  0
    2.2192   -4.0777    2.2162 H   0  0  0  0  0  0  0  0  0  0  0  0
    5.4833   -0.2444    2.0808 H   0  0  0  0  0  0  0  0  0  0  0  0
    6.2560   -1.6617    2.9331 H   0  0  0  0  0  0  0  0  0  0  0  0
    3.3661   -0.4828    1.2727 H   0  0  0  0  0  0  0  0  0  0  0  0
    1.6947   -1.5276    0.2912 H   0  0  0  0  0  0  0  0  0  0  0  0
    0.9555   -1.1403    2.8195 H   0  0  0  0  0  0  0  0  0  0  0  0
    1.4282    0.5318    0.7501 H   0  0  0  0  0  0  0  0  0  0  0  0
    0.1786    0.7445    1.9554 H   0  0  0  0  0  0  0  0  0  0  0  0
    2.9743    1.9417    2.0306 H   0  0  0  0  0  0  0  0  0  0  0  0
    1.4460    2.8292    1.9767 H   0  0  0  0  0  0  0  0  0  0  0  0
    2.4829    2.4185    4.3463 H   0  0  0  0  0  0  0  0  0  0  0  0
    0.4056    3.0137    3.7800 H   0  0  0  0  0  0  0  0  0  0  0  0
  1  2  2  0
  1 46  1  0
  1 47  1  0
 31  2  1  1
  2  3  1  0
  3  4  1  0
  3 48  1  0
  3 49  1  0
  4 34  1  0
  4  5  1  6
  4  7  1  0
  5  6  1  0
  6 50  1  0
  6 51  1  0
  6 52  1  0
  7  8  1  0
  7 12  1  0
  7 53  1  6
  8  9  1  0
  8 10  1  0
  8 11  1  0
  9 54  1  0
  9 55  1  0
  9 56  1  0
 10 57  1  0
 10 58  1  0
 10 59  1  0
 11 60  1  0
 12 13  1  0
 12 61  1  0
 12 62  1  0
 13 14  1  0
 13 16  1  0
 13 63  1  6
 14 15  1  0
 15 64  1  0
 15 65  1  0
 15 66  1  0
 16 29  1  0
 16 35  1  6
 16 17  1  0
 17 18  2  3
 17 67  1  0
 19 18  1  1
 18 68  1  0
 19 41  1  0
 19 44  1  0
 19 20  1  0
 20 21  2  3
 20 69  1  0
 21 22  1  0
 21 70  1  0
 22 31  1  0
 22 23  1  0
 22 71  1  6
 23 24  2  0
 23 25  1  1
 25 26  1  0
 25 27  1  0
 25 28  1  0
 26 72  1  0
 26 73  1  0
 26 74  1  0
 27 75  1  0
 27 76  1  0
 27 77  1  0
 28 29  1  0
 29 30  1  1
 29 31  1  0
 30 78  1  0
 31 32  1  0
 32 33  1  6
 32 34  1  0
 32 36  1  0
 33 79  1  0
 33 80  1  0
 33 81  1  0
 34 35  1  0
 34 82  1  6
 36 38  1  6
 36 37  1  0
 36 39  1  0
 37 38  1  0
 37 83  1  0
 37 84  1  0
 39 40  1  0
 39 41  1  0
 39 85  1  6
 40 86  1  0
 41 42  1  0
 41 87  1  1
 42 43  1  0
 42 88  1  0
 42 89  1  0
 43 44  1  0
 43 90  1  0
 43 91  1  0
 44 45  1  0
 44 92  1  1
 45 93  1  0
M  END
>  <i_m_ct_stereo_status>  (67) 
1

>  <s_m_source_file>  (67) 
/var/tmp/pbs.5075288.sched01/tmp228mwnki/64h1usuhcs.sdf

>  <i_m_source_file_index>  (67) 
34

>  <i_lp_mmshare_version>  (67) 
48012

>  <i_f3d_flags>  (67) 
0

>  <s_epik_input>  (67) 
W0NIM11PW0NAQEhdMVtDSDJdW0NASF0oQyhbQ0gzXSkoW0NIM10pW09IXSlbQ0BdKE9bQ0gzXSkoW0NIMl1DMj1bQ0gyXSlbQ0BASF0oTzMpW0NAQF00KFtDSDNdKUM1KFtDSDJdTzUpW0NAQEhdKFtPSF0pW0NASF0oW0NIMl1bQ0gyXVtDQEhdNltPSF0pW0NAQF02KC9bQ0hdPVtDSF1cNykvW0NIXT1bQ0hdL1tDQEBIXShbUytdKFtPLV0pQyhPOCkoW0NIM10pW0NIM10pW0NAXTI0W0NAQF04KFtDQF0xMzcpW09IXQ==

>  <s_epik_cmdline>  (67) 
J2VwaWtfcHl0aG9uJywgJy1waHQnLCAnMi4wJywgJy1waCcsICc3LjAnLCAnLXRuJywgJzgnLCAnLW1hJywgJzIwMCcsICctaW1hZScsICc8aW5maWxlLm1hZT4nLCAnLW9tYWUnLCAnPG91dGZpbGUubWFlPic=

>  <r_lp_tautomer_probability>  (67) 
1

>  <r_epik_Ionization_Penalty>  (67) 
6.47439e-06

>  <r_epik_Ionization_Penalty_Charging>  (67) 
0

>  <r_epik_Ionization_Penalty_Neutral>  (67) 
6.47439e-06

>  <r_epik_State_Penalty>  (67) 
-0

>  <r_epik_Charging_Adjusted_Penalty>  (67) 
0

>  <i_epik_Tot_Q>  (67) 
0

>  <i_epik_Tot_abs_Q>  (67) 
2

>  <s_lp_Force_Field>  (67) 
OPLS3e

>  <r_lp_Energy>  (67) 
218.661

>  <b_lp_Chiralities_Consistent>  (67) 
1

>  <s_lp_Variant>  (67) 
41:0-7

>  <s_i_glide_gridfile>  (67) 
pfpi4k_grid

>  <i_i_glide_lignum>  (67) 
34

>  <i_i_glide_rotatable_bonds>  (67) 
7

>  <r_i_docking_score>  (67) 
-1.97447

>  <r_i_glide_ligand_efficiency>  (67) 
-0.0438772

>  <r_i_glide_ligand_efficiency_sa>  (67) 
-0.156066

>  <r_i_glide_ligand_efficiency_ln>  (67) 
-0.410778

>  <r_i_glide_gscore>  (67) 
-1.97447

>  <r_i_glide_lipo>  (67) 
-0.198367

>  <r_i_glide_hbond>  (67) 
0

>  <r_i_glide_metal>  (67) 
-0

>  <r_i_glide_rewards>  (67) 
-0.00297234

>  <r_i_glide_evdw>  (67) 
-22.8957

>  <r_i_glide_ecoul>  (67) 
-4.52519

>  <r_i_glide_erotb>  (67) 
0.0504293

>  <r_i_glide_esite>  (67) 
0

>  <r_i_glide_emodel>  (67) 
-30.2302

>  <r_i_glide_energy>  (67) 
-27.4209

>  <r_i_glide_einternal>  (67) 
2.62934

>  <r_i_glide_intrahb_reward>  (67) 
-0

>  <i_i_glide_confnum>  (67) 
5

>  <i_i_glide_posenum>  (67) 
26

>  <r_i_glide_eff_state_penalty>  (67) 
0

>  <ligand_id>  (67) 
41

>  <original_smiles>  (67) 
C=C1CC2(OC)C(C(C)(C)O)CC(OC)C34C=CC56C=CC7[S+]([O-])C(C)(C)OC3(O)C17C(C)(C2O4)C1(CO1)C(O)C5CCC6O

>  <smiles>  (67) 
[H]OC1([H])C([H])([H])C([H])([H])C2([H])C([H])(O[H])C3(OC3([H])[H])C3(C([H])([H])[H])C4([H])OC56C([H])=C([H])C12C([H])=C([H])C1([H])S(=O)C(C([H])([H])[H])(C([H])([H])[H])OC5(O[H])C13C(=C([H])[H])C([H])([H])C4(OC([H])([H])[H])C([H])(C(O[H])(C([H])([H])[H])C([H])([H])[H])C([H])([H])C6([H])OC([H])([H])[H]

$$$$
41:7:0
     RDKit          3D

 93100  0  0  1  0  0  0  0  0999 V2000
    3.5335   -3.4108    7.6812 C   0  0  0  0  0  0  0  0  0  0  0  0
    3.4583   -3.6083    6.3486 C   0  0  0  0  0  0  0  0  0  0  0  0
    3.3444   -2.3367    5.4457 C   0  0  0  0  0  0  0  0  0  0  0  0
    2.4257   -2.4267    4.1606 C   0  0  1  0  0  0  0  0  0  0  0  0
    1.3349   -1.5687    4.5379 O   0  0  0  0  0  0  0  0  0  0  0  0
    0.1761   -1.4276    3.7275 C   0  0  0  0  0  0  0  0  0  0  0  0
    3.0894   -1.8062    2.8231 C   0  0  1  0  0  0  0  0  0  0  0  0
    3.2905   -0.2105    2.7831 C   0  0  0  0  0  0  0  0  0  0  0  0
    2.0252    0.6508    2.5543 C   0  0  0  0  0  0  0  0  0  0  0  0
    4.0533    0.3720    3.9935 C   0  0  0  0  0  0  0  0  0  0  0  0
    4.0862    0.1425    1.6662 O   0  0  0  0  0  0  0  0  0  0  0  0
    4.4164   -2.5243    2.3179 C   0  0  0  0  0  0  0  0  0  0  0  0
    4.5279   -4.0629    2.0036 C   0  0  1  0  0  0  0  0  0  0  0  0
    5.9321   -4.2975    1.7944 O   0  0  0  0  0  0  0  0  0  0  0  0
    6.2883   -5.4747    1.0949 C   0  0  0  0  0  0  0  0  0  0  0  0
    3.8379   -5.0366    2.9930 C   0  0  1  0  0  0  0  0  0  0  0  0
    3.5835   -6.4354    2.4052 C   0  0  0  0  0  0  0  0  0  0  0  0
    3.8262   -7.5967    3.0400 C   0  0  0  0  0  0  0  0  0  0  0  0
    2.7401   -8.4843    3.6094 C   0  0  1  0  0  0  0  0  0  0  0  0
    2.8203   -8.5390    5.1487 C   0  0  0  0  0  0  0  0  0  0  0  0
    3.1124   -7.7303    6.2079 C   0  0  0  0  0  0  0  0  0  0  0  0
    3.4829   -6.2637    6.5877 C   0  0  1  0  0  0  0  0  0  0  0  0
    5.1727   -6.4051    7.3662 S   0  0  0  0  0  0  0  0  0  0  0  0
    5.5940   -5.1680    8.1580 O   0  0  0  0  0  0  0  0  0  0  0  0
    6.1115   -6.4172    5.7708 C   0  0  0  0  0  0  0  0  0  0  0  0
    7.3366   -5.4964    5.9345 C   0  0  0  0  0  0  0  0  0  0  0  0
    6.5809   -7.8656    5.5892 C   0  0  0  0  0  0  0  0  0  0  0  0
    5.2779   -6.1472    4.6311 O   0  0  0  0  0  0  0  0  0  0  0  0
    4.4369   -5.0314    4.4827 C   0  0  1  0  0  0  0  0  0  0  0  0
    5.3455   -3.9835    4.5872 O   0  0  0  0  0  0  0  0  0  0  0  0
    3.2831   -4.9908    5.6266 C   0  0  2  0  0  0  0  0  0  0  0  0
    1.7271   -4.8455    5.1508 C   0  0  1  0  0  0  0  0  0  0  0  0
    0.8305   -4.0480    6.1895 C   0  0  0  0  0  0  0  0  0  0  0  0
    1.8470   -3.8764    3.9287 C   0  0  2  0  0  0  0  0  0  0  0  0
    2.5174   -4.5037    2.8729 O   0  0  0  0  0  0  0  0  0  0  0  0
    0.7832   -6.2100    4.8811 C   0  0  1  0  0  0  0  0  0  0  0  0
    0.3196   -6.9997    6.1006 C   0  0  0  0  0  0  0  0  0  0  0  0
   -0.5080   -6.0110    5.4866 O   0  0  0  0  0  0  0  0  0  0  0  0
    0.5833   -6.8452    3.5184 C   0  0  1  0  0  0  0  0  0  0  0  0
    0.4037   -5.9949    2.4010 O   0  0  0  0  0  0  0  0  0  0  0  0
    1.3121   -8.1664    3.1012 C   0  0  2  0  0  0  0  0  0  0  0  0
    0.5198   -9.4702    3.3088 C   0  0  0  0  0  0  0  0  0  0  0  0
    1.5492  -10.6062    3.2985 C   0  0  0  0  0  0  0  0  0  0  0  0
    2.9201   -9.9405    3.0765 C   0  0  1  0  0  0  0  0  0  0  0  0
    3.2021   -9.9204    1.6923 O   0  0  0  0  0  0  0  0  0  0  0  0
    3.5003   -4.2237    8.3927 H   0  0  0  0  0  0  0  0  0  0  0  0
    3.5914   -2.4213    8.0938 H   0  0  0  0  0  0  0  0  0  0  0  0
    2.9908   -1.5263    6.0845 H   0  0  0  0  0  0  0  0  0  0  0  0
    4.3409   -1.9918    5.2002 H   0  0  0  0  0  0  0  0  0  0  0  0
   -0.3522   -0.5284    4.0158 H   0  0  0  0  0  0  0  0  0  0  0  0
   -0.5423   -2.2504    3.8684 H   0  0  0  0  0  0  0  0  0  0  0  0
    0.4110   -1.3146    2.6718 H   0  0  0  0  0  0  0  0  0  0  0  0
    2.3840   -2.0168    2.0128 H   0  0  0  0  0  0  0  0  0  0  0  0
    1.2604    0.4907    3.3441 H   0  0  0  0  0  0  0  0  0  0  0  0
    1.5715    0.3853    1.6004 H   0  0  0  0  0  0  0  0  0  0  0  0
    2.3249    1.7208    2.4320 H   0  0  0  0  0  0  0  0  0  0  0  0
    3.4170    0.3779    4.8883 H   0  0  0  0  0  0  0  0  0  0  0  0
    4.3221    1.4106    3.8180 H   0  0  0  0  0  0  0  0  0  0  0  0
    4.9791   -0.1542    4.2246 H   0  0  0  0  0  0  0  0  0  0  0  0
    4.1850    1.0903    1.6659 H   0  0  0  0  0  0  0  0  0  0  0  0
    4.6789   -2.1235    1.3441 H   0  0  0  0  0  0  0  0  0  0  0  0
    5.2429   -2.2035    2.9536 H   0  0  0  0  0  0  0  0  0  0  0  0
    4.0389   -4.1970    1.0441 H   0  0  0  0  0  0  0  0  0  0  0  0
    7.3365   -5.4152    0.8053 H   0  0  0  0  0  0  0  0  0  0  0  0
    5.7018   -5.6121    0.1836 H   0  0  0  0  0  0  0  0  0  0  0  0
    6.1776   -6.3521    1.7294 H   0  0  0  0  0  0  0  0  0  0  0  0
    2.6720   -6.4221    1.8377 H   0  0  0  0  0  0  0  0  0  0  0  0
    4.7574   -7.8340    3.5071 H   0  0  0  0  0  0  0  0  0  0  0  0
    2.6022   -9.5360    5.4858 H   0  0  0  0  0  0  0  0  0  0  0  0
    3.0528   -8.2997    7.1268 H   0  0  0  0  0  0  0  0  0  0  0  0
    2.8231   -6.0997    7.4393 H   0  0  0  0  0  0  0  0  0  0  0  0
    7.8643   -5.3856    4.9842 H   0  0  0  0  0  0  0  0  0  0  0  0
    8.0453   -5.9040    6.6596 H   0  0  0  0  0  0  0  0  0  0  0  0
    7.0819   -4.5073    6.2943 H   0  0  0  0  0  0  0  0  0  0  0  0
    7.1522   -7.9768    4.6644 H   0  0  0  0  0  0  0  0  0  0  0  0
    5.7488   -8.5601    5.5430 H   0  0  0  0  0  0  0  0  0  0  0  0
    7.2250   -8.1886    6.4117 H   0  0  0  0  0  0  0  0  0  0  0  0
    5.6831   -3.9756    5.4795 H   0  0  0  0  0  0  0  0  0  0  0  0
   -0.1670   -3.8717    5.8144 H   0  0  0  0  0  0  0  0  0  0  0  0
    1.1350   -3.0378    6.4576 H   0  0  0  0  0  0  0  0  0  0  0  0
    0.7618   -4.5518    7.1517 H   0  0  0  0  0  0  0  0  0  0  0  0
    0.8476   -3.7661    3.5368 H   0  0  0  0  0  0  0  0  0  0  0  0
   -0.0052   -8.0403    5.9784 H   0  0  0  0  0  0  0  0  0  0  0  0
    0.6370   -6.7355    7.1020 H   0  0  0  0  0  0  0  0  0  0  0  0
   -0.4474   -7.1939    3.6067 H   0  0  0  0  0  0  0  0  0  0  0  0
    1.2398   -5.5453    2.2715 H   0  0  0  0  0  0  0  0  0  0  0  0
    1.3885   -8.1187    2.0164 H   0  0  0  0  0  0  0  0  0  0  0  0
   -0.0194   -9.4769    4.2506 H   0  0  0  0  0  0  0  0  0  0  0  0
   -0.2166   -9.6031    2.5077 H   0  0  0  0  0  0  0  0  0  0  0  0
    1.5266  -11.1209    4.2592 H   0  0  0  0  0  0  0  0  0  0  0  0
    1.3205  -11.3653    2.5480 H   0  0  0  0  0  0  0  0  0  0  0  0
    3.7085  -10.4776    3.5987 H   0  0  0  0  0  0  0  0  0  0  0  0
    3.4627  -10.8057    1.4117 H   0  0  0  0  0  0  0  0  0  0  0  0
  1  2  2  0
  1 46  1  0
  1 47  1  0
 31  2  1  1
  2  3  1  0
  3  4  1  0
  3 48  1  0
  3 49  1  0
  4 34  1  0
  4  5  1  1
  4  7  1  0
  5  6  1  0
  6 50  1  0
  6 51  1  0
  6 52  1  0
  7  8  1  0
  7 12  1  0
  7 53  1  6
  8  9  1  0
  8 10  1  0
  8 11  1  0
  9 54  1  0
  9 55  1  0
  9 56  1  0
 10 57  1  0
 10 58  1  0
 10 59  1  0
 11 60  1  0
 12 13  1  0
 12 61  1  0
 12 62  1  0
 13 14  1  0
 13 16  1  0
 13 63  1  6
 14 15  1  0
 15 64  1  0
 15 65  1  0
 15 66  1  0
 16 29  1  0
 16 35  1  1
 16 17  1  0
 17 18  2  3
 17 67  1  0
 19 18  1  6
 18 68  1  0
 19 41  1  0
 19 44  1  0
 19 20  1  0
 20 21  2  3
 20 69  1  0
 21 22  1  0
 21 70  1  0
 22 31  1  0
 22 23  1  0
 22 71  1  1
 23 24  2  0
 23 25  1  6
 25 26  1  0
 25 27  1  0
 25 28  1  0
 26 72  1  0
 26 73  1  0
 26 74  1  0
 27 75  1  0
 27 76  1  0
 27 77  1  0
 28 29  1  0
 29 30  1  6
 29 31  1  0
 30 78  1  0
 31 32  1  0
 32 33  1  1
 32 34  1  0
 32 36  1  0
 33 79  1  0
 33 80  1  0
 33 81  1  0
 34 35  1  0
 34 82  1  6
 36 38  1  6
 36 37  1  0
 36 39  1  0
 37 38  1  0
 37 83  1  0
 37 84  1  0
 39 40  1  0
 39 41  1  0
 39 85  1  1
 40 86  1  0
 41 42  1  0
 41 87  1  6
 42 43  1  0
 42 88  1  0
 42 89  1  0
 43 44  1  0
 43 90  1  0
 43 91  1  0
 44 45  1  0
 44 92  1  1
 45 93  1  0
M  END
>  <i_m_ct_stereo_status>  (68) 
1

>  <s_m_source_file>  (68) 
/var/tmp/pbs.5075288.sched01/tmp228mwnki/64h1usuhcs.sdf

>  <i_m_source_file_index>  (68) 
35

>  <i_lp_mmshare_version>  (68) 
48012

>  <i_f3d_flags>  (68) 
0

>  <s_epik_input>  (68) 
W0NIM11PW0NAQEhdMVtDSDJdW0NASF0oQyhbQ0gzXSkoW0NIM10pW09IXSlbQ0BdKE9bQ0gzXSkoW0NIMl1DMj1bQ0gyXSlbQ0BASF0oTzMpW0NAQF00KFtDSDNdKUM1KFtDSDJdTzUpW0NAQEhdKFtPSF0pW0NASF0oW0NIMl1bQ0gyXVtDQEhdNltPSF0pW0NAQF02KC9bQ0hdPVtDSF1cNykvW0NIXT1bQ0hdL1tDQEBIXShbUytdKFtPLV0pQyhPOCkoW0NIM10pW0NIM10pW0NAXTI0W0NAQF04KFtDQF0xMzcpW09IXQ==

>  <s_epik_cmdline>  (68) 
J2VwaWtfcHl0aG9uJywgJy1waHQnLCAnMi4wJywgJy1waCcsICc3LjAnLCAnLXRuJywgJzgnLCAnLW1hJywgJzIwMCcsICctaW1hZScsICc8aW5maWxlLm1hZT4nLCAnLW9tYWUnLCAnPG91dGZpbGUubWFlPic=

>  <r_lp_tautomer_probability>  (68) 
1

>  <r_epik_Ionization_Penalty>  (68) 
6.47439e-06

>  <r_epik_Ionization_Penalty_Charging>  (68) 
0

>  <r_epik_Ionization_Penalty_Neutral>  (68) 
6.47439e-06

>  <r_epik_State_Penalty>  (68) 
-0

>  <r_epik_Charging_Adjusted_Penalty>  (68) 
0

>  <i_epik_Tot_Q>  (68) 
0

>  <i_epik_Tot_abs_Q>  (68) 
2

>  <s_lp_Force_Field>  (68) 
OPLS3e

>  <r_lp_Energy>  (68) 
237.371

>  <b_lp_Chiralities_Consistent>  (68) 
1

>  <s_lp_Variant>  (68) 
41:0-8

>  <s_i_glide_gridfile>  (68) 
pfpi4k_grid

>  <i_i_glide_lignum>  (68) 
35

>  <i_i_glide_rotatable_bonds>  (68) 
7

>  <r_i_docking_score>  (68) 
-3.53704

>  <r_i_glide_ligand_efficiency>  (68) 
-0.0786008

>  <r_i_glide_ligand_efficiency_sa>  (68) 
-0.279575

>  <r_i_glide_ligand_efficiency_ln>  (68) 
-0.735861

>  <r_i_glide_gscore>  (68) 
-3.53704

>  <r_i_glide_lipo>  (68) 
-0.277816

>  <r_i_glide_hbond>  (68) 
-0.418141

>  <r_i_glide_metal>  (68) 
-0

>  <r_i_glide_rewards>  (68) 
-0.50011

>  <r_i_glide_evdw>  (68) 
-21.5927

>  <r_i_glide_ecoul>  (68) 
-8.74509

>  <r_i_glide_erotb>  (68) 
0.0504293

>  <r_i_glide_esite>  (68) 
0

>  <r_i_glide_emodel>  (68) 
-39.7434

>  <r_i_glide_energy>  (68) 
-30.3378

>  <r_i_glide_einternal>  (68) 
2.85602

>  <r_i_glide_intrahb_reward>  (68) 
-0.5

>  <i_i_glide_confnum>  (68) 
4

>  <i_i_glide_posenum>  (68) 
12

>  <r_i_glide_eff_state_penalty>  (68) 
0

>  <ligand_id>  (68) 
41

>  <original_smiles>  (68) 
C=C1CC2(OC)C(C(C)(C)O)CC(OC)C34C=CC56C=CC7[S+]([O-])C(C)(C)OC3(O)C17C(C)(C2O4)C1(CO1)C(O)C5CCC6O

>  <smiles>  (68) 
[H]OC1([H])C([H])([H])C([H])([H])C2([H])C([H])(O[H])C3(OC3([H])[H])C3(C([H])([H])[H])C4([H])OC56C([H])=C([H])C12C([H])=C([H])C1([H])S(=O)C(C([H])([H])[H])(C([H])([H])[H])OC5(O[H])C13C(=C([H])[H])C([H])([H])C4(OC([H])([H])[H])C([H])(C(O[H])(C([H])([H])[H])C([H])([H])[H])C([H])([H])C6([H])OC([H])([H])[H]

$$$$
41:7:1
     RDKit          3D

 93100  0  0  1  0  0  0  0  0999 V2000
    3.6804   -3.6638    7.6725 C   0  0  0  0  0  0  0  0  0  0  0  0
    3.5006   -3.8470    6.3434 C   0  0  0  0  0  0  0  0  0  0  0  0
    3.2948   -2.5745    5.4713 C   0  0  0  0  0  0  0  0  0  0  0  0
    2.2703   -2.6759    4.2780 C   0  0  1  0  0  0  0  0  0  0  0  0
    1.1784   -1.8776    4.7769 O   0  0  0  0  0  0  0  0  0  0  0  0
   -0.0401   -1.7268    4.0472 C   0  0  0  0  0  0  0  0  0  0  0  0
    2.7947   -2.0340    2.8948 C   0  0  1  0  0  0  0  0  0  0  0  0
    2.9745   -0.4338    2.8372 C   0  0  0  0  0  0  0  0  0  0  0  0
    4.0091    0.1445    3.8274 C   0  0  0  0  0  0  0  0  0  0  0  0
    3.3039    0.0691    1.4063 C   0  0  0  0  0  0  0  0  0  0  0  0
    1.8063    0.3146    3.1062 O   0  0  0  0  0  0  0  0  0  0  0  0
    4.0899   -2.7108    2.2741 C   0  0  0  0  0  0  0  0  0  0  0  0
    4.2067   -4.2479    1.9465 C   0  0  1  0  0  0  0  0  0  0  0  0
    5.5942   -4.4829    1.6878 O   0  0  0  0  0  0  0  0  0  0  0  0
    5.9099   -5.6174    0.8897 C   0  0  0  0  0  0  0  0  0  0  0  0
    3.6034   -5.2522    2.9692 C   0  0  1  0  0  0  0  0  0  0  0  0
    3.3341   -6.6545    2.4034 C   0  0  0  0  0  0  0  0  0  0  0  0
    3.6508   -7.8075    3.0132 C   0  0  0  0  0  0  0  0  0  0  0  0
    2.6443   -8.7267    3.6549 C   0  0  1  0  0  0  0  0  0  0  0  0
    2.8447   -8.7856    5.1872 C   0  0  0  0  0  0  0  0  0  0  0  0
    3.2134   -7.9785    6.2228 C   0  0  0  0  0  0  0  0  0  0  0  0
    3.5802   -6.5080    6.5738 C   0  0  1  0  0  0  0  0  0  0  0  0
    5.3335   -6.6103    7.2086 S   0  0  0  0  0  0  0  0  0  0  0  0
    5.7968   -5.3801    7.9865 O   0  0  0  0  0  0  0  0  0  0  0  0
    6.1266   -6.5987    5.5488 C   0  0  0  0  0  0  0  0  0  0  0  0
    7.3589   -5.6708    5.6152 C   0  0  0  0  0  0  0  0  0  0  0  0
    6.6249   -8.0375    5.3190 C   0  0  0  0  0  0  0  0  0  0  0  0
    5.2098   -6.3386    4.4800 O   0  0  0  0  0  0  0  0  0  0  0  0
    4.3352   -5.2502    4.3966 C   0  0  1  0  0  0  0  0  0  0  0  0
    5.2427   -4.1770    4.4136 O   0  0  0  0  0  0  0  0  0  0  0  0
    3.2824   -5.2325    5.6427 C   0  0  2  0  0  0  0  0  0  0  0  0
    1.6937   -5.1250    5.2779 C   0  0  1  0  0  0  0  0  0  0  0  0
    0.8859   -4.3407    6.4104 C   0  0  0  0  0  0  0  0  0  0  0  0
    1.6897   -4.1329    4.0816 C   0  0  2  0  0  0  0  0  0  0  0  0
    2.2780   -4.7268    2.9645 O   0  0  0  0  0  0  0  0  0  0  0  0
    0.7850   -6.4753    5.1038 C   0  0  1  0  0  0  0  0  0  0  0  0
    0.3927   -7.3068    6.3439 C   0  0  0  0  0  0  0  0  0  0  0  0
   -0.4901   -6.3560    5.7769 O   0  0  0  0  0  0  0  0  0  0  0  0
    0.4528   -7.1304    3.7407 C   0  0  1  0  0  0  0  0  0  0  0  0
    0.2053   -6.2549    2.6524 O   0  0  0  0  0  0  0  0  0  0  0  0
    1.1762   -8.4373    3.2673 C   0  0  2  0  0  0  0  0  0  0  0  0
    0.4226   -9.7552    3.5305 C   0  0  0  0  0  0  0  0  0  0  0  0
    1.4711  -10.8703    3.4276 C   0  0  0  0  0  0  0  0  0  0  0  0
    2.8107  -10.1741    3.1128 C   0  0  1  0  0  0  0  0  0  0  0  0
    3.0140  -10.1654    1.7133 O   0  0  0  0  0  0  0  0  0  0  0  0
    3.7115   -4.4809    8.3773 H   0  0  0  0  0  0  0  0  0  0  0  0
    3.7444   -2.6707    8.0872 H   0  0  0  0  0  0  0  0  0  0  0  0
    2.9645   -1.7827    6.1475 H   0  0  0  0  0  0  0  0  0  0  0  0
    4.2622   -2.1916    5.1438 H   0  0  0  0  0  0  0  0  0  0  0  0
   -0.5007   -0.7926    4.3703 H   0  0  0  0  0  0  0  0  0  0  0  0
   -0.7712   -2.5209    4.2024 H   0  0  0  0  0  0  0  0  0  0  0  0
    0.1538   -1.6302    2.9826 H   0  0  0  0  0  0  0  0  0  0  0  0
    2.0336   -2.2572    2.1487 H   0  0  0  0  0  0  0  0  0  0  0  0
    4.9990   -0.3094    3.7431 H   0  0  0  0  0  0  0  0  0  0  0  0
    3.6628    0.0273    4.8524 H   0  0  0  0  0  0  0  0  0  0  0  0
    4.1283    1.2185    3.6736 H   0  0  0  0  0  0  0  0  0  0  0  0
    4.3319   -0.1327    1.0991 H   0  0  0  0  0  0  0  0  0  0  0  0
    3.1754    1.1524    1.3320 H   0  0  0  0  0  0  0  0  0  0  0  0
    2.6265   -0.3846    0.6768 H   0  0  0  0  0  0  0  0  0  0  0  0
    1.9751    1.2008    2.8062 H   0  0  0  0  0  0  0  0  0  0  0  0
    4.2723   -2.2702    1.2940 H   0  0  0  0  0  0  0  0  0  0  0  0
    4.9534   -2.3847    2.8485 H   0  0  0  0  0  0  0  0  0  0  0  0
    3.6518   -4.3981    1.0184 H   0  0  0  0  0  0  0  0  0  0  0  0
    6.9295   -5.5332    0.5100 H   0  0  0  0  0  0  0  0  0  0  0  0
    5.2537   -5.7245    0.0264 H   0  0  0  0  0  0  0  0  0  0  0  0
    5.8624   -6.5250    1.4872 H   0  0  0  0  0  0  0  0  0  0  0  0
    2.3829   -6.6612    1.9138 H   0  0  0  0  0  0  0  0  0  0  0  0
    4.6191   -8.0329    3.4031 H   0  0  0  0  0  0  0  0  0  0  0  0
    2.6710   -9.7928    5.5309 H   0  0  0  0  0  0  0  0  0  0  0  0
    3.2393   -8.5585    7.1352 H   0  0  0  0  0  0  0  0  0  0  0  0
    2.9824   -6.3679    7.4726 H   0  0  0  0  0  0  0  0  0  0  0  0
    7.8067   -5.5425    4.6312 H   0  0  0  0  0  0  0  0  0  0  0  0
    8.1227   -6.0651    6.2864 H   0  0  0  0  0  0  0  0  0  0  0  0
    7.0960   -4.6843    5.9967 H   0  0  0  0  0  0  0  0  0  0  0  0
    7.1187   -8.1271    4.3516 H   0  0  0  0  0  0  0  0  0  0  0  0
    5.8001   -8.7490    5.3373 H   0  0  0  0  0  0  0  0  0  0  0  0
    7.3357   -8.3454    6.0860 H   0  0  0  0  0  0  0  0  0  0  0  0
    5.7509   -4.2249    3.6135 H   0  0  0  0  0  0  0  0  0  0  0  0
   -0.1474   -4.1467    6.1086 H   0  0  0  0  0  0  0  0  0  0  0  0
    1.2064   -3.3349    6.6719 H   0  0  0  0  0  0  0  0  0  0  0  0
    0.8953   -4.8593    7.3667 H   0  0  0  0  0  0  0  0  0  0  0  0
    0.6576   -4.0080    3.7925 H   0  0  0  0  0  0  0  0  0  0  0  0
    0.1185   -8.3698    6.2398 H   0  0  0  0  0  0  0  0  0  0  0  0
    0.7172   -7.0293    7.3275 H   0  0  0  0  0  0  0  0  0  0  0  0
   -0.5585   -7.4889    3.9115 H   0  0  0  0  0  0  0  0  0  0  0  0
    1.0032   -5.7601    2.5184 H   0  0  0  0  0  0  0  0  0  0  0  0
    1.1627   -8.3752    2.1790 H   0  0  0  0  0  0  0  0  0  0  0  0
   -0.0344   -9.7755    4.5187 H   0  0  0  0  0  0  0  0  0  0  0  0
   -0.3732   -9.8893    2.7957 H   0  0  0  0  0  0  0  0  0  0  0  0
    1.5296  -11.3929    4.3859 H   0  0  0  0  0  0  0  0  0  0  0  0
    1.1974  -11.6229    2.6970 H   0  0  0  0  0  0  0  0  0  0  0  0
    3.6477  -10.7011    3.5834 H   0  0  0  0  0  0  0  0  0  0  0  0
    3.3685  -10.9994    1.4134 H   0  0  0  0  0  0  0  0  0  0  0  0
  1  2  2  0
  1 46  1  0
  1 47  1  0
 31  2  1  1
  2  3  1  0
  3  4  1  0
  3 48  1  0
  3 49  1  0
  4 34  1  0
  4  5  1  1
  4  7  1  0
  5  6  1  0
  6 50  1  0
  6 51  1  0
  6 52  1  0
  7  8  1  0
  7 12  1  0
  7 53  1  6
  8  9  1  0
  8 10  1  0
  8 11  1  0
  9 54  1  0
  9 55  1  0
  9 56  1  0
 10 57  1  0
 10 58  1  0
 10 59  1  0
 11 60  1  0
 12 13  1  0
 12 61  1  0
 12 62  1  0
 13 14  1  0
 13 16  1  0
 13 63  1  6
 14 15  1  0
 15 64  1  0
 15 65  1  0
 15 66  1  0
 16 29  1  0
 16 35  1  1
 16 17  1  0
 17 18  2  3
 17 67  1  0
 19 18  1  6
 18 68  1  0
 19 41  1  0
 19 44  1  0
 19 20  1  0
 20 21  2  3
 20 69  1  0
 21 22  1  0
 21 70  1  0
 22 31  1  0
 22 23  1  0
 22 71  1  1
 23 24  2  0
 23 25  1  6
 25 26  1  0
 25 27  1  0
 25 28  1  0
 26 72  1  0
 26 73  1  0
 26 74  1  0
 27 75  1  0
 27 76  1  0
 27 77  1  0
 28 29  1  0
 29 30  1  6
 29 31  1  0
 30 78  1  0
 31 32  1  0
 32 33  1  1
 32 34  1  0
 32 36  1  0
 33 79  1  0
 33 80  1  0
 33 81  1  0
 34 35  1  0
 34 82  1  6
 36 38  1  1
 36 37  1  0
 36 39  1  0
 37 38  1  0
 37 83  1  0
 37 84  1  0
 39 40  1  0
 39 41  1  0
 39 85  1  1
 40 86  1  0
 41 42  1  0
 41 87  1  6
 42 43  1  0
 42 88  1  0
 42 89  1  0
 43 44  1  0
 43 90  1  0
 43 91  1  0
 44 45  1  0
 44 92  1  1
 45 93  1  0
M  END
>  <i_m_ct_stereo_status>  (69) 
1

>  <s_m_source_file>  (69) 
/var/tmp/pbs.5075288.sched01/tmp228mwnki/64h1usuhcs.sdf

>  <i_m_source_file_index>  (69) 
35

>  <i_lp_mmshare_version>  (69) 
48012

>  <i_f3d_flags>  (69) 
0

>  <s_epik_input>  (69) 
W0NIM11PW0NAQEhdMVtDSDJdW0NASF0oQyhbQ0gzXSkoW0NIM10pW09IXSlbQ0BdKE9bQ0gzXSkoW0NIMl1DMj1bQ0gyXSlbQ0BASF0oTzMpW0NAQF00KFtDSDNdKUM1KFtDSDJdTzUpW0NAQEhdKFtPSF0pW0NASF0oW0NIMl1bQ0gyXVtDQEhdNltPSF0pW0NAQF02KC9bQ0hdPVtDSF1cNykvW0NIXT1bQ0hdL1tDQEBIXShbUytdKFtPLV0pQyhPOCkoW0NIM10pW0NIM10pW0NAXTI0W0NAQF04KFtDQF0xMzcpW09IXQ==

>  <s_epik_cmdline>  (69) 
J2VwaWtfcHl0aG9uJywgJy1waHQnLCAnMi4wJywgJy1waCcsICc3LjAnLCAnLXRuJywgJzgnLCAnLW1hJywgJzIwMCcsICctaW1hZScsICc8aW5maWxlLm1hZT4nLCAnLW9tYWUnLCAnPG91dGZpbGUubWFlPic=

>  <r_lp_tautomer_probability>  (69) 
1

>  <r_epik_Ionization_Penalty>  (69) 
6.47439e-06

>  <r_epik_Ionization_Penalty_Charging>  (69) 
0

>  <r_epik_Ionization_Penalty_Neutral>  (69) 
6.47439e-06

>  <r_epik_State_Penalty>  (69) 
-0

>  <r_epik_Charging_Adjusted_Penalty>  (69) 
0

>  <i_epik_Tot_Q>  (69) 
0

>  <i_epik_Tot_abs_Q>  (69) 
2

>  <s_lp_Force_Field>  (69) 
OPLS3e

>  <r_lp_Energy>  (69) 
237.371

>  <b_lp_Chiralities_Consistent>  (69) 
1

>  <s_lp_Variant>  (69) 
41:0-8

>  <s_i_glide_gridfile>  (69) 
pfpi4k_grid

>  <i_i_glide_lignum>  (69) 
35

>  <i_i_glide_rotatable_bonds>  (69) 
7

>  <r_i_docking_score>  (69) 
-3.19407

>  <r_i_glide_ligand_efficiency>  (69) 
-0.0709794

>  <r_i_glide_ligand_efficiency_sa>  (69) 
-0.252466

>  <r_i_glide_ligand_efficiency_ln>  (69) 
-0.66451

>  <r_i_glide_gscore>  (69) 
-3.19407

>  <r_i_glide_lipo>  (69) 
-0.299495

>  <r_i_glide_hbond>  (69) 
-0.16

>  <r_i_glide_metal>  (69) 
-0

>  <r_i_glide_rewards>  (69) 
-0.500027

>  <r_i_glide_evdw>  (69) 
-21.8839

>  <r_i_glide_ecoul>  (69) 
-7.93857

>  <r_i_glide_erotb>  (69) 
0.0504293

>  <r_i_glide_esite>  (69) 
0

>  <r_i_glide_emodel>  (69) 
-40.5945

>  <r_i_glide_energy>  (69) 
-29.8225

>  <r_i_glide_einternal>  (69) 
0.920981

>  <r_i_glide_intrahb_reward>  (69) 
-0.5

>  <i_i_glide_confnum>  (69) 
4

>  <i_i_glide_posenum>  (69) 
7

>  <r_i_glide_eff_state_penalty>  (69) 
0

>  <ligand_id>  (69) 
41

>  <original_smiles>  (69) 
C=C1CC2(OC)C(C(C)(C)O)CC(OC)C34C=CC56C=CC7[S+]([O-])C(C)(C)OC3(O)C17C(C)(C2O4)C1(CO1)C(O)C5CCC6O

>  <smiles>  (69) 
[H]OC1([H])C([H])([H])C([H])([H])C2([H])C([H])(O[H])C3(OC3([H])[H])C3(C([H])([H])[H])C4([H])OC56C([H])=C([H])C12C([H])=C([H])C1([H])S(=O)C(C([H])([H])[H])(C([H])([H])[H])OC5(O[H])C13C(=C([H])[H])C([H])([H])C4(OC([H])([H])[H])C([H])(C(O[H])(C([H])([H])[H])C([H])([H])[H])C([H])([H])C6([H])OC([H])([H])[H]

$$$$
41:7:2
     RDKit          3D

 93100  0  0  1  0  0  0  0  0999 V2000
    6.5965   -5.2406    6.3258 C   0  0  0  0  0  0  0  0  0  0  0  0
    5.5562   -4.7193    5.6488 C   0  0  0  0  0  0  0  0  0  0  0  0
    5.3723   -3.1727    5.6902 C   0  0  0  0  0  0  0  0  0  0  0  0
    3.8986   -2.6217    5.7583 C   0  0  1  0  0  0  0  0  0  0  0  0
    3.8306   -2.1314    7.1128 O   0  0  0  0  0  0  0  0  0  0  0  0
    2.6222   -1.6048    7.6752 C   0  0  0  0  0  0  0  0  0  0  0  0
    3.6112   -1.3890    4.7559 C   0  0  1  0  0  0  0  0  0  0  0  0
    4.3274    0.0089    5.0792 C   0  0  0  0  0  0  0  0  0  0  0  0
    5.8653   -0.0002    4.9781 C   0  0  0  0  0  0  0  0  0  0  0  0
    3.7767    1.1722    4.2233 C   0  0  0  0  0  0  0  0  0  0  0  0
    4.0638    0.5108    6.3755 O   0  0  0  0  0  0  0  0  0  0  0  0
    3.7747   -1.6928    3.2057 C   0  0  0  0  0  0  0  0  0  0  0  0
    3.0178   -2.8502    2.4490 C   0  0  1  0  0  0  0  0  0  0  0  0
    3.6554   -2.9662    1.1741 O   0  0  0  0  0  0  0  0  0  0  0  0
    2.8594   -3.4860    0.1158 C   0  0  0  0  0  0  0  0  0  0  0  0
    2.8943   -4.2149    3.1894 C   0  0  1  0  0  0  0  0  0  0  0  0
    1.7787   -5.1190    2.6606 C   0  0  0  0  0  0  0  0  0  0  0  0
    1.8898   -6.4308    2.3895 C   0  0  0  0  0  0  0  0  0  0  0  0
    1.2759   -7.5038    3.2472 C   0  0  1  0  0  0  0  0  0  0  0  0
    2.3657   -8.3470    3.9520 C   0  0  0  0  0  0  0  0  0  0  0  0
    3.6055   -8.1965    4.5176 C   0  0  0  0  0  0  0  0  0  0  0  0
    4.6668   -7.1299    4.8962 C   0  0  1  0  0  0  0  0  0  0  0  0
    6.1737   -7.6066    3.8953 S   0  0  0  0  0  0  0  0  0  0  0  0
    7.4715   -6.9660    4.3732 O   0  0  0  0  0  0  0  0  0  0  0  0
    5.6266   -6.7845    2.3410 C   0  0  0  0  0  0  0  0  0  0  0  0
    6.8459   -6.0564    1.7360 C   0  0  0  0  0  0  0  0  0  0  0  0
    5.2101   -7.9217    1.3923 C   0  0  0  0  0  0  0  0  0  0  0  0
    4.4512   -5.9841    2.5057 O   0  0  0  0  0  0  0  0  0  0  0  0
    4.2810   -4.9696    3.4548 C   0  0  1  0  0  0  0  0  0  0  0  0
    5.3167   -4.0887    3.1014 O   0  0  0  0  0  0  0  0  0  0  0  0
    4.4054   -5.5500    4.9764 C   0  0  2  0  0  0  0  0  0  0  0  0
    3.1792   -5.2140    6.0094 C   0  0  1  0  0  0  0  0  0  0  0  0
    3.6956   -5.0831    7.5216 C   0  0  0  0  0  0  0  0  0  0  0  0
    2.8176   -3.7549    5.6286 C   0  0  2  0  0  0  0  0  0  0  0  0
    2.2623   -3.6966    4.3502 O   0  0  0  0  0  0  0  0  0  0  0  0
    1.9395   -6.2563    6.1974 C   0  0  1  0  0  0  0  0  0  0  0  0
    2.1267   -7.5878    6.9481 C   0  0  0  0  0  0  0  0  0  0  0  0
    1.5853   -6.4536    7.5890 O   0  0  0  0  0  0  0  0  0  0  0  0
    0.5726   -6.1068    5.4614 C   0  0  1  0  0  0  0  0  0  0  0  0
    0.0185   -4.8050    5.3857 O   0  0  0  0  0  0  0  0  0  0  0  0
    0.1975   -7.0063    4.2377 C   0  0  2  0  0  0  0  0  0  0  0  0
   -0.6659   -8.2515    4.5506 C   0  0  0  0  0  0  0  0  0  0  0  0
   -0.5109   -9.1932    3.3521 C   0  0  0  0  0  0  0  0  0  0  0  0
    0.4349   -8.4751    2.3805 C   0  0  1  0  0  0  0  0  0  0  0  0
   -0.3730   -7.8109    1.4317 O   0  0  0  0  0  0  0  0  0  0  0  0
    6.7411   -6.3035    6.4577 H   0  0  0  0  0  0  0  0  0  0  0  0
    7.3162   -4.6010    6.8233 H   0  0  0  0  0  0  0  0  0  0  0  0
    5.9260   -2.8113    6.5623 H   0  0  0  0  0  0  0  0  0  0  0  0
    5.9184   -2.7117    4.8714 H   0  0  0  0  0  0  0  0  0  0  0  0
    2.9113   -0.9585    8.5025 H   0  0  0  0  0  0  0  0  0  0  0  0
    1.9558   -2.3683    8.0819 H   0  0  0  0  0  0  0  0  0  0  0  0
    2.0545   -0.9900    6.9785 H   0  0  0  0  0  0  0  0  0  0  0  0
    2.5451   -1.1795    4.8550 H   0  0  0  0  0  0  0  0  0  0  0  0
    6.2116   -0.3390    4.0011 H   0  0  0  0  0  0  0  0  0  0  0  0
    6.3123   -0.6294    5.7470 H   0  0  0  0  0  0  0  0  0  0  0  0
    6.2796    0.9987    5.1242 H   0  0  0  0  0  0  0  0  0  0  0  0
    4.1200    1.1251    3.1898 H   0  0  0  0  0  0  0  0  0  0  0  0
    4.1043    2.1418    4.6073 H   0  0  0  0  0  0  0  0  0  0  0  0
    2.6850    1.1746    4.2227 H   0  0  0  0  0  0  0  0  0  0  0  0
    4.4994    1.3431    6.4545 H   0  0  0  0  0  0  0  0  0  0  0  0
    3.4460   -0.8174    2.6492 H   0  0  0  0  0  0  0  0  0  0  0  0
    4.8353   -1.7407    2.9709 H   0  0  0  0  0  0  0  0  0  0  0  0
    1.9992   -2.4851    2.3005 H   0  0  0  0  0  0  0  0  0  0  0  0
    3.3303   -3.2646   -0.8421 H   0  0  0  0  0  0  0  0  0  0  0  0
    1.8613   -3.0483    0.0866 H   0  0  0  0  0  0  0  0  0  0  0  0
    2.7722   -4.5686    0.1914 H   0  0  0  0  0  0  0  0  0  0  0  0
    0.8627   -4.8347    3.1370 H   0  0  0  0  0  0  0  0  0  0  0  0
    2.6756   -6.8608    1.8050 H   0  0  0  0  0  0  0  0  0  0  0  0
    2.0653   -9.3832    3.9749 H   0  0  0  0  0  0  0  0  0  0  0  0
    3.9654   -9.1577    4.8497 H   0  0  0  0  0  0  0  0  0  0  0  0
    4.9203   -7.4396    5.9084 H   0  0  0  0  0  0  0  0  0  0  0  0
    6.5547   -5.4596    0.8714 H   0  0  0  0  0  0  0  0  0  0  0  0
    7.6127   -6.7638    1.4168 H   0  0  0  0  0  0  0  0  0  0  0  0
    7.3243   -5.3962    2.4579 H   0  0  0  0  0  0  0  0  0  0  0  0
    4.8692   -7.5296    0.4332 H   0  0  0  0  0  0  0  0  0  0  0  0
    4.3959   -8.5122    1.8097 H   0  0  0  0  0  0  0  0  0  0  0  0
    6.0347   -8.6087    1.1970 H   0  0  0  0  0  0  0  0  0  0  0  0
    5.1091   -3.7454    2.2404 H   0  0  0  0  0  0  0  0  0  0  0  0
    2.9036   -4.7408    8.1929 H   0  0  0  0  0  0  0  0  0  0  0  0
    4.4697   -4.3565    7.7407 H   0  0  0  0  0  0  0  0  0  0  0  0
    4.1060   -6.0152    7.9096 H   0  0  0  0  0  0  0  0  0  0  0  0
    1.9862   -3.4661    6.2577 H   0  0  0  0  0  0  0  0  0  0  0  0
    1.4517   -8.4273    6.7830 H   0  0  0  0  0  0  0  0  0  0  0  0
    3.1072   -7.8546    7.3104 H   0  0  0  0  0  0  0  0  0  0  0  0
   -0.1193   -6.4939    6.2101 H   0  0  0  0  0  0  0  0  0  0  0  0
    0.1651   -4.3789    6.2143 H   0  0  0  0  0  0  0  0  0  0  0  0
   -0.4915   -6.3922    3.6513 H   0  0  0  0  0  0  0  0  0  0  0  0
   -0.3322   -8.7600    5.4527 H   0  0  0  0  0  0  0  0  0  0  0  0
   -1.7095   -7.9707    4.6945 H   0  0  0  0  0  0  0  0  0  0  0  0
   -0.0637  -10.1277    3.6864 H   0  0  0  0  0  0  0  0  0  0  0  0
   -1.4657   -9.4611    2.9017 H   0  0  0  0  0  0  0  0  0  0  0  0
    1.0582   -9.1779    1.8305 H   0  0  0  0  0  0  0  0  0  0  0  0
   -0.5237   -8.4475    0.7393 H   0  0  0  0  0  0  0  0  0  0  0  0
  1  2  2  0
  1 46  1  0
  1 47  1  0
 31  2  1  1
  2  3  1  0
  3  4  1  0
  3 48  1  0
  3 49  1  0
  4 34  1  0
  4  5  1  1
  4  7  1  0
  5  6  1  0
  6 50  1  0
  6 51  1  0
  6 52  1  0
  7  8  1  0
  7 12  1  0
  7 53  1  6
  8  9  1  0
  8 10  1  0
  8 11  1  0
  9 54  1  0
  9 55  1  0
  9 56  1  0
 10 57  1  0
 10 58  1  0
 10 59  1  0
 11 60  1  0
 12 13  1  0
 12 61  1  0
 12 62  1  0
 13 14  1  0
 13 16  1  0
 13 63  1  6
 14 15  1  0
 15 64  1  0
 15 65  1  0
 15 66  1  0
 16 29  1  0
 16 35  1  1
 16 17  1  0
 17 18  2  3
 17 67  1  0
 19 18  1  6
 18 68  1  0
 19 41  1  0
 19 44  1  0
 19 20  1  0
 20 21  2  3
 20 69  1  0
 21 22  1  0
 21 70  1  0
 22 31  1  0
 22 23  1  0
 22 71  1  1
 23 24  2  0
 23 25  1  6
 25 26  1  0
 25 27  1  0
 25 28  1  0
 26 72  1  0
 26 73  1  0
 26 74  1  0
 27 75  1  0
 27 76  1  0
 27 77  1  0
 28 29  1  0
 29 30  1  6
 29 31  1  0
 30 78  1  0
 31 32  1  0
 32 33  1  1
 32 34  1  0
 32 36  1  0
 33 79  1  0
 33 80  1  0
 33 81  1  0
 34 35  1  0
 34 82  1  1
 36 38  1  1
 36 37  1  0
 36 39  1  0
 37 38  1  0
 37 83  1  0
 37 84  1  0
 39 40  1  0
 39 41  1  0
 39 85  1  1
 40 86  1  0
 41 42  1  0
 41 87  1  6
 42 43  1  0
 42 88  1  0
 42 89  1  0
 43 44  1  0
 43 90  1  0
 43 91  1  0
 44 45  1  0
 44 92  1  6
 45 93  1  0
M  END
>  <i_m_ct_stereo_status>  (70) 
1

>  <s_m_source_file>  (70) 
/var/tmp/pbs.5075288.sched01/tmp228mwnki/64h1usuhcs.sdf

>  <i_m_source_file_index>  (70) 
35

>  <i_lp_mmshare_version>  (70) 
48012

>  <i_f3d_flags>  (70) 
0

>  <s_epik_input>  (70) 
W0NIM11PW0NAQEhdMVtDSDJdW0NASF0oQyhbQ0gzXSkoW0NIM10pW09IXSlbQ0BdKE9bQ0gzXSkoW0NIMl1DMj1bQ0gyXSlbQ0BASF0oTzMpW0NAQF00KFtDSDNdKUM1KFtDSDJdTzUpW0NAQEhdKFtPSF0pW0NASF0oW0NIMl1bQ0gyXVtDQEhdNltPSF0pW0NAQF02KC9bQ0hdPVtDSF1cNykvW0NIXT1bQ0hdL1tDQEBIXShbUytdKFtPLV0pQyhPOCkoW0NIM10pW0NIM10pW0NAXTI0W0NAQF04KFtDQF0xMzcpW09IXQ==

>  <s_epik_cmdline>  (70) 
J2VwaWtfcHl0aG9uJywgJy1waHQnLCAnMi4wJywgJy1waCcsICc3LjAnLCAnLXRuJywgJzgnLCAnLW1hJywgJzIwMCcsICctaW1hZScsICc8aW5maWxlLm1hZT4nLCAnLW9tYWUnLCAnPG91dGZpbGUubWFlPic=

>  <r_lp_tautomer_probability>  (70) 
1

>  <r_epik_Ionization_Penalty>  (70) 
6.47439e-06

>  <r_epik_Ionization_Penalty_Charging>  (70) 
0

>  <r_epik_Ionization_Penalty_Neutral>  (70) 
6.47439e-06

>  <r_epik_State_Penalty>  (70) 
-0

>  <r_epik_Charging_Adjusted_Penalty>  (70) 
0

>  <i_epik_Tot_Q>  (70) 
0

>  <i_epik_Tot_abs_Q>  (70) 
2

>  <s_lp_Force_Field>  (70) 
OPLS3e

>  <r_lp_Energy>  (70) 
237.371

>  <b_lp_Chiralities_Consistent>  (70) 
1

>  <s_lp_Variant>  (70) 
41:0-8

>  <s_i_glide_gridfile>  (70) 
pfpi4k_grid

>  <i_i_glide_lignum>  (70) 
35

>  <i_i_glide_rotatable_bonds>  (70) 
7

>  <r_i_docking_score>  (70) 
-2.51834

>  <r_i_glide_ligand_efficiency>  (70) 
-0.0559631

>  <r_i_glide_ligand_efficiency_sa>  (70) 
-0.199055

>  <r_i_glide_ligand_efficiency_ln>  (70) 
-0.523927

>  <r_i_glide_gscore>  (70) 
-2.51834

>  <r_i_glide_lipo>  (70) 
-0.270427

>  <r_i_glide_hbond>  (70) 
-0.32

>  <r_i_glide_metal>  (70) 
-0

>  <r_i_glide_rewards>  (70) 
-0.0012823

>  <r_i_glide_evdw>  (70) 
-23.5743

>  <r_i_glide_ecoul>  (70) 
-5.32232

>  <r_i_glide_erotb>  (70) 
0.0504293

>  <r_i_glide_esite>  (70) 
0

>  <r_i_glide_emodel>  (70) 
-33.0738

>  <r_i_glide_energy>  (70) 
-28.8966

>  <r_i_glide_einternal>  (70) 
1.41

>  <r_i_glide_intrahb_reward>  (70) 
-0

>  <i_i_glide_confnum>  (70) 
2

>  <i_i_glide_posenum>  (70) 
29

>  <r_i_glide_eff_state_penalty>  (70) 
0

>  <ligand_id>  (70) 
41

>  <original_smiles>  (70) 
C=C1CC2(OC)C(C(C)(C)O)CC(OC)C34C=CC56C=CC7[S+]([O-])C(C)(C)OC3(O)C17C(C)(C2O4)C1(CO1)C(O)C5CCC6O

>  <smiles>  (70) 
[H]OC1([H])C([H])([H])C([H])([H])C2([H])C([H])(O[H])C3(OC3([H])[H])C3(C([H])([H])[H])C4([H])OC56C([H])=C([H])C12C([H])=C([H])C1([H])S(=O)C(C([H])([H])[H])(C([H])([H])[H])OC5(O[H])C13C(=C([H])[H])C([H])([H])C4(OC([H])([H])[H])C([H])(C(O[H])(C([H])([H])[H])C([H])([H])[H])C([H])([H])C6([H])OC([H])([H])[H]

$$$$
47:0:0
     RDKit          3D

 40 43  0  0  1  0  0  0  0  0999 V2000
    2.7763   -3.2360   -3.9183 C   0  0  0  0  0  0  0  0  0  0  0  0
    3.0966   -2.4729   -2.6434 C   0  0  2  0  0  0  0  0  0  0  0  0
    3.2643   -1.0031   -2.9812 C   0  0  0  0  0  0  0  0  0  0  0  0
    4.5516   -0.6348   -2.2659 C   0  0  0  0  0  0  0  0  0  0  0  0
    4.8034   -1.6090   -1.1151 C   0  0  2  0  0  0  0  0  0  0  0  0
    6.1991   -1.4674   -0.8252 O   0  0  0  0  0  0  0  0  0  0  0  0
    6.8304   -2.7832   -0.3718 O   0  0  0  0  0  0  0  0  0  0  0  0
    6.0735   -3.4646    0.6380 C   0  0  2  0  0  0  0  0  0  0  0  0
    7.1779   -4.2373    1.3487 C   0  0  0  0  0  0  0  0  0  0  0  0
    5.3468   -4.5592   -0.1081 C   0  0  0  0  0  0  0  0  0  0  0  0
    4.3115   -4.1733   -1.1179 C   0  0  0  0  0  0  0  0  0  0  0  0
    4.4024   -2.8738   -1.8917 C   0  0  1  0  0  0  0  0  0  0  0  0
    5.2508   -2.6905    1.7296 C   0  0  1  0  0  0  0  0  0  0  0  0
    5.7030   -1.2588    2.0029 C   0  0  0  0  0  0  0  0  0  0  0  0
    4.9182   -0.2979    1.0856 C   0  0  0  0  0  0  0  0  0  0  0  0
    4.0177   -1.1052    0.1342 C   0  0  2  0  0  0  0  0  0  0  0  0
    3.4823   -2.4963    1.2179 S   0  0  0  0  0  0  0  0  0  0  0  0
    2.7466   -1.8744    2.3905 O   0  0  0  0  0  0  0  0  0  0  0  0
    3.5783   -3.1994   -4.6452 H   0  0  0  0  0  0  0  0  0  0  0  0
    1.8604   -2.8616   -4.3637 H   0  0  0  0  0  0  0  0  0  0  0  0
    2.5698   -4.2509   -3.6715 H   0  0  0  0  0  0  0  0  0  0  0  0
    2.2523   -2.5635   -1.9605 H   0  0  0  0  0  0  0  0  0  0  0  0
    3.3342   -0.8042   -4.0453 H   0  0  0  0  0  0  0  0  0  0  0  0
    2.4105   -0.4344   -2.6011 H   0  0  0  0  0  0  0  0  0  0  0  0
    5.3536   -0.7251   -2.9849 H   0  0  0  0  0  0  0  0  0  0  0  0
    4.4604    0.4033   -1.9525 H   0  0  0  0  0  0  0  0  0  0  0  0
    6.7817   -4.9386    2.1001 H   0  0  0  0  0  0  0  0  0  0  0  0
    7.8071   -3.5183    1.8390 H   0  0  0  0  0  0  0  0  0  0  0  0
    7.8427   -4.7928    0.6781 H   0  0  0  0  0  0  0  0  0  0  0  0
    6.1337   -5.0863   -0.6317 H   0  0  0  0  0  0  0  0  0  0  0  0
    4.9433   -5.3005    0.5912 H   0  0  0  0  0  0  0  0  0  0  0  0
    4.4816   -4.9243   -1.8716 H   0  0  0  0  0  0  0  0  0  0  0  0
    3.2851   -4.3350   -0.7267 H   0  0  0  0  0  0  0  0  0  0  0  0
    5.1739   -3.0308   -2.6567 H   0  0  0  0  0  0  0  0  0  0  0  0
    5.2540   -3.2801    2.6553 H   0  0  0  0  0  0  0  0  0  0  0  0
    5.4616   -1.0060    3.0381 H   0  0  0  0  0  0  0  0  0  0  0  0
    6.7799   -1.1553    1.8979 H   0  0  0  0  0  0  0  0  0  0  0  0
    4.2847    0.3308    1.7045 H   0  0  0  0  0  0  0  0  0  0  0  0
    5.5988    0.3660    0.5605 H   0  0  0  0  0  0  0  0  0  0  0  0
    3.1300   -0.5484   -0.1802 H   0  0  0  0  0  0  0  0  0  0  0  0
  1  2  1  0
  1 19  1  0
  1 20  1  0
  1 21  1  0
  2 12  1  0
  2  3  1  0
  2 22  1  1
  3  4  1  0
  3 23  1  0
  3 24  1  0
  5  4  1  6
  4 25  1  0
  4 26  1  0
  5 12  1  0
  5 16  1  0
  5  6  1  0
  6  7  1  0
  7  8  1  0
  8  9  1  1
  8 10  1  0
  8 13  1  0
  9 27  1  0
  9 28  1  0
  9 29  1  0
 10 11  1  0
 10 30  1  0
 10 31  1  0
 11 12  1  0
 11 32  1  0
 11 33  1  0
 12 34  1  6
 17 13  1  1
 13 14  1  0
 13 35  1  1
 14 15  1  0
 14 36  1  0
 14 37  1  0
 15 16  1  0
 15 38  1  0
 15 39  1  0
 16 17  1  0
 16 40  1  6
 17 18  2  0
M  END
>  <i_m_ct_stereo_status>  (71) 
1

>  <s_m_source_file>  (71) 
/var/tmp/pbs.5075288.sched01/tmp228mwnki/64h1usuhcs.sdf

>  <i_m_source_file_index>  (71) 
42

>  <i_lp_mmshare_version>  (71) 
48012

>  <i_f3d_flags>  (71) 
0

>  <s_epik_input>  (71) 
W0NIMl0xW0NIMl1bQ0BASF0oW0NIM10pW0NAQEhdKFtDQF0xMjMpW0NIMl1bQ0gyXVtDQF0oT08yKShbQ0gzXSlbQ0BIXTRbQ0gyXVtDSDJdW0NAQEhdM1tTK100W08tXQ==

>  <s_epik_cmdline>  (71) 
J2VwaWtfcHl0aG9uJywgJy1waHQnLCAnMi4wJywgJy1waCcsICc3LjAnLCAnLXRuJywgJzgnLCAnLW1hJywgJzIwMCcsICctaW1hZScsICc8aW5maWxlLm1hZT4nLCAnLW9tYWUnLCAnPG91dGZpbGUubWFlPic=

>  <r_lp_tautomer_probability>  (71) 
1

>  <r_epik_Ionization_Penalty>  (71) 
0

>  <r_epik_Ionization_Penalty_Charging>  (71) 
0

>  <r_epik_Ionization_Penalty_Neutral>  (71) 
0

>  <r_epik_State_Penalty>  (71) 
-0

>  <r_epik_Charging_Adjusted_Penalty>  (71) 
0

>  <i_epik_Tot_Q>  (71) 
0

>  <i_epik_Tot_abs_Q>  (71) 
2

>  <s_lp_Force_Field>  (71) 
OPLS3e

>  <r_lp_Energy>  (71) 
37.6152

>  <b_lp_Chiralities_Consistent>  (71) 
1

>  <s_lp_Variant>  (71) 
47:0-1

>  <s_i_glide_gridfile>  (71) 
pfpi4k_grid

>  <i_i_glide_lignum>  (71) 
42

>  <i_i_glide_rotatable_bonds>  (71) 
0

>  <r_i_docking_score>  (71) 
-3.45

>  <r_i_glide_ligand_efficiency>  (71) 
-0.191667

>  <r_i_glide_ligand_efficiency_sa>  (71) 
-0.502309

>  <r_i_glide_ligand_efficiency_ln>  (71) 
-0.886804

>  <r_i_glide_gscore>  (71) 
-3.45

>  <r_i_glide_lipo>  (71) 
-0.697445

>  <r_i_glide_hbond>  (71) 
-0.115399

>  <r_i_glide_metal>  (71) 
-0

>  <r_i_glide_rewards>  (71) 
-1.56553

>  <r_i_glide_evdw>  (71) 
-16.944

>  <r_i_glide_ecoul>  (71) 
-1.41836

>  <r_i_glide_erotb>  (71) 
0

>  <r_i_glide_esite>  (71) 
-0.0116701

>  <r_i_glide_emodel>  (71) 
-21.6179

>  <r_i_glide_energy>  (71) 
-18.3624

>  <r_i_glide_einternal>  (71) 
0

>  <r_i_glide_intrahb_reward>  (71) 
-0

>  <i_i_glide_confnum>  (71) 
1

>  <i_i_glide_posenum>  (71) 
1

>  <r_i_glide_eff_state_penalty>  (71) 
0

>  <ligand_id>  (71) 
47

>  <original_smiles>  (71) 
CC1CCC23OOC(C)(CCC12)C1CCC3[S+]1[O-]

>  <smiles>  (71) 
[H]C([H])([H])C1([H])C([H])([H])C([H])([H])C23OOC(C([H])([H])[H])(C([H])([H])C([H])([H])C12[H])C1([H])S(=O)C3([H])C([H])([H])C1([H])[H]

$$$$
47:0:1
     RDKit          3D

 40 43  0  0  1  0  0  0  0  0999 V2000
    2.5255   -2.6669   -3.6465 C   0  0  0  0  0  0  0  0  0  0  0  0
    3.2799   -2.2153   -2.3822 C   0  0  2  0  0  0  0  0  0  0  0  0
    4.6019   -1.5198   -2.6991 C   0  0  0  0  0  0  0  0  0  0  0  0
    5.6438   -2.1847   -1.7766 C   0  0  0  0  0  0  0  0  0  0  0  0
    4.8518   -2.8253   -0.5841 C   0  0  2  0  0  0  0  0  0  0  0  0
    5.7724   -3.7918   -0.1159 O   0  0  0  0  0  0  0  0  0  0  0  0
    5.0704   -4.9729    0.6320 O   0  0  0  0  0  0  0  0  0  0  0  0
    3.9487   -4.5833    1.4272 C   0  0  2  0  0  0  0  0  0  0  0  0
    3.9657   -5.7769    2.4511 C   0  0  0  0  0  0  0  0  0  0  0  0
    2.7018   -4.8419    0.5505 C   0  0  0  0  0  0  0  0  0  0  0  0
    2.4252   -3.8862   -0.6498 C   0  0  0  0  0  0  0  0  0  0  0  0
    3.6563   -3.3604   -1.4032 C   0  0  1  0  0  0  0  0  0  0  0  0
    3.9871   -3.3032    2.3287 C   0  0  1  0  0  0  0  0  0  0  0  0
    5.3890   -2.7775    2.6299 C   0  0  0  0  0  0  0  0  0  0  0  0
    5.8072   -1.7599    1.5570 C   0  0  0  0  0  0  0  0  0  0  0  0
    4.7091   -1.6717    0.4706 C   0  0  2  0  0  0  0  0  0  0  0  0
    3.1700   -1.8818    1.4680 S   0  0  0  0  0  0  0  0  0  0  0  0
    3.1677   -0.7332    2.4826 O   0  0  0  0  0  0  0  0  0  0  0  0
    3.0770   -3.4026   -4.2113 H   0  0  0  0  0  0  0  0  0  0  0  0
    2.3152   -1.8213   -4.2946 H   0  0  0  0  0  0  0  0  0  0  0  0
    1.5583   -3.0949   -3.3705 H   0  0  0  0  0  0  0  0  0  0  0  0
    2.6539   -1.4880   -1.8724 H   0  0  0  0  0  0  0  0  0  0  0  0
    4.8822   -1.6369   -3.7479 H   0  0  0  0  0  0  0  0  0  0  0  0
    4.5196   -0.4533   -2.5027 H   0  0  0  0  0  0  0  0  0  0  0  0
    6.1347   -2.9698   -2.3432 H   0  0  0  0  0  0  0  0  0  0  0  0
    6.3987   -1.4910   -1.4458 H   0  0  0  0  0  0  0  0  0  0  0  0
    3.0904   -5.7646    3.1016 H   0  0  0  0  0  0  0  0  0  0  0  0
    4.8435   -5.7322    3.0972 H   0  0  0  0  0  0  0  0  0  0  0  0
    3.9772   -6.7436    1.9481 H   0  0  0  0  0  0  0  0  0  0  0  0
    2.7789   -5.8505    0.1414 H   0  0  0  0  0  0  0  0  0  0  0  0
    1.8276   -4.8414    1.1903 H   0  0  0  0  0  0  0  0  0  0  0  0
    1.8004   -4.4348   -1.3532 H   0  0  0  0  0  0  0  0  0  0  0  0
    1.8040   -3.0661   -0.3528 H   0  0  0  0  0  0  0  0  0  0  0  0
    4.0366   -4.1805   -1.9980 H   0  0  0  0  0  0  0  0  0  0  0  0
    3.4418   -3.4889    3.2514 H   0  0  0  0  0  0  0  0  0  0  0  0
    5.3747   -2.2787    3.6006 H   0  0  0  0  0  0  0  0  0  0  0  0
    6.0993   -3.6048    2.7198 H   0  0  0  0  0  0  0  0  0  0  0  0
    5.9006   -0.7788    2.0345 H   0  0  0  0  0  0  0  0  0  0  0  0
    6.7920   -1.9923    1.1560 H   0  0  0  0  0  0  0  0  0  0  0  0
    4.7002   -0.7004   -0.0057 H   0  0  0  0  0  0  0  0  0  0  0  0
  1  2  1  0
  1 19  1  0
  1 20  1  0
  1 21  1  0
  2 12  1  0
  2  3  1  0
  2 22  1  1
  3  4  1  0
  3 23  1  0
  3 24  1  0
  5  4  1  6
  4 25  1  0
  4 26  1  0
  5 12  1  0
  5 16  1  0
  5  6  1  0
  6  7  1  0
  7  8  1  0
  8  9  1  1
  8 10  1  0
  8 13  1  0
  9 27  1  0
  9 28  1  0
  9 29  1  0
 10 11  1  0
 10 30  1  0
 10 31  1  0
 11 12  1  0
 11 32  1  0
 11 33  1  0
 12 34  1  6
 17 13  1  1
 13 14  1  0
 13 35  1  1
 14 15  1  0
 14 36  1  0
 14 37  1  0
 15 16  1  0
 15 38  1  0
 15 39  1  0
 16 17  1  0
 16 40  1  6
 17 18  2  0
M  END
>  <i_m_ct_stereo_status>  (72) 
1

>  <s_m_source_file>  (72) 
/var/tmp/pbs.5075288.sched01/tmp228mwnki/64h1usuhcs.sdf

>  <i_m_source_file_index>  (72) 
42

>  <i_lp_mmshare_version>  (72) 
48012

>  <i_f3d_flags>  (72) 
0

>  <s_epik_input>  (72) 
W0NIMl0xW0NIMl1bQ0BASF0oW0NIM10pW0NAQEhdKFtDQF0xMjMpW0NIMl1bQ0gyXVtDQF0oT08yKShbQ0gzXSlbQ0BIXTRbQ0gyXVtDSDJdW0NAQEhdM1tTK100W08tXQ==

>  <s_epik_cmdline>  (72) 
J2VwaWtfcHl0aG9uJywgJy1waHQnLCAnMi4wJywgJy1waCcsICc3LjAnLCAnLXRuJywgJzgnLCAnLW1hJywgJzIwMCcsICctaW1hZScsICc8aW5maWxlLm1hZT4nLCAnLW9tYWUnLCAnPG91dGZpbGUubWFlPic=

>  <r_lp_tautomer_probability>  (72) 
1

>  <r_epik_Ionization_Penalty>  (72) 
0

>  <r_epik_Ionization_Penalty_Charging>  (72) 
0

>  <r_epik_Ionization_Penalty_Neutral>  (72) 
0

>  <r_epik_State_Penalty>  (72) 
-0

>  <r_epik_Charging_Adjusted_Penalty>  (72) 
0

>  <i_epik_Tot_Q>  (72) 
0

>  <i_epik_Tot_abs_Q>  (72) 
2

>  <s_lp_Force_Field>  (72) 
OPLS3e

>  <r_lp_Energy>  (72) 
37.6152

>  <b_lp_Chiralities_Consistent>  (72) 
1

>  <s_lp_Variant>  (72) 
47:0-1

>  <s_i_glide_gridfile>  (72) 
pfpi4k_grid

>  <i_i_glide_lignum>  (72) 
42

>  <i_i_glide_rotatable_bonds>  (72) 
0

>  <r_i_docking_score>  (72) 
-3.26148

>  <r_i_glide_ligand_efficiency>  (72) 
-0.181193

>  <r_i_glide_ligand_efficiency_sa>  (72) 
-0.47486

>  <r_i_glide_ligand_efficiency_ln>  (72) 
-0.838345

>  <r_i_glide_gscore>  (72) 
-3.26148

>  <r_i_glide_lipo>  (72) 
-0.497646

>  <r_i_glide_hbond>  (72) 
0

>  <r_i_glide_metal>  (72) 
-0

>  <r_i_glide_rewards>  (72) 
-1.56553

>  <r_i_glide_evdw>  (72) 
-23.3647

>  <r_i_glide_ecoul>  (72) 
-0.0554718

>  <r_i_glide_erotb>  (72) 
0

>  <r_i_glide_esite>  (72) 
-0.0217429

>  <r_i_glide_emodel>  (72) 
-26.5172

>  <r_i_glide_energy>  (72) 
-23.4202

>  <r_i_glide_einternal>  (72) 
0

>  <r_i_glide_intrahb_reward>  (72) 
-0

>  <i_i_glide_confnum>  (72) 
2

>  <i_i_glide_posenum>  (72) 
33

>  <r_i_glide_eff_state_penalty>  (72) 
0

>  <ligand_id>  (72) 
47

>  <original_smiles>  (72) 
CC1CCC23OOC(C)(CCC12)C1CCC3[S+]1[O-]

>  <smiles>  (72) 
[H]C([H])([H])C1([H])C([H])([H])C([H])([H])C23OOC(C([H])([H])[H])(C([H])([H])C([H])([H])C12[H])C1([H])S(=O)C3([H])C([H])([H])C1([H])[H]

$$$$
48:0:0
     RDKit          3D

117125  0  0  1  0  0  0  0  0999 V2000
    6.1805   -2.3216    1.5723 C   0  0  0  0  0  0  0  0  0  0  0  0
    5.5983   -2.3084    2.8800 O   0  0  0  0  0  0  0  0  0  0  0  0
    4.5670   -3.2259    3.1175 C   0  0  2  0  0  0  0  0  0  0  0  0
    4.8646   -4.4470    2.4579 O   0  0  0  0  0  0  0  0  0  0  0  0
    4.0756   -5.6282    2.1830 C   0  0  2  0  0  0  0  0  0  0  0  0
    5.1135   -6.2439    1.2054 C   0  0  0  0  0  0  0  0  0  0  0  0
    2.8689   -5.2919    1.2669 C   0  0  0  0  0  0  0  0  0  0  0  0
    2.9597   -3.9372    0.5463 C   0  0  0  0  0  0  0  0  0  0  0  0
    2.4922   -2.8699    1.4694 C   0  0  2  0  0  0  0  0  0  0  0  0
    3.2267   -1.6466    1.6226 O   0  0  0  0  0  0  0  0  0  0  0  0
    3.2103   -2.5702    2.7495 C   0  0  2  0  0  0  0  0  0  0  0  0
    2.3675   -2.2777    4.0200 C   0  0  2  0  0  0  0  0  0  0  0  0
    1.5520   -3.5945    4.2577 C   0  0  2  0  0  0  0  0  0  0  0  0
    0.1686   -3.4085    4.8895 C   0  0  0  0  0  0  0  0  0  0  0  0
    0.0987   -2.2621    5.8765 C   0  0  0  0  0  0  0  0  0  0  0  0
    0.3435   -0.9178    5.1763 C   0  0  1  0  0  0  0  0  0  0  0  0
    0.2991    0.2703    6.1939 C   0  0  1  0  0  0  0  0  0  0  0  0
   -0.9461    0.2654    6.8692 O   0  0  0  0  0  0  0  0  0  0  0  0
    1.3009    0.1902    7.3667 C   0  0  0  0  0  0  0  0  0  0  0  0
    2.7564   -0.1573    7.0369 C   0  0  1  0  0  0  0  0  0  0  0  0
    2.9312   -1.5518    7.1600 O   0  0  0  0  0  0  0  0  0  0  0  0
    3.2954    0.3921    5.6945 C   0  0  1  0  0  0  0  0  0  0  0  0
    4.5826   -0.2334    5.5467 O   0  0  0  0  0  0  0  0  0  0  0  0
    5.7230    0.2588    6.0686 C   0  0  0  0  0  0  0  0  0  0  0  0
    6.6548   -0.4736    6.3910 O   0  0  0  0  0  0  0  0  0  0  0  0
    5.7079    1.6549    6.1722 N   0  0  0  0  0  0  0  0  0  0  0  0
    6.7582    2.4447    6.7715 C   0  0  0  0  0  0  0  0  0  0  0  0
    6.4327    3.9358    6.6683 C   0  0  0  0  0  0  0  0  0  0  0  0
    7.7918    4.6271    6.7975 C   0  0  0  0  0  0  0  0  0  0  0  0
    8.8169    3.6439    6.2154 C   0  0  0  0  0  0  0  0  0  0  0  0
    8.1014    2.3092    6.0352 C   0  0  0  0  0  0  0  0  0  0  0  0
    2.4317    0.3936    4.3899 C   0  0  2  0  0  0  0  0  0  0  0  0
    3.3998    0.7133    3.2238 C   0  0  0  0  0  0  0  0  0  0  0  0
    1.5366    1.6544    4.4358 C   0  0  0  0  0  0  0  0  0  0  0  0
    0.4368    1.6434    5.4889 C   0  0  1  0  0  0  0  0  0  0  0  0
   -0.7671    1.9941    4.8444 O   0  0  0  0  0  0  0  0  0  0  0  0
    1.5568   -0.9079    4.1483 C   0  0  1  0  0  0  0  0  0  0  0  0
    0.9003   -0.7181    2.9051 O   0  0  0  0  0  0  0  0  0  0  0  0
    2.6153   -4.6732    5.3397 S   0  0  0  0  0  0  0  0  0  0  0  0
    2.0476   -4.6490    6.7678 O   0  0  0  0  0  0  0  0  0  0  0  0
    2.9810   -6.4316    4.7567 C   0  0  1  0  0  0  0  0  0  0  0  0
    3.8165   -7.0052    5.7660 O   0  0  0  0  0  0  0  0  0  0  0  0
    1.7526   -7.4539    4.7751 C   0  0  1  0  0  0  0  0  0  0  0  0
    1.1984   -7.6691    6.2135 C   0  0  0  0  0  0  0  0  0  0  0  0
    0.5136   -7.2010    3.8543 C   0  0  0  0  0  0  0  0  0  0  0  0
    0.2288   -6.1168    3.3597 O   0  0  0  0  0  0  0  0  0  0  0  0
   -0.4239   -8.3825    3.5806 C   0  0  0  0  0  0  0  0  0  0  0  0
    0.3167   -9.6018    3.0164 C   0  0  0  0  0  0  0  0  0  0  0  0
    1.5741   -9.9677    3.8322 C   0  0  0  0  0  0  0  0  0  0  0  0
    1.1329  -10.6805    5.1379 C   0  0  0  0  0  0  0  0  0  0  0  0
    2.4091  -11.0225    3.0699 C   0  0  0  0  0  0  0  0  0  0  0  0
    2.4607   -8.7103    4.1678 C   0  0  1  0  0  0  0  0  0  0  0  0
    3.3694   -8.1102    3.0180 C   0  0  1  0  0  0  0  0  0  0  0  0
    2.6229   -8.0984    1.8238 O   0  0  0  0  0  0  0  0  0  0  0  0
    3.8568   -6.6527    3.4108 C   0  0  1  0  0  0  0  0  0  0  0  0
    5.2046   -6.9382    3.7751 O   0  0  0  0  0  0  0  0  0  0  0  0
    7.0058   -1.6033    1.5313 H   0  0  0  0  0  0  0  0  0  0  0  0
    5.4720   -2.0350    0.8002 H   0  0  0  0  0  0  0  0  0  0  0  0
    6.6125   -3.2920    1.2939 H   0  0  0  0  0  0  0  0  0  0  0  0
    4.6782   -3.4197    4.1831 H   0  0  0  0  0  0  0  0  0  0  0  0
    4.8175   -7.2197    0.8244 H   0  0  0  0  0  0  0  0  0  0  0  0
    6.1040   -6.3630    1.6483 H   0  0  0  0  0  0  0  0  0  0  0  0
    5.2627   -5.6051    0.3421 H   0  0  0  0  0  0  0  0  0  0  0  0
    2.7879   -6.0597    0.4905 H   0  0  0  0  0  0  0  0  0  0  0  0
    1.9427   -5.3633    1.8084 H   0  0  0  0  0  0  0  0  0  0  0  0
    3.9697   -3.7264    0.1952 H   0  0  0  0  0  0  0  0  0  0  0  0
    2.3197   -3.9423   -0.3275 H   0  0  0  0  0  0  0  0  0  0  0  0
    1.4376   -2.6816    1.4360 H   0  0  0  0  0  0  0  0  0  0  0  0
    3.0749   -2.2329    4.8365 H   0  0  0  0  0  0  0  0  0  0  0  0
    1.3590   -4.0732    3.3134 H   0  0  0  0  0  0  0  0  0  0  0  0
   -0.5551   -3.1776    4.1098 H   0  0  0  0  0  0  0  0  0  0  0  0
   -0.1509   -4.3362    5.3639 H   0  0  0  0  0  0  0  0  0  0  0  0
   -0.9013   -2.2532    6.2973 H   0  0  0  0  0  0  0  0  0  0  0  0
    0.7670   -2.4467    6.7069 H   0  0  0  0  0  0  0  0  0  0  0  0
   -0.5546   -0.7587    4.5842 H   0  0  0  0  0  0  0  0  0  0  0  0
   -1.0098    1.1145    7.2866 H   0  0  0  0  0  0  0  0  0  0  0  0
    1.3052    1.1445    7.8943 H   0  0  0  0  0  0  0  0  0  0  0  0
    0.9553   -0.5368    8.1058 H   0  0  0  0  0  0  0  0  0  0  0  0
    3.3627    0.2788    7.8257 H   0  0  0  0  0  0  0  0  0  0  0  0
    3.8573   -1.7298    7.1090 H   0  0  0  0  0  0  0  0  0  0  0  0
    3.3870    1.4617    5.8999 H   0  0  0  0  0  0  0  0  0  0  0  0
    4.8900    2.1290    5.8009 H   0  0  0  0  0  0  0  0  0  0  0  0
    6.8945    2.1898    7.8239 H   0  0  0  0  0  0  0  0  0  0  0  0
    6.0096    4.1777    5.6925 H   0  0  0  0  0  0  0  0  0  0  0  0
    5.7154    4.2736    7.4216 H   0  0  0  0  0  0  0  0  0  0  0  0
    7.8141    5.6044    6.3118 H   0  0  0  0  0  0  0  0  0  0  0  0
    7.9979    4.7821    7.8602 H   0  0  0  0  0  0  0  0  0  0  0  0
    9.2238    3.9974    5.2659 H   0  0  0  0  0  0  0  0  0  0  0  0
    9.6583    3.5196    6.9028 H   0  0  0  0  0  0  0  0  0  0  0  0
    8.6902    1.4654    6.3933 H   0  0  0  0  0  0  0  0  0  0  0  0
    7.9369    2.1421    4.9738 H   0  0  0  0  0  0  0  0  0  0  0  0
    2.8917    0.8001    2.2642 H   0  0  0  0  0  0  0  0  0  0  0  0
    4.2176   -0.0079    3.1131 H   0  0  0  0  0  0  0  0  0  0  0  0
    3.8546    1.6902    3.3953 H   0  0  0  0  0  0  0  0  0  0  0  0
    2.1430    2.5496    4.5997 H   0  0  0  0  0  0  0  0  0  0  0  0
    1.1009    1.8267    3.4492 H   0  0  0  0  0  0  0  0  0  0  0  0
    0.6356    2.4169    6.2289 H   0  0  0  0  0  0  0  0  0  0  0  0
   -0.6133    2.7642    4.3166 H   0  0  0  0  0  0  0  0  0  0  0  0
    1.5704   -0.6077    2.2462 H   0  0  0  0  0  0  0  0  0  0  0  0
    3.3310   -7.7428    6.1285 H   0  0  0  0  0  0  0  0  0  0  0  0
    1.8156   -8.3305    6.8123 H   0  0  0  0  0  0  0  0  0  0  0  0
    0.2027   -8.0933    6.2150 H   0  0  0  0  0  0  0  0  0  0  0  0
    1.0841   -6.7385    6.7604 H   0  0  0  0  0  0  0  0  0  0  0  0
   -0.9516   -8.6682    4.4928 H   0  0  0  0  0  0  0  0  0  0  0  0
   -1.2039   -8.0825    2.8776 H   0  0  0  0  0  0  0  0  0  0  0  0
   -0.3670  -10.4450    3.0038 H   0  0  0  0  0  0  0  0  0  0  0  0
    0.5525   -9.4188    1.9782 H   0  0  0  0  0  0  0  0  0  0  0  0
    1.9608  -10.8045    5.8334 H   0  0  0  0  0  0  0  0  0  0  0  0
    0.7437  -11.6818    4.9177 H   0  0  0  0  0  0  0  0  0  0  0  0
    0.3191  -10.1663    5.6503 H   0  0  0  0  0  0  0  0  0  0  0  0
    3.3082  -11.2953    3.6208 H   0  0  0  0  0  0  0  0  0  0  0  0
    2.7020  -10.6807    2.0811 H   0  0  0  0  0  0  0  0  0  0  0  0
    1.8153  -11.9319    2.9290 H   0  0  0  0  0  0  0  0  0  0  0  0
    3.1604   -9.1061    4.9092 H   0  0  0  0  0  0  0  0  0  0  0  0
    4.2146   -8.7714    2.8426 H   0  0  0  0  0  0  0  0  0  0  0  0
    2.4717   -9.0047    1.5921 H   0  0  0  0  0  0  0  0  0  0  0  0
    5.1270   -7.4124    4.6013 H   0  0  0  0  0  0  0  0  0  0  0  0
  1  2  1  0
  1 57  1  0
  1 58  1  0
  1 59  1  0
  2  3  1  0
  3 11  1  0
  3  4  1  0
  3 60  1  1
  4  5  1  0
  5 55  1  0
  5  6  1  6
  5  7  1  0
  6 61  1  0
  6 62  1  0
  6 63  1  0
  7  8  1  0
  7 64  1  0
  7 65  1  0
  8  9  1  0
  8 66  1  0
  8 67  1  0
  9 11  1  0
  9 10  1  0
  9 68  1  1
 11 10  1  6
 11 12  1  0
 12 37  1  0
 12 13  1  0
 12 69  1  1
 13 14  1  0
 13 39  1  0
 13 70  1  6
 14 15  1  0
 14 71  1  0
 14 72  1  0
 15 16  1  0
 15 73  1  0
 15 74  1  0
 16 37  1  0
 16 17  1  0
 16 75  1  6
 17 35  1  0
 17 18  1  1
 17 19  1  0
 18 76  1  0
 19 20  1  0
 19 77  1  0
 19 78  1  0
 20 21  1  0
 20 22  1  0
 20 79  1  1
 21 80  1  0
 22 23  1  0
 22 32  1  0
 22 81  1  1
 23 24  1  0
 24 25  2  0
 24 26  1  0
 26 27  1  0
 26 82  1  0
 27 31  1  0
 27 28  1  0
 27 83  1  0
 28 29  1  0
 28 84  1  0
 28 85  1  0
 29 30  1  0
 29 86  1  0
 29 87  1  0
 30 31  1  0
 30 88  1  0
 30 89  1  0
 31 90  1  0
 31 91  1  0
 32 33  1  6
 32 34  1  0
 32 37  1  0
 33 92  1  0
 33 93  1  0
 33 94  1  0
 34 35  1  0
 34 95  1  0
 34 96  1  0
 35 36  1  0
 35 97  1  1
 36 98  1  0
 37 38  1  6
 38 99  1  0
 39 40  2  0
 39 41  1  6
 41 55  1  0
 41 42  1  1
 41 43  1  0
 42100  1  0
 43 52  1  0
 43 44  1  1
 43 45  1  0
 44101  1  0
 44102  1  0
 44103  1  0
 45 46  2  0
 45 47  1  0
 47 48  1  0
 47104  1  0
 47105  1  0
 48 49  1  0
 48106  1  0
 48107  1  0
 49 50  1  0
 49 51  1  0
 49 52  1  0
 50108  1  0
 50109  1  0
 50110  1  0
 51111  1  0
 51112  1  0
 51113  1  0
 52 53  1  0
 52114  1  1
 53 54  1  0
 53 55  1  0
 53115  1  6
 54116  1  0
 55 56  1  1
 56117  1  0
M  END
>  <i_m_ct_stereo_status>  (73) 
1

>  <s_m_source_file>  (73) 
/var/tmp/pbs.5075288.sched01/tmp228mwnki/64h1usuhcs.sdf

>  <i_m_source_file_index>  (73) 
43

>  <i_lp_mmshare_version>  (73) 
48012

>  <i_f3d_flags>  (73) 
0

>  <s_epik_input>  (73) 
Tz1DMVtDSDJdW0NIMl1DKFtDSDNdKShbQ0gzXSlbQ0BASF0oW0NASF0yW09IXSlbQ0BAXTEoW0NIM10pW0NAQF0oW09IXSkoW0NAXTIoW09IXSlbQ0BAXShbQ0gzXSkoW0NIMl1bQ0gyXVtDQEhdKE8zKVtDQF0zNDUpT1tDQEhdNE9bQ0gzXSlbUytdKFtPLV0pW0NAQEhdNltDQEBIXTVbQ0BAXTcoW09IXSlbQ0BASF0oW0NIMl1bQ0gyXTYpW0NAQF04KFtPSF0pW0NIMl1bQ0BASF0oW09IXSlbQ0BIXShbQ0BdNyhbQ0gzXSlbQ0gyXVtDQEhdOFtPSF0pT0MoPU8pW05IXVtDSF05W0NIMl1bQ0gyXVtDSDJdW0NIMl05

>  <s_epik_cmdline>  (73) 
J2VwaWtfcHl0aG9uJywgJy1waHQnLCAnMi4wJywgJy1waCcsICc3LjAnLCAnLXRuJywgJzgnLCAnLW1hJywgJzIwMCcsICctaW1hZScsICc8aW5maWxlLm1hZT4nLCAnLW9tYWUnLCAnPG91dGZpbGUubWFlPic=

>  <r_lp_tautomer_probability>  (73) 
1

>  <r_epik_Ionization_Penalty>  (73) 
8.46737e-06

>  <r_epik_Ionization_Penalty_Charging>  (73) 
0

>  <r_epik_Ionization_Penalty_Neutral>  (73) 
8.46737e-06

>  <r_epik_State_Penalty>  (73) 
-0

>  <r_epik_Charging_Adjusted_Penalty>  (73) 
0

>  <i_epik_Tot_Q>  (73) 
0

>  <i_epik_Tot_abs_Q>  (73) 
2

>  <s_epik_Chemistry_Notes>  (73) 
This compound has an ester and may undergo hydrolysis at high or low pH. This compound contains an acetal/aminal-like group ( X-CH(R)-Y where X, Y are N, S, or O) that may be acid/base labile, releasing an aldehyde.

>  <s_lp_Force_Field>  (73) 
OPLS3e

>  <r_lp_Energy>  (73) 
183.322

>  <b_lp_Chiralities_Consistent>  (73) 
1

>  <s_lp_Variant>  (73) 
48:0-1

>  <s_i_glide_gridfile>  (73) 
pfpi4k_grid

>  <i_i_glide_lignum>  (73) 
43

>  <i_i_glide_rotatable_bonds>  (73) 
12

>  <r_i_docking_score>  (73) 
-4.00272

>  <r_i_glide_ligand_efficiency>  (73) 
-0.0714771

>  <r_i_glide_ligand_efficiency_sa>  (73) 
-0.273462

>  <r_i_glide_ligand_efficiency_ln>  (73) 
-0.796505

>  <r_i_glide_gscore>  (73) 
-4.00272

>  <r_i_glide_lipo>  (73) 
-0.335378

>  <r_i_glide_hbond>  (73) 
-0.0720149

>  <r_i_glide_metal>  (73) 
-0

>  <r_i_glide_rewards>  (73) 
-1.10241

>  <r_i_glide_evdw>  (73) 
-33.4247

>  <r_i_glide_ecoul>  (73) 
-5.95785

>  <r_i_glide_erotb>  (73) 
0.0992568

>  <r_i_glide_esite>  (73) 
-0.027262

>  <r_i_glide_emodel>  (73) 
-54.0825

>  <r_i_glide_energy>  (73) 
-39.3825

>  <r_i_glide_einternal>  (73) 
8.40912

>  <r_i_glide_intrahb_reward>  (73) 
-1

>  <i_i_glide_confnum>  (73) 
1

>  <i_i_glide_posenum>  (73) 
10

>  <r_i_glide_eff_state_penalty>  (73) 
0

>  <ligand_id>  (73) 
48

>  <original_smiles>  (73) 
COC1OC2(C)CCC3OC31C1C(CCC3C4(O)CC(O)C(OC(=O)NC5CCCC5)C(C)(CC4O)C31O)[S+]([O-])C1(O)C3(C)C(=O)CCC(C)(C)C3C(O)C21O

>  <smiles>  (73) 
[H]OC1([H])C([H])([H])C2(O[H])C([H])(O[H])C([H])([H])C(C([H])([H])[H])(C1([H])OC(=O)N([H])C1([H])C([H])([H])C([H])([H])C([H])([H])C1([H])[H])C1(O[H])C3([H])C([H])(S(=O)C4(O[H])C(O[H])(C([H])(O[H])C5([H])C4(C([H])([H])[H])C(=O)C([H])([H])C([H])([H])C5(C([H])([H])[H])C([H])([H])[H])C4(C([H])([H])[H])OC([H])(OC([H])([H])[H])C35OC5([H])C([H])([H])C4([H])[H])C([H])([H])C([H])([H])C21[H]

$$$$
48:0:1
     RDKit          3D

117125  0  0  1  0  0  0  0  0999 V2000
    6.9584   -3.6419    6.7627 C   0  0  0  0  0  0  0  0  0  0  0  0
    6.0870   -3.1300    5.7578 O   0  0  0  0  0  0  0  0  0  0  0  0
    5.1065   -4.0165    5.3065 C   0  0  2  0  0  0  0  0  0  0  0  0
    5.6995   -5.1281    4.6871 O   0  0  0  0  0  0  0  0  0  0  0  0
    5.0971   -6.2227    3.9485 C   0  0  2  0  0  0  0  0  0  0  0  0
    6.4602   -6.8820    3.5476 C   0  0  0  0  0  0  0  0  0  0  0  0
    4.5410   -5.7128    2.5895 C   0  0  0  0  0  0  0  0  0  0  0  0
    5.0575   -4.3266    2.1807 C   0  0  0  0  0  0  0  0  0  0  0  0
    4.2388   -3.2779    2.8576 C   0  0  2  0  0  0  0  0  0  0  0  0
    4.9026   -2.2347    3.5344 O   0  0  0  0  0  0  0  0  0  0  0  0
    4.2016   -3.1762    4.3777 C   0  0  2  0  0  0  0  0  0  0  0  0
    2.8154   -2.8790    5.0174 C   0  0  2  0  0  0  0  0  0  0  0  0
    1.9382   -4.1133    4.6404 C   0  0  2  0  0  0  0  0  0  0  0  0
    0.4339   -3.8627    4.4956 C   0  0  0  0  0  0  0  0  0  0  0  0
   -0.0857   -2.7970    5.4423 C   0  0  0  0  0  0  0  0  0  0  0  0
    0.5496   -1.4222    5.1558 C   0  0  1  0  0  0  0  0  0  0  0  0
    0.0467   -0.3287    6.1498 C   0  0  1  0  0  0  0  0  0  0  0  0
   -1.3739   -0.2641    6.0718 O   0  0  0  0  0  0  0  0  0  0  0  0
    0.3080   -0.6096    7.6400 C   0  0  0  0  0  0  0  0  0  0  0  0
    1.7038   -1.0914    8.0428 C   0  0  1  0  0  0  0  0  0  0  0  0
    1.7166   -2.5041    8.1396 O   0  0  0  0  0  0  0  0  0  0  0  0
    2.8861   -0.4933    7.2510 C   0  0  1  0  0  0  0  0  0  0  0  0
    4.0435   -1.1972    7.7380 O   0  0  0  0  0  0  0  0  0  0  0  0
    5.2097   -0.6056    8.0580 C   0  0  0  0  0  0  0  0  0  0  0  0
    6.1372   -1.2453    8.5881 O   0  0  0  0  0  0  0  0  0  0  0  0
    5.2503    0.7105    7.6849 N   0  0  0  0  0  0  0  0  0  0  0  0
    6.3412    1.6328    7.6816 C   0  0  0  0  0  0  0  0  0  0  0  0
    7.5179    1.1572    6.8260 C   0  0  0  0  0  0  0  0  0  0  0  0
    8.7124    1.9124    7.3978 C   0  0  0  0  0  0  0  0  0  0  0  0
    8.3889    2.1937    8.8821 C   0  0  0  0  0  0  0  0  0  0  0  0
    6.8997    1.8838    9.0919 C   0  0  0  0  0  0  0  0  0  0  0  0
    2.8346   -0.2725    5.6770 C   0  0  2  0  0  0  0  0  0  0  0  0
    4.2469    0.0712    5.0857 C   0  0  0  0  0  0  0  0  0  0  0  0
    2.0746    1.0741    5.4374 C   0  0  0  0  0  0  0  0  0  0  0  0
    0.5718    1.0753    5.7671 C   0  0  1  0  0  0  0  0  0  0  0  0
   -0.1561    1.6096    4.6672 O   0  0  0  0  0  0  0  0  0  0  0  0
    2.1154   -1.4419    4.8671 C   0  0  1  0  0  0  0  0  0  0  0  0
    2.1884   -1.0657    3.5012 O   0  0  0  0  0  0  0  0  0  0  0  0
    2.2355   -5.3789    5.9730 S   0  0  0  0  0  0  0  0  0  0  0  0
    1.0202   -5.3898    6.9333 O   0  0  0  0  0  0  0  0  0  0  0  0
    2.7557   -7.1107    5.4526 C   0  0  1  0  0  0  0  0  0  0  0  0
    2.8917   -7.7981    6.7099 O   0  0  0  0  0  0  0  0  0  0  0  0
    1.6536   -8.0032    4.7088 C   0  0  1  0  0  0  0  0  0  0  0  0
    0.4182   -8.2842    5.6248 C   0  0  0  0  0  0  0  0  0  0  0  0
    1.0693   -7.5529    3.3378 C   0  0  0  0  0  0  0  0  0  0  0  0
    1.1047   -6.3973    2.9288 O   0  0  0  0  0  0  0  0  0  0  0  0
    0.3705   -8.6201    2.4804 C   0  0  0  0  0  0  0  0  0  0  0  0
    1.2457   -9.8599    2.2487 C   0  0  0  0  0  0  0  0  0  0  0  0
    1.8832  -10.4251    3.5401 C   0  0  0  0  0  0  0  0  0  0  0  0
    0.7801  -11.1881    4.3152 C   0  0  0  0  0  0  0  0  0  0  0  0
    2.9342  -11.4842    3.1537 C   0  0  0  0  0  0  0  0  0  0  0  0
    2.5287   -9.2734    4.4120 C   0  0  1  0  0  0  0  0  0  0  0  0
    3.9155   -8.6867    3.9695 C   0  0  1  0  0  0  0  0  0  0  0  0
    3.9204   -8.5180    2.5737 O   0  0  0  0  0  0  0  0  0  0  0  0
    4.2008   -7.3294    4.7476 C   0  0  1  0  0  0  0  0  0  0  0  0
    5.1425   -7.7456    5.7439 O   0  0  0  0  0  0  0  0  0  0  0  0
    7.6592   -2.8654    7.0516 H   0  0  0  0  0  0  0  0  0  0  0  0
    7.5482   -4.5021    6.4400 H   0  0  0  0  0  0  0  0  0  0  0  0
    6.3870   -3.9124    7.6453 H   0  0  0  0  0  0  0  0  0  0  0  0
    4.6165   -4.3432    6.2261 H   0  0  0  0  0  0  0  0  0  0  0  0
    6.3476   -7.7835    2.9474 H   0  0  0  0  0  0  0  0  0  0  0  0
    7.0773   -7.1435    4.4048 H   0  0  0  0  0  0  0  0  0  0  0  0
    7.0615   -6.1976    2.9579 H   0  0  0  0  0  0  0  0  0  0  0  0
    4.8303   -6.3919    1.7901 H   0  0  0  0  0  0  0  0  0  0  0  0
    3.4608   -5.7402    2.5721 H   0  0  0  0  0  0  0  0  0  0  0  0
    6.1191   -4.1875    2.4135 H   0  0  0  0  0  0  0  0  0  0  0  0
    4.9441   -4.1939    1.0976 H   0  0  0  0  0  0  0  0  0  0  0  0
    3.3631   -2.9708    2.2949 H   0  0  0  0  0  0  0  0  0  0  0  0
    3.0062   -2.9497    6.0813 H   0  0  0  0  0  0  0  0  0  0  0  0
    2.2585   -4.5193    3.6974 H   0  0  0  0  0  0  0  0  0  0  0  0
    0.2235   -3.5490    3.4754 H   0  0  0  0  0  0  0  0  0  0  0  0
   -0.1176   -4.7912    4.6501 H   0  0  0  0  0  0  0  0  0  0  0  0
   -1.1641   -2.7109    5.2996 H   0  0  0  0  0  0  0  0  0  0  0  0
    0.0392   -3.1187    6.4736 H   0  0  0  0  0  0  0  0  0  0  0  0
    0.0728   -1.1343    4.2103 H   0  0  0  0  0  0  0  0  0  0  0  0
   -1.5802    0.1248    5.2305 H   0  0  0  0  0  0  0  0  0  0  0  0
    0.0746    0.2903    8.2107 H   0  0  0  0  0  0  0  0  0  0  0  0
   -0.4051   -1.3409    8.0079 H   0  0  0  0  0  0  0  0  0  0  0  0
    1.8444   -0.7765    9.0828 H   0  0  0  0  0  0  0  0  0  0  0  0
    1.7192   -2.8774    7.2731 H   0  0  0  0  0  0  0  0  0  0  0  0
    2.8715    0.5070    7.6759 H   0  0  0  0  0  0  0  0  0  0  0  0
    4.3406    1.0803    7.2919 H   0  0  0  0  0  0  0  0  0  0  0  0
    6.0087    2.5935    7.2835 H   0  0  0  0  0  0  0  0  0  0  0  0
    7.6909    0.0841    6.9344 H   0  0  0  0  0  0  0  0  0  0  0  0
    7.3685    1.3354    5.7602 H   0  0  0  0  0  0  0  0  0  0  0  0
    9.6403    1.3531    7.2679 H   0  0  0  0  0  0  0  0  0  0  0  0
    8.8171    2.8576    6.8664 H   0  0  0  0  0  0  0  0  0  0  0  0
    8.9798    1.5475    9.5376 H   0  0  0  0  0  0  0  0  0  0  0  0
    8.5815    3.2371    9.1339 H   0  0  0  0  0  0  0  0  0  0  0  0
    6.3430    2.6624    9.6277 H   0  0  0  0  0  0  0  0  0  0  0  0
    6.8573    0.9778    9.6935 H   0  0  0  0  0  0  0  0  0  0  0  0
    4.2414    0.1282    3.9814 H   0  0  0  0  0  0  0  0  0  0  0  0
    4.9698   -0.6972    5.3419 H   0  0  0  0  0  0  0  0  0  0  0  0
    4.6344    0.9896    5.5050 H   0  0  0  0  0  0  0  0  0  0  0  0
    2.5481    1.8629    6.0212 H   0  0  0  0  0  0  0  0  0  0  0  0
    2.2191    1.3935    4.4067 H   0  0  0  0  0  0  0  0  0  0  0  0
    0.4015    1.7631    6.6003 H   0  0  0  0  0  0  0  0  0  0  0  0
    0.1551    1.2073    3.8690 H   0  0  0  0  0  0  0  0  0  0  0  0
    1.7625   -1.7188    2.9747 H   0  0  0  0  0  0  0  0  0  0  0  0
    2.5134   -8.6579    6.6224 H   0  0  0  0  0  0  0  0  0  0  0  0
    0.6124   -9.0594    6.3669 H   0  0  0  0  0  0  0  0  0  0  0  0
   -0.4642   -8.6119    5.0772 H   0  0  0  0  0  0  0  0  0  0  0  0
    0.0842   -7.3974    6.1551 H   0  0  0  0  0  0  0  0  0  0  0  0
   -0.5581   -8.9104    2.9615 H   0  0  0  0  0  0  0  0  0  0  0  0
    0.0845   -8.1938    1.5174 H   0  0  0  0  0  0  0  0  0  0  0  0
    0.6168  -10.6221    1.7809 H   0  0  0  0  0  0  0  0  0  0  0  0
    2.0013   -9.6131    1.4953 H   0  0  0  0  0  0  0  0  0  0  0  0
    1.0982  -11.4526    5.3250 H   0  0  0  0  0  0  0  0  0  0  0  0
    0.5111  -12.1192    3.8193 H   0  0  0  0  0  0  0  0  0  0  0  0
   -0.1465  -10.6274    4.3959 H   0  0  0  0  0  0  0  0  0  0  0  0
    3.4196  -11.9079    4.0350 H   0  0  0  0  0  0  0  0  0  0  0  0
    3.7091  -11.0957    2.4975 H   0  0  0  0  0  0  0  0  0  0  0  0
    2.4796  -12.3060    2.6079 H   0  0  0  0  0  0  0  0  0  0  0  0
    2.7159   -9.7804    5.3598 H   0  0  0  0  0  0  0  0  0  0  0  0
    4.6949   -9.4260    4.1769 H   0  0  0  0  0  0  0  0  0  0  0  0
    3.8367   -9.3693    2.1717 H   0  0  0  0  0  0  0  0  0  0  0  0
    4.7144   -8.4146    6.2554 H   0  0  0  0  0  0  0  0  0  0  0  0
  1  2  1  0
  1 57  1  0
  1 58  1  0
  1 59  1  0
  2  3  1  0
  3 11  1  0
  3  4  1  0
  3 60  1  1
  4  5  1  0
  5 55  1  0
  5  6  1  6
  5  7  1  0
  6 61  1  0
  6 62  1  0
  6 63  1  0
  7  8  1  0
  7 64  1  0
  7 65  1  0
  8  9  1  0
  8 66  1  0
  8 67  1  0
  9 11  1  0
  9 10  1  0
  9 68  1  6
 11 10  1  6
 11 12  1  0
 12 37  1  0
 12 13  1  0
 12 69  1  1
 13 14  1  0
 13 39  1  0
 13 70  1  6
 14 15  1  0
 14 71  1  0
 14 72  1  0
 15 16  1  0
 15 73  1  0
 15 74  1  0
 16 37  1  0
 16 17  1  0
 16 75  1  6
 17 35  1  0
 17 18  1  1
 17 19  1  0
 18 76  1  0
 19 20  1  0
 19 77  1  0
 19 78  1  0
 20 21  1  0
 20 22  1  0
 20 79  1  1
 21 80  1  0
 22 23  1  0
 22 32  1  0
 22 81  1  1
 23 24  1  0
 24 25  2  0
 24 26  1  0
 26 27  1  0
 26 82  1  0
 27 31  1  0
 27 28  1  0
 27 83  1  0
 28 29  1  0
 28 84  1  0
 28 85  1  0
 29 30  1  0
 29 86  1  0
 29 87  1  0
 30 31  1  0
 30 88  1  0
 30 89  1  0
 31 90  1  0
 31 91  1  0
 32 33  1  6
 32 34  1  0
 32 37  1  0
 33 92  1  0
 33 93  1  0
 33 94  1  0
 34 35  1  0
 34 95  1  0
 34 96  1  0
 35 36  1  0
 35 97  1  1
 36 98  1  0
 37 38  1  6
 38 99  1  0
 39 40  2  0
 39 41  1  6
 41 55  1  0
 41 42  1  1
 41 43  1  0
 42100  1  0
 43 52  1  0
 43 44  1  1
 43 45  1  0
 44101  1  0
 44102  1  0
 44103  1  0
 45 46  2  0
 45 47  1  0
 47 48  1  0
 47104  1  0
 47105  1  0
 48 49  1  0
 48106  1  0
 48107  1  0
 49 50  1  0
 49 51  1  0
 49 52  1  0
 50108  1  0
 50109  1  0
 50110  1  0
 51111  1  0
 51112  1  0
 51113  1  0
 52 53  1  0
 52114  1  1
 53 54  1  0
 53 55  1  0
 53115  1  6
 54116  1  0
 55 56  1  1
 56117  1  0
M  END
>  <i_m_ct_stereo_status>  (74) 
1

>  <s_m_source_file>  (74) 
/var/tmp/pbs.5075288.sched01/tmp228mwnki/64h1usuhcs.sdf

>  <i_m_source_file_index>  (74) 
43

>  <i_lp_mmshare_version>  (74) 
48012

>  <i_f3d_flags>  (74) 
0

>  <s_epik_input>  (74) 
Tz1DMVtDSDJdW0NIMl1DKFtDSDNdKShbQ0gzXSlbQ0BASF0oW0NASF0yW09IXSlbQ0BAXTEoW0NIM10pW0NAQF0oW09IXSkoW0NAXTIoW09IXSlbQ0BAXShbQ0gzXSkoW0NIMl1bQ0gyXVtDQEhdKE8zKVtDQF0zNDUpT1tDQEhdNE9bQ0gzXSlbUytdKFtPLV0pW0NAQEhdNltDQEBIXTVbQ0BAXTcoW09IXSlbQ0BASF0oW0NIMl1bQ0gyXTYpW0NAQF04KFtPSF0pW0NIMl1bQ0BASF0oW09IXSlbQ0BIXShbQ0BdNyhbQ0gzXSlbQ0gyXVtDQEhdOFtPSF0pT0MoPU8pW05IXVtDSF05W0NIMl1bQ0gyXVtDSDJdW0NIMl05

>  <s_epik_cmdline>  (74) 
J2VwaWtfcHl0aG9uJywgJy1waHQnLCAnMi4wJywgJy1waCcsICc3LjAnLCAnLXRuJywgJzgnLCAnLW1hJywgJzIwMCcsICctaW1hZScsICc8aW5maWxlLm1hZT4nLCAnLW9tYWUnLCAnPG91dGZpbGUubWFlPic=

>  <r_lp_tautomer_probability>  (74) 
1

>  <r_epik_Ionization_Penalty>  (74) 
8.46737e-06

>  <r_epik_Ionization_Penalty_Charging>  (74) 
0

>  <r_epik_Ionization_Penalty_Neutral>  (74) 
8.46737e-06

>  <r_epik_State_Penalty>  (74) 
-0

>  <r_epik_Charging_Adjusted_Penalty>  (74) 
0

>  <i_epik_Tot_Q>  (74) 
0

>  <i_epik_Tot_abs_Q>  (74) 
2

>  <s_epik_Chemistry_Notes>  (74) 
This compound has an ester and may undergo hydrolysis at high or low pH. This compound contains an acetal/aminal-like group ( X-CH(R)-Y where X, Y are N, S, or O) that may be acid/base labile, releasing an aldehyde.

>  <s_lp_Force_Field>  (74) 
OPLS3e

>  <r_lp_Energy>  (74) 
183.322

>  <b_lp_Chiralities_Consistent>  (74) 
1

>  <s_lp_Variant>  (74) 
48:0-1

>  <s_i_glide_gridfile>  (74) 
pfpi4k_grid

>  <i_i_glide_lignum>  (74) 
43

>  <i_i_glide_rotatable_bonds>  (74) 
12

>  <r_i_docking_score>  (74) 
-2.95536

>  <r_i_glide_ligand_efficiency>  (74) 
-0.0527744

>  <r_i_glide_ligand_efficiency_sa>  (74) 
-0.201907

>  <r_i_glide_ligand_efficiency_ln>  (74) 
-0.588091

>  <r_i_glide_gscore>  (74) 
-2.95536

>  <r_i_glide_lipo>  (74) 
-0.365611

>  <r_i_glide_hbond>  (74) 
0

>  <r_i_glide_metal>  (74) 
-0

>  <r_i_glide_rewards>  (74) 
-0.00794693

>  <r_i_glide_evdw>  (74) 
-29.4233

>  <r_i_glide_ecoul>  (74) 
-7.94146

>  <r_i_glide_erotb>  (74) 
0.0992568

>  <r_i_glide_esite>  (74) 
-0.0186807

>  <r_i_glide_emodel>  (74) 
-40.2658

>  <r_i_glide_energy>  (74) 
-37.3647

>  <r_i_glide_einternal>  (74) 
6.32923

>  <r_i_glide_intrahb_reward>  (74) 
-0

>  <i_i_glide_confnum>  (74) 
1

>  <i_i_glide_posenum>  (74) 
39

>  <r_i_glide_eff_state_penalty>  (74) 
0

>  <ligand_id>  (74) 
48

>  <original_smiles>  (74) 
COC1OC2(C)CCC3OC31C1C(CCC3C4(O)CC(O)C(OC(=O)NC5CCCC5)C(C)(CC4O)C31O)[S+]([O-])C1(O)C3(C)C(=O)CCC(C)(C)C3C(O)C21O

>  <smiles>  (74) 
[H]OC1([H])C([H])([H])C2(O[H])C([H])(O[H])C([H])([H])C(C([H])([H])[H])(C1([H])OC(=O)N([H])C1([H])C([H])([H])C([H])([H])C([H])([H])C1([H])[H])C1(O[H])C3([H])C([H])(S(=O)C4(O[H])C(O[H])(C([H])(O[H])C5([H])C4(C([H])([H])[H])C(=O)C([H])([H])C([H])([H])C5(C([H])([H])[H])C([H])([H])[H])C4(C([H])([H])[H])OC([H])(OC([H])([H])[H])C35OC5([H])C([H])([H])C4([H])[H])C([H])([H])C([H])([H])C21[H]

$$$$
48:1:0
     RDKit          3D

117125  0  0  1  0  0  0  0  0999 V2000
    7.7694   -5.0155    1.1462 C   0  0  0  0  0  0  0  0  0  0  0  0
    6.9726   -4.6728    2.2809 O   0  0  0  0  0  0  0  0  0  0  0  0
    5.8184   -5.3940    2.5499 C   0  0  2  0  0  0  0  0  0  0  0  0
    6.0519   -6.7128    2.1700 O   0  0  0  0  0  0  0  0  0  0  0  0
    5.1506   -7.8075    2.0243 C   0  0  2  0  0  0  0  0  0  0  0  0
    6.2302   -8.8892    1.7046 C   0  0  0  0  0  0  0  0  0  0  0  0
    4.3712   -7.6399    0.6830 C   0  0  0  0  0  0  0  0  0  0  0  0
    4.6935   -6.3664   -0.1213 C   0  0  0  0  0  0  0  0  0  0  0  0
    4.0951   -5.1449    0.5154 C   0  0  2  0  0  0  0  0  0  0  0  0
    4.9156   -4.0054    0.6267 O   0  0  0  0  0  0  0  0  0  0  0  0
    4.6238   -4.6765    1.8671 C   0  0  2  0  0  0  0  0  0  0  0  0
    3.6778   -3.9437    2.8817 C   0  0  2  0  0  0  0  0  0  0  0  0
    2.2792   -4.6416    2.9584 C   0  0  2  0  0  0  0  0  0  0  0  0
    1.4861   -4.2311    4.2021 C   0  0  0  0  0  0  0  0  0  0  0  0
    1.6360   -2.7521    4.5356 C   0  0  0  0  0  0  0  0  0  0  0  0
    2.0447   -1.8860    3.3288 C   0  0  1  0  0  0  0  0  0  0  0  0
    1.9545   -0.3534    3.6424 C   0  0  1  0  0  0  0  0  0  0  0  0
    0.5886    0.0006    3.6096 O   0  0  0  0  0  0  0  0  0  0  0  0
    2.4143    0.0308    5.0646 C   0  0  0  0  0  0  0  0  0  0  0  0
    3.9275    0.0461    5.2773 C   0  0  1  0  0  0  0  0  0  0  0  0
    4.1942    0.1546    6.6580 O   0  0  0  0  0  0  0  0  0  0  0  0
    4.7772   -1.0506    4.5611 C   0  0  1  0  0  0  0  0  0  0  0  0
    4.7309   -2.2784    5.2782 O   0  0  0  0  0  0  0  0  0  0  0  0
    5.6741   -2.5639    6.1821 C   0  0  0  0  0  0  0  0  0  0  0  0
    6.5762   -1.7913    6.5053 O   0  0  0  0  0  0  0  0  0  0  0  0
    5.4484   -3.8297    6.6868 N   0  0  0  0  0  0  0  0  0  0  0  0
    6.2750   -4.4730    7.7195 C   0  0  0  0  0  0  0  0  0  0  0  0
    6.2829   -3.7060    9.0675 C   0  0  0  0  0  0  0  0  0  0  0  0
    7.7506   -3.6412    9.5053 C   0  0  0  0  0  0  0  0  0  0  0  0
    8.5708   -3.7180    8.2169 C   0  0  0  0  0  0  0  0  0  0  0  0
    7.7563   -4.6439    7.3029 C   0  0  0  0  0  0  0  0  0  0  0  0
    4.5135   -1.2886    3.0236 C   0  0  2  0  0  0  0  0  0  0  0  0
    5.8622   -1.6585    2.4056 C   0  0  0  0  0  0  0  0  0  0  0  0
    4.1357    0.0764    2.3847 C   0  0  0  0  0  0  0  0  0  0  0  0
    2.6757    0.5259    2.5961 C   0  0  1  0  0  0  0  0  0  0  0  0
    1.9595    0.5252    1.3758 O   0  0  0  0  0  0  0  0  0  0  0  0
    3.3976   -2.3566    2.6750 C   0  0  1  0  0  0  0  0  0  0  0  0
    3.1339   -2.2063    1.2932 O   0  0  0  0  0  0  0  0  0  0  0  0
    2.2197   -6.5011    2.7972 S   0  0  0  0  0  0  0  0  0  0  0  0
    0.7490   -6.9290    2.7831 O   0  0  0  0  0  0  0  0  0  0  0  0
    3.3023   -7.3068    4.1137 C   0  0  1  0  0  0  0  0  0  0  0  0
    3.9612   -6.3469    4.9306 O   0  0  0  0  0  0  0  0  0  0  0  0
    2.5245   -8.3193    5.0871 C   0  0  1  0  0  0  0  0  0  0  0  0
    3.2127   -8.3717    6.4991 C   0  0  0  0  0  0  0  0  0  0  0  0
    1.0497   -7.9851    5.4751 C   0  0  0  0  0  0  0  0  0  0  0  0
    0.6654   -6.8246    5.6031 O   0  0  0  0  0  0  0  0  0  0  0  0
    0.0920   -9.1102    5.8915 C   0  0  0  0  0  0  0  0  0  0  0  0
    0.6678  -10.4916    5.6424 C   0  0  0  0  0  0  0  0  0  0  0  0
    1.4047  -10.6084    4.2993 C   0  0  0  0  0  0  0  0  0  0  0  0
    1.7845  -12.0723    4.1183 C   0  0  0  0  0  0  0  0  0  0  0  0
    0.4016  -10.2617    3.1751 C   0  0  0  0  0  0  0  0  0  0  0  0
    2.6846   -9.7236    4.4219 C   0  0  1  0  0  0  0  0  0  0  0  0
    3.6681   -9.6246    3.2358 C   0  0  1  0  0  0  0  0  0  0  0  0
    3.0307   -9.8244    1.9935 O   0  0  0  0  0  0  0  0  0  0  0  0
    4.3604   -8.2292    3.3529 C   0  0  1  0  0  0  0  0  0  0  0  0
    5.4069   -8.4854    4.2889 O   0  0  0  0  0  0  0  0  0  0  0  0
    8.6807   -4.4215    1.1660 H   0  0  0  0  0  0  0  0  0  0  0  0
    7.2700   -4.7625    0.2138 H   0  0  0  0  0  0  0  0  0  0  0  0
    8.0897   -6.0623    1.1047 H   0  0  0  0  0  0  0  0  0  0  0  0
    5.7562   -5.3736    3.6351 H   0  0  0  0  0  0  0  0  0  0  0  0
    5.8044   -9.8738    1.4997 H   0  0  0  0  0  0  0  0  0  0  0  0
    6.9758   -9.0020    2.4919 H   0  0  0  0  0  0  0  0  0  0  0  0
    6.8023   -8.6100    0.8270 H   0  0  0  0  0  0  0  0  0  0  0  0
    4.5855   -8.4867    0.0361 H   0  0  0  0  0  0  0  0  0  0  0  0
    3.3052   -7.6930    0.8117 H   0  0  0  0  0  0  0  0  0  0  0  0
    5.7723   -6.2347   -0.2594 H   0  0  0  0  0  0  0  0  0  0  0  0
    4.3077   -6.4690   -1.1018 H   0  0  0  0  0  0  0  0  0  0  0  0
    3.0857   -4.9200    0.2152 H   0  0  0  0  0  0  0  0  0  0  0  0
    4.1249   -4.0751    3.8680 H   0  0  0  0  0  0  0  0  0  0  0  0
    1.7202   -4.3004    2.0953 H   0  0  0  0  0  0  0  0  0  0  0  0
    0.4313   -4.4674    4.0502 H   0  0  0  0  0  0  0  0  0  0  0  0
    1.8271   -4.7915    5.0715 H   0  0  0  0  0  0  0  0  0  0  0  0
    0.7134   -2.3805    4.9877 H   0  0  0  0  0  0  0  0  0  0  0  0
    2.3902   -2.6929    5.3054 H   0  0  0  0  0  0  0  0  0  0  0  0
    1.2643   -2.0707    2.5895 H   0  0  0  0  0  0  0  0  0  0  0  0
    0.3768    0.1293    2.6890 H   0  0  0  0  0  0  0  0  0  0  0  0
    2.0798    1.0495    5.2590 H   0  0  0  0  0  0  0  0  0  0  0  0
    1.9053   -0.5604    5.8267 H   0  0  0  0  0  0  0  0  0  0  0  0
    4.2789    1.0081    4.9205 H   0  0  0  0  0  0  0  0  0  0  0  0
    3.8846   -0.6368    7.0820 H   0  0  0  0  0  0  0  0  0  0  0  0
    5.7994   -0.6655    4.6211 H   0  0  0  0  0  0  0  0  0  0  0  0
    4.6616   -4.3223    6.2846 H   0  0  0  0  0  0  0  0  0  0  0  0
    5.8771   -5.4716    7.8960 H   0  0  0  0  0  0  0  0  0  0  0  0
    5.9087   -2.6851    8.9766 H   0  0  0  0  0  0  0  0  0  0  0  0
    5.6482   -4.1812    9.8205 H   0  0  0  0  0  0  0  0  0  0  0  0
    7.9609   -2.7388   10.0796 H   0  0  0  0  0  0  0  0  0  0  0  0
    7.9789   -4.5038   10.1310 H   0  0  0  0  0  0  0  0  0  0  0  0
    8.6260   -2.7287    7.7721 H   0  0  0  0  0  0  0  0  0  0  0  0
    9.6029   -4.0501    8.3734 H   0  0  0  0  0  0  0  0  0  0  0  0
    8.0778   -5.6761    7.4724 H   0  0  0  0  0  0  0  0  0  0  0  0
    7.9240   -4.4482    6.2443 H   0  0  0  0  0  0  0  0  0  0  0  0
    5.8289   -1.8354    1.3315 H   0  0  0  0  0  0  0  0  0  0  0  0
    6.1944   -2.5660    2.8922 H   0  0  0  0  0  0  0  0  0  0  0  0
    6.6039   -0.8686    2.5659 H   0  0  0  0  0  0  0  0  0  0  0  0
    4.7842    0.7983    2.8672 H   0  0  0  0  0  0  0  0  0  0  0  0
    4.3874    0.1069    1.3191 H   0  0  0  0  0  0  0  0  0  0  0  0
    2.7029    1.5659    2.9279 H   0  0  0  0  0  0  0  0  0  0  0  0
    1.9523   -0.3552    1.0011 H   0  0  0  0  0  0  0  0  0  0  0  0
    3.8980   -2.5084    0.8140 H   0  0  0  0  0  0  0  0  0  0  0  0
    3.8481   -6.6204    5.8364 H   0  0  0  0  0  0  0  0  0  0  0  0
    4.2688   -8.6363    6.4813 H   0  0  0  0  0  0  0  0  0  0  0  0
    2.7444   -9.1091    7.1453 H   0  0  0  0  0  0  0  0  0  0  0  0
    3.1174   -7.4310    7.0415 H   0  0  0  0  0  0  0  0  0  0  0  0
   -0.1190   -9.0299    6.9531 H   0  0  0  0  0  0  0  0  0  0  0  0
   -0.8505   -9.0152    5.3619 H   0  0  0  0  0  0  0  0  0  0  0  0
    1.3965  -10.6368    6.4309 H   0  0  0  0  0  0  0  0  0  0  0  0
   -0.0857  -11.2779    5.7665 H   0  0  0  0  0  0  0  0  0  0  0  0
    2.2854  -12.2307    3.1643 H   0  0  0  0  0  0  0  0  0  0  0  0
    0.8459  -12.6227    4.1201 H   0  0  0  0  0  0  0  0  0  0  0  0
    2.4087  -12.4853    4.9141 H   0  0  0  0  0  0  0  0  0  0  0  0
    0.7163  -10.6027    2.1866 H   0  0  0  0  0  0  0  0  0  0  0  0
    0.1903   -9.2023    3.1294 H   0  0  0  0  0  0  0  0  0  0  0  0
   -0.5536  -10.7337    3.3940 H   0  0  0  0  0  0  0  0  0  0  0  0
    3.2813  -10.2891    5.1302 H   0  0  0  0  0  0  0  0  0  0  0  0
    4.4082  -10.4347    3.3052 H   0  0  0  0  0  0  0  0  0  0  0  0
    3.4089  -10.5928    1.5712 H   0  0  0  0  0  0  0  0  0  0  0  0
    5.0308   -8.8778    5.0682 H   0  0  0  0  0  0  0  0  0  0  0  0
  1  2  1  0
  1 57  1  0
  1 58  1  0
  1 59  1  0
  2  3  1  0
  3 11  1  0
  3  4  1  0
  3 60  1  1
  4  5  1  0
  5 55  1  0
  5  6  1  6
  5  7  1  0
  6 61  1  0
  6 62  1  0
  6 63  1  0
  7  8  1  0
  7 64  1  0
  7 65  1  0
  8  9  1  0
  8 66  1  0
  8 67  1  0
  9 11  1  0
  9 10  1  0
  9 68  1  1
 11 10  1  6
 11 12  1  0
 12 37  1  0
 12 13  1  0
 12 69  1  1
 13 14  1  0
 13 39  1  0
 13 70  1  6
 14 15  1  0
 14 71  1  0
 14 72  1  0
 15 16  1  0
 15 73  1  0
 15 74  1  0
 16 37  1  0
 16 17  1  0
 16 75  1  6
 17 35  1  0
 17 18  1  1
 17 19  1  0
 18 76  1  0
 19 20  1  0
 19 77  1  0
 19 78  1  0
 20 21  1  0
 20 22  1  0
 20 79  1  6
 21 80  1  0
 22 23  1  0
 22 32  1  0
 22 81  1  6
 23 24  1  0
 24 25  2  0
 24 26  1  0
 26 27  1  0
 26 82  1  0
 27 31  1  0
 27 28  1  0
 27 83  1  0
 28 29  1  0
 28 84  1  0
 28 85  1  0
 29 30  1  0
 29 86  1  0
 29 87  1  0
 30 31  1  0
 30 88  1  0
 30 89  1  0
 31 90  1  0
 31 91  1  0
 32 33  1  6
 32 34  1  0
 32 37  1  0
 33 92  1  0
 33 93  1  0
 33 94  1  0
 34 35  1  0
 34 95  1  0
 34 96  1  0
 35 36  1  0
 35 97  1  1
 36 98  1  0
 37 38  1  6
 38 99  1  0
 39 40  2  0
 39 41  1  1
 41 55  1  0
 41 42  1  1
 41 43  1  0
 42100  1  0
 43 52  1  0
 43 44  1  1
 43 45  1  0
 44101  1  0
 44102  1  0
 44103  1  0
 45 46  2  0
 45 47  1  0
 47 48  1  0
 47104  1  0
 47105  1  0
 48 49  1  0
 48106  1  0
 48107  1  0
 49 50  1  0
 49 51  1  0
 49 52  1  0
 50108  1  0
 50109  1  0
 50110  1  0
 51111  1  0
 51112  1  0
 51113  1  0
 52 53  1  0
 52114  1  1
 53 54  1  0
 53 55  1  0
 53115  1  1
 54116  1  0
 55 56  1  1
 56117  1  0
M  END
>  <i_m_ct_stereo_status>  (75) 
1

>  <s_m_source_file>  (75) 
/var/tmp/pbs.5075288.sched01/tmp228mwnki/64h1usuhcs.sdf

>  <i_m_source_file_index>  (75) 
44

>  <i_lp_mmshare_version>  (75) 
48012

>  <i_f3d_flags>  (75) 
0

>  <s_epik_input>  (75) 
Tz1DMVtDSDJdW0NIMl1DKFtDSDNdKShbQ0gzXSlbQ0BASF0oW0NASF0yW09IXSlbQ0BAXTEoW0NIM10pW0NAQF0oW09IXSkoW0NAXTIoW09IXSlbQ0BAXShbQ0gzXSkoW0NIMl1bQ0gyXVtDQEhdKE8zKVtDQF0zNDUpT1tDQEhdNE9bQ0gzXSlbUytdKFtPLV0pW0NAQEhdNltDQEBIXTVbQ0BAXTcoW09IXSlbQ0BASF0oW0NIMl1bQ0gyXTYpW0NAQF04KFtPSF0pW0NIMl1bQ0BASF0oW09IXSlbQ0BIXShbQ0BdNyhbQ0gzXSlbQ0gyXVtDQEhdOFtPSF0pT0MoPU8pW05IXVtDSF05W0NIMl1bQ0gyXVtDSDJdW0NIMl05

>  <s_epik_cmdline>  (75) 
J2VwaWtfcHl0aG9uJywgJy1waHQnLCAnMi4wJywgJy1waCcsICc3LjAnLCAnLXRuJywgJzgnLCAnLW1hJywgJzIwMCcsICctaW1hZScsICc8aW5maWxlLm1hZT4nLCAnLW9tYWUnLCAnPG91dGZpbGUubWFlPic=

>  <r_lp_tautomer_probability>  (75) 
1

>  <r_epik_Ionization_Penalty>  (75) 
8.46737e-06

>  <r_epik_Ionization_Penalty_Charging>  (75) 
0

>  <r_epik_Ionization_Penalty_Neutral>  (75) 
8.46737e-06

>  <r_epik_State_Penalty>  (75) 
-0

>  <r_epik_Charging_Adjusted_Penalty>  (75) 
0

>  <i_epik_Tot_Q>  (75) 
0

>  <i_epik_Tot_abs_Q>  (75) 
2

>  <s_epik_Chemistry_Notes>  (75) 
This compound has an ester and may undergo hydrolysis at high or low pH. This compound contains an acetal/aminal-like group ( X-CH(R)-Y where X, Y are N, S, or O) that may be acid/base labile, releasing an aldehyde.

>  <s_lp_Force_Field>  (75) 
OPLS3e

>  <r_lp_Energy>  (75) 
159.257

>  <b_lp_Chiralities_Consistent>  (75) 
1

>  <s_lp_Variant>  (75) 
48:0-2

>  <s_i_glide_gridfile>  (75) 
pfpi4k_grid

>  <i_i_glide_lignum>  (75) 
44

>  <i_i_glide_rotatable_bonds>  (75) 
12

>  <r_i_docking_score>  (75) 
-4.07413

>  <r_i_glide_ligand_efficiency>  (75) 
-0.0727523

>  <r_i_glide_ligand_efficiency_sa>  (75) 
-0.27834

>  <r_i_glide_ligand_efficiency_ln>  (75) 
-0.810715

>  <r_i_glide_gscore>  (75) 
-4.07413

>  <r_i_glide_lipo>  (75) 
-0.670613

>  <r_i_glide_hbond>  (75) 
-0.139684

>  <r_i_glide_metal>  (75) 
-0

>  <r_i_glide_rewards>  (75) 
-1.05564

>  <r_i_glide_evdw>  (75) 
-27.9995

>  <r_i_glide_ecoul>  (75) 
-5.90257

>  <r_i_glide_erotb>  (75) 
0.0992568

>  <r_i_glide_esite>  (75) 
-0.0220862

>  <r_i_glide_emodel>  (75) 
-49.8045

>  <r_i_glide_energy>  (75) 
-33.9021

>  <r_i_glide_einternal>  (75) 
7.60641

>  <r_i_glide_intrahb_reward>  (75) 
-1

>  <i_i_glide_confnum>  (75) 
1

>  <i_i_glide_posenum>  (75) 
32

>  <r_i_glide_eff_state_penalty>  (75) 
0

>  <ligand_id>  (75) 
48

>  <original_smiles>  (75) 
COC1OC2(C)CCC3OC31C1C(CCC3C4(O)CC(O)C(OC(=O)NC5CCCC5)C(C)(CC4O)C31O)[S+]([O-])C1(O)C3(C)C(=O)CCC(C)(C)C3C(O)C21O

>  <smiles>  (75) 
[H]OC1([H])C([H])([H])C2(O[H])C([H])(O[H])C([H])([H])C(C([H])([H])[H])(C1([H])OC(=O)N([H])C1([H])C([H])([H])C([H])([H])C([H])([H])C1([H])[H])C1(O[H])C3([H])C([H])(S(=O)C4(O[H])C(O[H])(C([H])(O[H])C5([H])C4(C([H])([H])[H])C(=O)C([H])([H])C([H])([H])C5(C([H])([H])[H])C([H])([H])[H])C4(C([H])([H])[H])OC([H])(OC([H])([H])[H])C35OC5([H])C([H])([H])C4([H])[H])C([H])([H])C([H])([H])C21[H]

$$$$
48:1:1
     RDKit          3D

117125  0  0  1  0  0  0  0  0999 V2000
    8.1645   -5.3811    2.4434 C   0  0  0  0  0  0  0  0  0  0  0  0
    6.9252   -4.7538    2.1057 O   0  0  0  0  0  0  0  0  0  0  0  0
    5.7983   -5.4065    2.5493 C   0  0  2  0  0  0  0  0  0  0  0  0
    5.9859   -6.7283    2.1350 O   0  0  0  0  0  0  0  0  0  0  0  0
    5.0868   -7.8129    2.0294 C   0  0  2  0  0  0  0  0  0  0  0  0
    6.1653   -8.8952    1.7160 C   0  0  0  0  0  0  0  0  0  0  0  0
    4.3246   -7.6411    0.7011 C   0  0  0  0  0  0  0  0  0  0  0  0
    4.6719   -6.3559   -0.0698 C   0  0  0  0  0  0  0  0  0  0  0  0
    4.0748   -5.1553    0.5306 C   0  0  2  0  0  0  0  0  0  0  0  0
    4.9100   -4.0028    0.6508 O   0  0  0  0  0  0  0  0  0  0  0  0
    4.5922   -4.6845    1.8947 C   0  0  2  0  0  0  0  0  0  0  0  0
    3.6534   -3.9408    2.8856 C   0  0  2  0  0  0  0  0  0  0  0  0
    2.2389   -4.6201    2.9470 C   0  0  2  0  0  0  0  0  0  0  0  0
    1.4436   -4.2105    4.1878 C   0  0  0  0  0  0  0  0  0  0  0  0
    1.5875   -2.7272    4.5097 C   0  0  0  0  0  0  0  0  0  0  0  0
    2.0116   -1.8647    3.3010 C   0  0  1  0  0  0  0  0  0  0  0  0
    1.9272   -0.3372    3.6146 C   0  0  1  0  0  0  0  0  0  0  0  0
    0.5553    0.0146    3.6193 O   0  0  0  0  0  0  0  0  0  0  0  0
    2.3941    0.0460    5.0376 C   0  0  0  0  0  0  0  0  0  0  0  0
    3.9080    0.0652    5.2420 C   0  0  1  0  0  0  0  0  0  0  0  0
    4.1772    0.1814    6.6244 O   0  0  0  0  0  0  0  0  0  0  0  0
    4.7454   -1.0430    4.5264 C   0  0  1  0  0  0  0  0  0  0  0  0
    4.6722   -2.2640    5.2562 O   0  0  0  0  0  0  0  0  0  0  0  0
    5.5994   -2.5394    6.1751 C   0  0  0  0  0  0  0  0  0  0  0  0
    6.5097   -1.7722    6.4833 O   0  0  0  0  0  0  0  0  0  0  0  0
    5.3000   -3.7493    6.7709 N   0  0  0  0  0  0  0  0  0  0  0  0
    6.0230   -4.3041    7.9280 C   0  0  0  0  0  0  0  0  0  0  0  0
    5.8602   -3.4590    9.2185 C   0  0  0  0  0  0  0  0  0  0  0  0
    7.2583   -3.3448    9.8339 C   0  0  0  0  0  0  0  0  0  0  0  0
    8.2352   -3.4880    8.6694 C   0  0  0  0  0  0  0  0  0  0  0  0
    7.5496   -4.4763    7.7121 C   0  0  0  0  0  0  0  0  0  0  0  0
    4.4754   -1.2831    2.9894 C   0  0  2  0  0  0  0  0  0  0  0  0
    5.8331   -1.6706    2.3901 C   0  0  0  0  0  0  0  0  0  0  0  0
    4.1108    0.0848    2.3630 C   0  0  0  0  0  0  0  0  0  0  0  0
    2.6536    0.5397    2.5690 C   0  0  1  0  0  0  0  0  0  0  0  0
    1.9929    0.5377    1.3291 O   0  0  0  0  0  0  0  0  0  0  0  0
    3.3630   -2.3581    2.6600 C   0  0  1  0  0  0  0  0  0  0  0  0
    3.1076   -2.1990    1.2749 O   0  0  0  0  0  0  0  0  0  0  0  0
    2.1709   -6.4775    2.7904 S   0  0  0  0  0  0  0  0  0  0  0  0
    0.6956   -6.8877    2.7676 O   0  0  0  0  0  0  0  0  0  0  0  0
    3.2307   -7.2722    4.1176 C   0  0  1  0  0  0  0  0  0  0  0  0
    3.9628   -6.3475    4.9115 O   0  0  0  0  0  0  0  0  0  0  0  0
    2.4620   -8.2963    5.0942 C   0  0  1  0  0  0  0  0  0  0  0  0
    3.1577   -8.3561    6.4941 C   0  0  0  0  0  0  0  0  0  0  0  0
    0.9844   -7.9469    5.4664 C   0  0  0  0  0  0  0  0  0  0  0  0
    0.6046   -6.7938    5.5917 O   0  0  0  0  0  0  0  0  0  0  0  0
    0.0332   -9.0649    5.8918 C   0  0  0  0  0  0  0  0  0  0  0  0
    0.6138  -10.4436    5.6541 C   0  0  0  0  0  0  0  0  0  0  0  0
    1.3467  -10.5763    4.3129 C   0  0  0  0  0  0  0  0  0  0  0  0
    1.7147  -12.0511    4.1166 C   0  0  0  0  0  0  0  0  0  0  0  0
    0.3654  -10.2127    3.1696 C   0  0  0  0  0  0  0  0  0  0  0  0
    2.6223   -9.6932    4.4243 C   0  0  1  0  0  0  0  0  0  0  0  0
    3.6050   -9.6027    3.2413 C   0  0  1  0  0  0  0  0  0  0  0  0
    2.9844   -9.8091    1.9830 O   0  0  0  0  0  0  0  0  0  0  0  0
    4.2898   -8.1949    3.3512 C   0  0  1  0  0  0  0  0  0  0  0  0
    5.3079   -8.4262    4.3222 O   0  0  0  0  0  0  0  0  0  0  0  0
    8.9677   -4.6527    2.3428 H   0  0  0  0  0  0  0  0  0  0  0  0
    8.3951   -6.2046    1.7541 H   0  0  0  0  0  0  0  0  0  0  0  0
    8.1840   -5.7620    3.4709 H   0  0  0  0  0  0  0  0  0  0  0  0
    5.8025   -5.3958    3.6320 H   0  0  0  0  0  0  0  0  0  0  0  0
    5.7392   -9.8831    1.5024 H   0  0  0  0  0  0  0  0  0  0  0  0
    6.9197   -9.0016    2.4992 H   0  0  0  0  0  0  0  0  0  0  0  0
    6.7333   -8.6224    0.8315 H   0  0  0  0  0  0  0  0  0  0  0  0
    4.5306   -8.4855    0.0396 H   0  0  0  0  0  0  0  0  0  0  0  0
    3.2612   -7.6801    0.8195 H   0  0  0  0  0  0  0  0  0  0  0  0
    5.7534   -6.2113   -0.2328 H   0  0  0  0  0  0  0  0  0  0  0  0
    4.2256   -6.4889   -1.0217 H   0  0  0  0  0  0  0  0  0  0  0  0
    3.0903   -4.9046    0.2205 H   0  0  0  0  0  0  0  0  0  0  0  0
    4.0906   -4.0771    3.8739 H   0  0  0  0  0  0  0  0  0  0  0  0
    1.6896   -4.2762    2.0814 H   0  0  0  0  0  0  0  0  0  0  0  0
    0.3881   -4.4578    4.0337 H   0  0  0  0  0  0  0  0  0  0  0  0
    1.7913   -4.7686    5.0577 H   0  0  0  0  0  0  0  0  0  0  0  0
    0.6684   -2.3590    4.9608 H   0  0  0  0  0  0  0  0  0  0  0  0
    2.3445   -2.6792    5.2829 H   0  0  0  0  0  0  0  0  0  0  0  0
    1.2290   -2.0411    2.5615 H   0  0  0  0  0  0  0  0  0  0  0  0
    0.5080    0.9518    3.5394 H   0  0  0  0  0  0  0  0  0  0  0  0
    2.0667    1.0701    5.2389 H   0  0  0  0  0  0  0  0  0  0  0  0
    1.8889   -0.5475    5.8055 H   0  0  0  0  0  0  0  0  0  0  0  0
    4.2528    1.0285    4.8821 H   0  0  0  0  0  0  0  0  0  0  0  0
    3.9391   -0.6306    7.0394 H   0  0  0  0  0  0  0  0  0  0  0  0
    5.7691   -0.6721    4.5812 H   0  0  0  0  0  0  0  0  0  0  0  0
    4.4954   -4.2310    6.3928 H   0  0  0  0  0  0  0  0  0  0  0  0
    5.6162   -5.2939    8.1250 H   0  0  0  0  0  0  0  0  0  0  0  0
    5.4847   -2.4516    9.0203 H   0  0  0  0  0  0  0  0  0  0  0  0
    5.1489   -3.9030    9.9174 H   0  0  0  0  0  0  0  0  0  0  0  0
    7.3878   -2.4071   10.3714 H   0  0  0  0  0  0  0  0  0  0  0  0
    7.4150   -4.1637   10.5412 H   0  0  0  0  0  0  0  0  0  0  0  0
    8.3228   -2.5199    8.1766 H   0  0  0  0  0  0  0  0  0  0  0  0
    9.2440   -3.7785    8.9612 H   0  0  0  0  0  0  0  0  0  0  0  0
    7.8481   -5.4959    7.9830 H   0  0  0  0  0  0  0  0  0  0  0  0
    7.8685   -4.3335    6.6792 H   0  0  0  0  0  0  0  0  0  0  0  0
    5.7891   -1.8320    1.3136 H   0  0  0  0  0  0  0  0  0  0  0  0
    6.1869   -2.5726    2.8670 H   0  0  0  0  0  0  0  0  0  0  0  0
    6.5697   -0.8822    2.5461 H   0  0  0  0  0  0  0  0  0  0  0  0
    4.7555    0.8049    2.8536 H   0  0  0  0  0  0  0  0  0  0  0  0
    4.3679    0.1205    1.2982 H   0  0  0  0  0  0  0  0  0  0  0  0
    2.6870    1.5788    2.8953 H   0  0  0  0  0  0  0  0  0  0  0  0
    1.9303   -0.3436    0.9890 H   0  0  0  0  0  0  0  0  0  0  0  0
    3.8754   -2.4651    0.7962 H   0  0  0  0  0  0  0  0  0  0  0  0
    4.7753   -6.7983    5.0923 H   0  0  0  0  0  0  0  0  0  0  0  0
    4.2091   -8.6253    6.4666 H   0  0  0  0  0  0  0  0  0  0  0  0
    2.6911   -9.0910    7.1489 H   0  0  0  0  0  0  0  0  0  0  0  0
    3.0789   -7.4050    7.0212 H   0  0  0  0  0  0  0  0  0  0  0  0
   -0.1688   -8.9901    6.9472 H   0  0  0  0  0  0  0  0  0  0  0  0
   -0.9127   -8.9814    5.3635 H   0  0  0  0  0  0  0  0  0  0  0  0
    1.3438  -10.6019    6.4439 H   0  0  0  0  0  0  0  0  0  0  0  0
   -0.1166  -11.2395    5.7925 H   0  0  0  0  0  0  0  0  0  0  0  0
    2.2196  -12.2134    3.1663 H   0  0  0  0  0  0  0  0  0  0  0  0
    0.7899  -12.6208    4.1169 H   0  0  0  0  0  0  0  0  0  0  0  0
    2.3425  -12.4490    4.9170 H   0  0  0  0  0  0  0  0  0  0  0  0
    0.6688  -10.5824    2.1888 H   0  0  0  0  0  0  0  0  0  0  0  0
    0.1775   -9.1476    3.1055 H   0  0  0  0  0  0  0  0  0  0  0  0
   -0.5890  -10.6561    3.4033 H   0  0  0  0  0  0  0  0  0  0  0  0
    3.2284  -10.2603    5.1252 H   0  0  0  0  0  0  0  0  0  0  0  0
    4.3391  -10.4119    3.3115 H   0  0  0  0  0  0  0  0  0  0  0  0
    3.3811  -10.5601    1.5537 H   0  0  0  0  0  0  0  0  0  0  0  0
    5.8905   -9.0723    3.9643 H   0  0  0  0  0  0  0  0  0  0  0  0
  1  2  1  0
  1 57  1  0
  1 58  1  0
  1 59  1  0
  2  3  1  0
  3 11  1  0
  3  4  1  0
  3 60  1  1
  4  5  1  0
  5 55  1  0
  5  6  1  6
  5  7  1  0
  6 61  1  0
  6 62  1  0
  6 63  1  0
  7  8  1  0
  7 64  1  0
  7 65  1  0
  8  9  1  0
  8 66  1  0
  8 67  1  0
  9 11  1  0
  9 10  1  0
  9 68  1  1
 11 10  1  6
 11 12  1  0
 12 37  1  0
 12 13  1  0
 12 69  1  1
 13 14  1  0
 13 39  1  0
 13 70  1  6
 14 15  1  0
 14 71  1  0
 14 72  1  0
 15 16  1  0
 15 73  1  0
 15 74  1  0
 16 37  1  0
 16 17  1  0
 16 75  1  6
 17 35  1  0
 17 18  1  1
 17 19  1  0
 18 76  1  0
 19 20  1  0
 19 77  1  0
 19 78  1  0
 20 21  1  0
 20 22  1  0
 20 79  1  6
 21 80  1  0
 22 23  1  0
 22 32  1  0
 22 81  1  6
 23 24  1  0
 24 25  2  0
 24 26  1  0
 26 27  1  0
 26 82  1  0
 27 31  1  0
 27 28  1  0
 27 83  1  0
 28 29  1  0
 28 84  1  0
 28 85  1  0
 29 30  1  0
 29 86  1  0
 29 87  1  0
 30 31  1  0
 30 88  1  0
 30 89  1  0
 31 90  1  0
 31 91  1  0
 32 33  1  6
 32 34  1  0
 32 37  1  0
 33 92  1  0
 33 93  1  0
 33 94  1  0
 34 35  1  0
 34 95  1  0
 34 96  1  0
 35 36  1  0
 35 97  1  1
 36 98  1  0
 37 38  1  6
 38 99  1  0
 39 40  2  0
 39 41  1  1
 41 55  1  0
 41 42  1  1
 41 43  1  0
 42100  1  0
 43 52  1  0
 43 44  1  1
 43 45  1  0
 44101  1  0
 44102  1  0
 44103  1  0
 45 46  2  0
 45 47  1  0
 47 48  1  0
 47104  1  0
 47105  1  0
 48 49  1  0
 48106  1  0
 48107  1  0
 49 50  1  0
 49 51  1  0
 49 52  1  0
 50108  1  0
 50109  1  0
 50110  1  0
 51111  1  0
 51112  1  0
 51113  1  0
 52 53  1  0
 52114  1  1
 53 54  1  0
 53 55  1  0
 53115  1  1
 54116  1  0
 55 56  1  1
 56117  1  0
M  END
>  <i_m_ct_stereo_status>  (76) 
1

>  <s_m_source_file>  (76) 
/var/tmp/pbs.5075288.sched01/tmp228mwnki/64h1usuhcs.sdf

>  <i_m_source_file_index>  (76) 
44

>  <i_lp_mmshare_version>  (76) 
48012

>  <i_f3d_flags>  (76) 
0

>  <s_epik_input>  (76) 
Tz1DMVtDSDJdW0NIMl1DKFtDSDNdKShbQ0gzXSlbQ0BASF0oW0NASF0yW09IXSlbQ0BAXTEoW0NIM10pW0NAQF0oW09IXSkoW0NAXTIoW09IXSlbQ0BAXShbQ0gzXSkoW0NIMl1bQ0gyXVtDQEhdKE8zKVtDQF0zNDUpT1tDQEhdNE9bQ0gzXSlbUytdKFtPLV0pW0NAQEhdNltDQEBIXTVbQ0BAXTcoW09IXSlbQ0BASF0oW0NIMl1bQ0gyXTYpW0NAQF04KFtPSF0pW0NIMl1bQ0BASF0oW09IXSlbQ0BIXShbQ0BdNyhbQ0gzXSlbQ0gyXVtDQEhdOFtPSF0pT0MoPU8pW05IXVtDSF05W0NIMl1bQ0gyXVtDSDJdW0NIMl05

>  <s_epik_cmdline>  (76) 
J2VwaWtfcHl0aG9uJywgJy1waHQnLCAnMi4wJywgJy1waCcsICc3LjAnLCAnLXRuJywgJzgnLCAnLW1hJywgJzIwMCcsICctaW1hZScsICc8aW5maWxlLm1hZT4nLCAnLW9tYWUnLCAnPG91dGZpbGUubWFlPic=

>  <r_lp_tautomer_probability>  (76) 
1

>  <r_epik_Ionization_Penalty>  (76) 
8.46737e-06

>  <r_epik_Ionization_Penalty_Charging>  (76) 
0

>  <r_epik_Ionization_Penalty_Neutral>  (76) 
8.46737e-06

>  <r_epik_State_Penalty>  (76) 
-0

>  <r_epik_Charging_Adjusted_Penalty>  (76) 
0

>  <i_epik_Tot_Q>  (76) 
0

>  <i_epik_Tot_abs_Q>  (76) 
2

>  <s_epik_Chemistry_Notes>  (76) 
This compound has an ester and may undergo hydrolysis at high or low pH. This compound contains an acetal/aminal-like group ( X-CH(R)-Y where X, Y are N, S, or O) that may be acid/base labile, releasing an aldehyde.

>  <s_lp_Force_Field>  (76) 
OPLS3e

>  <r_lp_Energy>  (76) 
159.257

>  <b_lp_Chiralities_Consistent>  (76) 
1

>  <s_lp_Variant>  (76) 
48:0-2

>  <s_i_glide_gridfile>  (76) 
pfpi4k_grid

>  <i_i_glide_lignum>  (76) 
44

>  <i_i_glide_rotatable_bonds>  (76) 
12

>  <r_i_docking_score>  (76) 
-3.97321

>  <r_i_glide_ligand_efficiency>  (76) 
-0.0709502

>  <r_i_glide_ligand_efficiency_sa>  (76) 
-0.271446

>  <r_i_glide_ligand_efficiency_ln>  (76) 
-0.790634

>  <r_i_glide_gscore>  (76) 
-3.97321

>  <r_i_glide_lipo>  (76) 
-0.542499

>  <r_i_glide_hbond>  (76) 
-0.130895

>  <r_i_glide_metal>  (76) 
-0

>  <r_i_glide_rewards>  (76) 
-1.05203

>  <r_i_glide_evdw>  (76) 
-30.6761

>  <r_i_glide_ecoul>  (76) 
-5.26776

>  <r_i_glide_erotb>  (76) 
0.0992568

>  <r_i_glide_esite>  (76) 
-0.0230783

>  <r_i_glide_emodel>  (76) 
-51.8505

>  <r_i_glide_energy>  (76) 
-35.9439

>  <r_i_glide_einternal>  (76) 
6.00534

>  <r_i_glide_intrahb_reward>  (76) 
-1

>  <i_i_glide_confnum>  (76) 
1

>  <i_i_glide_posenum>  (76) 
37

>  <r_i_glide_eff_state_penalty>  (76) 
0

>  <ligand_id>  (76) 
48

>  <original_smiles>  (76) 
COC1OC2(C)CCC3OC31C1C(CCC3C4(O)CC(O)C(OC(=O)NC5CCCC5)C(C)(CC4O)C31O)[S+]([O-])C1(O)C3(C)C(=O)CCC(C)(C)C3C(O)C21O

>  <smiles>  (76) 
[H]OC1([H])C([H])([H])C2(O[H])C([H])(O[H])C([H])([H])C(C([H])([H])[H])(C1([H])OC(=O)N([H])C1([H])C([H])([H])C([H])([H])C([H])([H])C1([H])[H])C1(O[H])C3([H])C([H])(S(=O)C4(O[H])C(O[H])(C([H])(O[H])C5([H])C4(C([H])([H])[H])C(=O)C([H])([H])C([H])([H])C5(C([H])([H])[H])C([H])([H])[H])C4(C([H])([H])[H])OC([H])(OC([H])([H])[H])C35OC5([H])C([H])([H])C4([H])[H])C([H])([H])C([H])([H])C21[H]

$$$$
48:1:2
     RDKit          3D

117125  0  0  1  0  0  0  0  0999 V2000
    6.4650   -2.6203    1.3073 C   0  0  0  0  0  0  0  0  0  0  0  0
    5.8099   -2.6289    2.5866 O   0  0  0  0  0  0  0  0  0  0  0  0
    4.8312   -3.5984    2.7940 C   0  0  2  0  0  0  0  0  0  0  0  0
    5.2475   -4.7885    2.1720 O   0  0  0  0  0  0  0  0  0  0  0  0
    4.5196   -5.9905    1.9022 C   0  0  2  0  0  0  0  0  0  0  0  0
    5.7278   -6.7694    1.2938 C   0  0  0  0  0  0  0  0  0  0  0  0
    3.5638   -5.7803    0.6686 C   0  0  0  0  0  0  0  0  0  0  0  0
    3.5625   -4.3712    0.0639 C   0  0  0  0  0  0  0  0  0  0  0  0
    2.8804   -3.3968    0.9802 C   0  0  2  0  0  0  0  0  0  0  0  0
    3.4997   -2.1443    1.2059 O   0  0  0  0  0  0  0  0  0  0  0  0
    3.4567   -3.0390    2.3389 C   0  0  2  0  0  0  0  0  0  0  0  0
    2.5107   -2.6659    3.5413 C   0  0  2  0  0  0  0  0  0  0  0  0
    1.2821   -3.6396    3.6286 C   0  0  2  0  0  0  0  0  0  0  0  0
    0.5780   -3.5946    4.9909 C   0  0  0  0  0  0  0  0  0  0  0  0
    0.5066   -2.1805    5.5612 C   0  0  0  0  0  0  0  0  0  0  0  0
    0.6014   -1.0690    4.4886 C   0  0  1  0  0  0  0  0  0  0  0  0
    0.2772    0.3527    5.0684 C   0  0  1  0  0  0  0  0  0  0  0  0
   -1.1294    0.4308    5.2181 O   0  0  0  0  0  0  0  0  0  0  0  0
    0.8266    0.5893    6.4950 C   0  0  0  0  0  0  0  0  0  0  0  0
    2.3326    0.8687    6.5656 C   0  0  1  0  0  0  0  0  0  0  0  0
    2.7876    0.7801    7.8998 O   0  0  0  0  0  0  0  0  0  0  0  0
    3.2647    0.0843    5.6010 C   0  0  1  0  0  0  0  0  0  0  0  0
    3.5374   -1.2196    6.1045 O   0  0  0  0  0  0  0  0  0  0  0  0
    4.7373   -1.5053    6.6220 C   0  0  0  0  0  0  0  0  0  0  0  0
    5.6843   -0.7185    6.6681 O   0  0  0  0  0  0  0  0  0  0  0  0
    4.7228   -2.8026    7.1018 N   0  0  0  0  0  0  0  0  0  0  0  0
    5.8211   -3.4239    7.8564 C   0  0  0  0  0  0  0  0  0  0  0  0
    6.0712   -2.7313    9.2172 C   0  0  0  0  0  0  0  0  0  0  0  0
    7.5876   -2.5488    9.3268 C   0  0  0  0  0  0  0  0  0  0  0  0
    8.0892   -2.4597    7.8871 C   0  0  0  0  0  0  0  0  0  0  0  0
    7.1747   -3.4127    7.1081 C   0  0  0  0  0  0  0  0  0  0  0  0
    2.8849    0.0445    4.0745 C   0  0  2  0  0  0  0  0  0  0  0  0
    4.2252    0.0302    3.3106 C   0  0  0  0  0  0  0  0  0  0  0  0
    2.2020    1.4009    3.7029 C   0  0  0  0  0  0  0  0  0  0  0  0
    0.7184    1.5190    4.1357 C   0  0  1  0  0  0  0  0  0  0  0  0
   -0.1173    1.5958    2.9971 O   0  0  0  0  0  0  0  0  0  0  0  0
    1.9327   -1.1575    3.6438 C   0  0  1  0  0  0  0  0  0  0  0  0
    1.4746   -0.8799    2.3341 O   0  0  0  0  0  0  0  0  0  0  0  0
    1.5425   -5.4328    3.1433 S   0  0  0  0  0  0  0  0  0  0  0  0
    0.2021   -6.1701    3.1419 O   0  0  0  0  0  0  0  0  0  0  0  0
    2.8730   -6.2143    4.2164 C   0  0  1  0  0  0  0  0  0  0  0  0
    3.4569   -5.2677    5.0928 O   0  0  0  0  0  0  0  0  0  0  0  0
    2.4175   -7.5088    5.0569 C   0  0  1  0  0  0  0  0  0  0  0  0
    3.2707   -7.6352    6.3645 C   0  0  0  0  0  0  0  0  0  0  0  0
    0.9781   -7.5412    5.6325 C   0  0  0  0  0  0  0  0  0  0  0  0
    0.3818   -6.5128    5.9589 O   0  0  0  0  0  0  0  0  0  0  0  0
    0.3289   -8.8979    5.9399 C   0  0  0  0  0  0  0  0  0  0  0  0
    1.0876  -10.1187    5.3899 C   0  0  0  0  0  0  0  0  0  0  0  0
    1.6460   -9.8738    3.9764 C   0  0  0  0  0  0  0  0  0  0  0  0
    2.2775  -11.1926    3.4772 C   0  0  0  0  0  0  0  0  0  0  0  0
    0.4465   -9.5441    3.0449 C   0  0  0  0  0  0  0  0  0  0  0  0
    2.7397   -8.7439    4.1400 C   0  0  1  0  0  0  0  0  0  0  0  0
    3.5345   -8.2373    2.9114 C   0  0  1  0  0  0  0  0  0  0  0  0
    2.7920   -8.3589    1.7216 O   0  0  0  0  0  0  0  0  0  0  0  0
    3.9765   -6.7658    3.2090 C   0  0  1  0  0  0  0  0  0  0  0  0
    5.1405   -6.9182    4.0152 O   0  0  0  0  0  0  0  0  0  0  0  0
    7.2586   -1.8766    1.3052 H   0  0  0  0  0  0  0  0  0  0  0  0
    5.7866   -2.3513    0.4999 H   0  0  0  0  0  0  0  0  0  0  0  0
    6.9343   -3.5788    1.0646 H   0  0  0  0  0  0  0  0  0  0  0  0
    4.8640   -3.7623    3.8667 H   0  0  0  0  0  0  0  0  0  0  0  0
    5.4624   -7.7725    0.9633 H   0  0  0  0  0  0  0  0  0  0  0  0
    6.5818   -6.8571    1.9634 H   0  0  0  0  0  0  0  0  0  0  0  0
    6.1060   -6.2488    0.4161 H   0  0  0  0  0  0  0  0  0  0  0  0
    3.8463   -6.4636   -0.1312 H   0  0  0  0  0  0  0  0  0  0  0  0
    2.5385   -6.0655    0.8528 H   0  0  0  0  0  0  0  0  0  0  0  0
    4.5786   -4.0563   -0.1755 H   0  0  0  0  0  0  0  0  0  0  0  0
    3.0285   -4.3701   -0.8874 H   0  0  0  0  0  0  0  0  0  0  0  0
    1.8217   -3.3019    0.8070 H   0  0  0  0  0  0  0  0  0  0  0  0
    3.0743   -2.8607    4.4457 H   0  0  0  0  0  0  0  0  0  0  0  0
    0.5728   -3.2888    2.8863 H   0  0  0  0  0  0  0  0  0  0  0  0
   -0.4297   -4.0059    4.8924 H   0  0  0  0  0  0  0  0  0  0  0  0
    1.1117   -4.2082    5.7171 H   0  0  0  0  0  0  0  0  0  0  0  0
   -0.4059   -2.0762    6.1490 H   0  0  0  0  0  0  0  0  0  0  0  0
    1.3227   -2.0895    6.2700 H   0  0  0  0  0  0  0  0  0  0  0  0
   -0.2183   -1.2964    3.8027 H   0  0  0  0  0  0  0  0  0  0  0  0
   -1.4768    0.5783    4.3430 H   0  0  0  0  0  0  0  0  0  0  0  0
    0.3361    1.4773    6.8977 H   0  0  0  0  0  0  0  0  0  0  0  0
    0.5367   -0.2078    7.1793 H   0  0  0  0  0  0  0  0  0  0  0  0
    2.4609    1.9255    6.3321 H   0  0  0  0  0  0  0  0  0  0  0  0
    2.2573    1.3617    8.4286 H   0  0  0  0  0  0  0  0  0  0  0  0
    4.1787    0.6767    5.6374 H   0  0  0  0  0  0  0  0  0  0  0  0
    3.8610   -3.3147    6.9656 H   0  0  0  0  0  0  0  0  0  0  0  0
    5.5524   -4.4655    8.0386 H   0  0  0  0  0  0  0  0  0  0  0  0
    5.5930   -1.7513    9.2651 H   0  0  0  0  0  0  0  0  0  0  0  0
    5.6686   -3.3041   10.0543 H   0  0  0  0  0  0  0  0  0  0  0  0
    7.8498   -1.6693    9.9142 H   0  0  0  0  0  0  0  0  0  0  0  0
    8.0284   -3.4223    9.8100 H   0  0  0  0  0  0  0  0  0  0  0  0
    7.9611   -1.4414    7.5217 H   0  0  0  0  0  0  0  0  0  0  0  0
    9.1480   -2.7021    7.7867 H   0  0  0  0  0  0  0  0  0  0  0  0
    7.6110   -4.4152    7.1114 H   0  0  0  0  0  0  0  0  0  0  0  0
    7.0738   -3.1228    6.0654 H   0  0  0  0  0  0  0  0  0  0  0  0
    4.0931   -0.0179    2.2281 H   0  0  0  0  0  0  0  0  0  0  0  0
    4.8530   -0.7927    3.6390 H   0  0  0  0  0  0  0  0  0  0  0  0
    4.7902    0.9407    3.5151 H   0  0  0  0  0  0  0  0  0  0  0  0
    2.7730    2.2184    4.1445 H   0  0  0  0  0  0  0  0  0  0  0  0
    2.2862    1.5859    2.6296 H   0  0  0  0  0  0  0  0  0  0  0  0
    0.5812    2.4696    4.6510 H   0  0  0  0  0  0  0  0  0  0  0  0
    0.1702    2.3130    2.4413 H   0  0  0  0  0  0  0  0  0  0  0  0
    2.2090   -0.9188    1.7309 H   0  0  0  0  0  0  0  0  0  0  0  0
    4.3791   -5.5084    5.1673 H   0  0  0  0  0  0  0  0  0  0  0  0
    4.3420   -7.6734    6.1942 H   0  0  0  0  0  0  0  0  0  0  0  0
    3.0293   -8.5388    6.9179 H   0  0  0  0  0  0  0  0  0  0  0  0
    3.0933   -6.8076    7.0503 H   0  0  0  0  0  0  0  0  0  0  0  0
    0.2034   -8.9944    7.0159 H   0  0  0  0  0  0  0  0  0  0  0  0
   -0.6721   -8.8917    5.5071 H   0  0  0  0  0  0  0  0  0  0  0  0
    1.8953  -10.3830    6.0723 H   0  0  0  0  0  0  0  0  0  0  0  0
    0.4248  -10.9845    5.3970 H   0  0  0  0  0  0  0  0  0  0  0  0
    2.7026  -11.0935    2.4792 H   0  0  0  0  0  0  0  0  0  0  0  0
    1.5198  -11.9745    3.4290 H   0  0  0  0  0  0  0  0  0  0  0  0
    3.0616  -11.5474    4.1469 H   0  0  0  0  0  0  0  0  0  0  0  0
    0.6981   -9.6238    1.9898 H   0  0  0  0  0  0  0  0  0  0  0  0
    0.0456   -8.5471    3.2148 H   0  0  0  0  0  0  0  0  0  0  0  0
   -0.3711  -10.2465    3.2207 H   0  0  0  0  0  0  0  0  0  0  0  0
    3.5240   -9.2679    4.6842 H   0  0  0  0  0  0  0  0  0  0  0  0
    4.4061   -8.8815    2.7613 H   0  0  0  0  0  0  0  0  0  0  0  0
    2.6325   -9.2851    1.5803 H   0  0  0  0  0  0  0  0  0  0  0  0
    5.8002   -7.3478    3.4883 H   0  0  0  0  0  0  0  0  0  0  0  0
  1  2  1  0
  1 57  1  0
  1 58  1  0
  1 59  1  0
  2  3  1  0
  3 11  1  0
  3  4  1  0
  3 60  1  1
  4  5  1  0
  5 55  1  0
  5  6  1  6
  5  7  1  0
  6 61  1  0
  6 62  1  0
  6 63  1  0
  7  8  1  0
  7 64  1  0
  7 65  1  0
  8  9  1  0
  8 66  1  0
  8 67  1  0
  9 11  1  0
  9 10  1  0
  9 68  1  1
 11 10  1  6
 11 12  1  0
 12 37  1  0
 12 13  1  0
 12 69  1  1
 13 14  1  0
 13 39  1  0
 13 70  1  6
 14 15  1  0
 14 71  1  0
 14 72  1  0
 15 16  1  0
 15 73  1  0
 15 74  1  0
 16 37  1  0
 16 17  1  0
 16 75  1  6
 17 35  1  0
 17 18  1  1
 17 19  1  0
 18 76  1  0
 19 20  1  0
 19 77  1  0
 19 78  1  0
 20 21  1  0
 20 22  1  0
 20 79  1  6
 21 80  1  0
 22 23  1  0
 22 32  1  0
 22 81  1  6
 23 24  1  0
 24 25  2  0
 24 26  1  0
 26 27  1  0
 26 82  1  0
 27 31  1  0
 27 28  1  0
 27 83  1  0
 28 29  1  0
 28 84  1  0
 28 85  1  0
 29 30  1  0
 29 86  1  0
 29 87  1  0
 30 31  1  0
 30 88  1  0
 30 89  1  0
 31 90  1  0
 31 91  1  0
 32 33  1  6
 32 34  1  0
 32 37  1  0
 33 92  1  0
 33 93  1  0
 33 94  1  0
 34 35  1  0
 34 95  1  0
 34 96  1  0
 35 36  1  0
 35 97  1  1
 36 98  1  0
 37 38  1  6
 38 99  1  0
 39 40  2  0
 39 41  1  1
 41 55  1  0
 41 42  1  1
 41 43  1  0
 42100  1  0
 43 52  1  0
 43 44  1  1
 43 45  1  0
 44101  1  0
 44102  1  0
 44103  1  0
 45 46  2  0
 45 47  1  0
 47 48  1  0
 47104  1  0
 47105  1  0
 48 49  1  0
 48106  1  0
 48107  1  0
 49 50  1  0
 49 51  1  0
 49 52  1  0
 50108  1  0
 50109  1  0
 50110  1  0
 51111  1  0
 51112  1  0
 51113  1  0
 52 53  1  0
 52114  1  1
 53 54  1  0
 53 55  1  0
 53115  1  6
 54116  1  0
 55 56  1  1
 56117  1  0
M  END
>  <i_m_ct_stereo_status>  (77) 
1

>  <s_m_source_file>  (77) 
/var/tmp/pbs.5075288.sched01/tmp228mwnki/64h1usuhcs.sdf

>  <i_m_source_file_index>  (77) 
44

>  <i_lp_mmshare_version>  (77) 
48012

>  <i_f3d_flags>  (77) 
0

>  <s_epik_input>  (77) 
Tz1DMVtDSDJdW0NIMl1DKFtDSDNdKShbQ0gzXSlbQ0BASF0oW0NASF0yW09IXSlbQ0BAXTEoW0NIM10pW0NAQF0oW09IXSkoW0NAXTIoW09IXSlbQ0BAXShbQ0gzXSkoW0NIMl1bQ0gyXVtDQEhdKE8zKVtDQF0zNDUpT1tDQEhdNE9bQ0gzXSlbUytdKFtPLV0pW0NAQEhdNltDQEBIXTVbQ0BAXTcoW09IXSlbQ0BASF0oW0NIMl1bQ0gyXTYpW0NAQF04KFtPSF0pW0NIMl1bQ0BASF0oW09IXSlbQ0BIXShbQ0BdNyhbQ0gzXSlbQ0gyXVtDQEhdOFtPSF0pT0MoPU8pW05IXVtDSF05W0NIMl1bQ0gyXVtDSDJdW0NIMl05

>  <s_epik_cmdline>  (77) 
J2VwaWtfcHl0aG9uJywgJy1waHQnLCAnMi4wJywgJy1waCcsICc3LjAnLCAnLXRuJywgJzgnLCAnLW1hJywgJzIwMCcsICctaW1hZScsICc8aW5maWxlLm1hZT4nLCAnLW9tYWUnLCAnPG91dGZpbGUubWFlPic=

>  <r_lp_tautomer_probability>  (77) 
1

>  <r_epik_Ionization_Penalty>  (77) 
8.46737e-06

>  <r_epik_Ionization_Penalty_Charging>  (77) 
0

>  <r_epik_Ionization_Penalty_Neutral>  (77) 
8.46737e-06

>  <r_epik_State_Penalty>  (77) 
-0

>  <r_epik_Charging_Adjusted_Penalty>  (77) 
0

>  <i_epik_Tot_Q>  (77) 
0

>  <i_epik_Tot_abs_Q>  (77) 
2

>  <s_epik_Chemistry_Notes>  (77) 
This compound has an ester and may undergo hydrolysis at high or low pH. This compound contains an acetal/aminal-like group ( X-CH(R)-Y where X, Y are N, S, or O) that may be acid/base labile, releasing an aldehyde.

>  <s_lp_Force_Field>  (77) 
OPLS3e

>  <r_lp_Energy>  (77) 
159.257

>  <b_lp_Chiralities_Consistent>  (77) 
1

>  <s_lp_Variant>  (77) 
48:0-2

>  <s_i_glide_gridfile>  (77) 
pfpi4k_grid

>  <i_i_glide_lignum>  (77) 
44

>  <i_i_glide_rotatable_bonds>  (77) 
12

>  <r_i_docking_score>  (77) 
-3.54657

>  <r_i_glide_ligand_efficiency>  (77) 
-0.0633315

>  <r_i_glide_ligand_efficiency_sa>  (77) 
-0.242298

>  <r_i_glide_ligand_efficiency_ln>  (77) 
-0.705735

>  <r_i_glide_gscore>  (77) 
-3.54657

>  <r_i_glide_lipo>  (77) 
-0.354275

>  <r_i_glide_hbond>  (77) 
-0.104822

>  <r_i_glide_metal>  (77) 
-0

>  <r_i_glide_rewards>  (77) 
-0.541509

>  <r_i_glide_evdw>  (77) 
-33.8975

>  <r_i_glide_ecoul>  (77) 
-6.12146

>  <r_i_glide_erotb>  (77) 
0.0992568

>  <r_i_glide_esite>  (77) 
-0.032124

>  <r_i_glide_emodel>  (77) 
-50.7322

>  <r_i_glide_energy>  (77) 
-40.0189

>  <r_i_glide_einternal>  (77) 
6.51973

>  <r_i_glide_intrahb_reward>  (77) 
-0.5

>  <i_i_glide_confnum>  (77) 
1

>  <i_i_glide_posenum>  (77) 
40

>  <r_i_glide_eff_state_penalty>  (77) 
0

>  <ligand_id>  (77) 
48

>  <original_smiles>  (77) 
COC1OC2(C)CCC3OC31C1C(CCC3C4(O)CC(O)C(OC(=O)NC5CCCC5)C(C)(CC4O)C31O)[S+]([O-])C1(O)C3(C)C(=O)CCC(C)(C)C3C(O)C21O

>  <smiles>  (77) 
[H]OC1([H])C([H])([H])C2(O[H])C([H])(O[H])C([H])([H])C(C([H])([H])[H])(C1([H])OC(=O)N([H])C1([H])C([H])([H])C([H])([H])C([H])([H])C1([H])[H])C1(O[H])C3([H])C([H])(S(=O)C4(O[H])C(O[H])(C([H])(O[H])C5([H])C4(C([H])([H])[H])C(=O)C([H])([H])C([H])([H])C5(C([H])([H])[H])C([H])([H])[H])C4(C([H])([H])[H])OC([H])(OC([H])([H])[H])C35OC5([H])C([H])([H])C4([H])[H])C([H])([H])C([H])([H])C21[H]

$$$$
52:0:0
     RDKit          3D

 21 21  0  0  1  0  0  0  0  0999 V2000
    4.1944   -0.1446   -3.9410 O   0  0  0  0  0  0  0  0  0  0  0  0
    3.2402   -0.8081   -2.9504 S   0  0  0  0  0  0  0  0  0  0  0  0
    4.1140   -1.1852   -1.3407 C   0  0  0  0  0  0  0  0  0  0  0  0
    5.4065   -1.9400   -1.6501 C   0  0  1  0  0  0  0  0  0  0  0  0
    6.2052   -2.0478   -0.5028 O   0  0  0  0  0  0  0  0  0  0  0  0
    5.1989   -3.3230   -2.3055 C   0  0  1  0  0  0  0  0  0  0  0  0
    4.5993   -4.1822   -1.3416 O   0  0  0  0  0  0  0  0  0  0  0  0
    4.3883   -3.1912   -3.6202 C   0  0  1  0  0  0  0  0  0  0  0  0
    4.2890   -4.3984   -4.3188 O   0  0  0  0  0  0  0  0  0  0  0  0
    3.0038   -2.5579   -3.5240 C   0  0  1  0  0  0  0  0  0  0  0  0
    2.1335   -3.3499   -2.7401 O   0  0  0  0  0  0  0  0  0  0  0  0
    4.3311   -0.2701   -0.7871 H   0  0  0  0  0  0  0  0  0  0  0  0
    3.4531   -1.7663   -0.7006 H   0  0  0  0  0  0  0  0  0  0  0  0
    5.9760   -1.3211   -2.3228 H   0  0  0  0  0  0  0  0  0  0  0  0
    5.7218   -2.5884    0.1048 H   0  0  0  0  0  0  0  0  0  0  0  0
    6.1806   -3.7442   -2.5610 H   0  0  0  0  0  0  0  0  0  0  0  0
    4.1450   -4.8807   -1.8010 H   0  0  0  0  0  0  0  0  0  0  0  0
    4.9673   -2.5447   -4.2645 H   0  0  0  0  0  0  0  0  0  0  0  0
    3.7862   -5.0112   -3.7841 H   0  0  0  0  0  0  0  0  0  0  0  0
    2.5822   -2.4818   -4.5239 H   0  0  0  0  0  0  0  0  0  0  0  0
    1.4915   -3.7702   -3.3080 H   0  0  0  0  0  0  0  0  0  0  0  0
  1  2  2  0
  2 10  1  0
  2  3  1  1
  3  4  1  0
  3 12  1  0
  3 13  1  0
  4  5  1  0
  4  6  1  0
  4 14  1  6
  5 15  1  0
  6  7  1  0
  6  8  1  0
  6 16  1  6
  7 17  1  0
  8  9  1  0
  8 10  1  0
  8 18  1  6
  9 19  1  0
 10 11  1  0
 10 20  1  6
 11 21  1  0
M  END
>  <i_m_ct_stereo_status>  (78) 
1

>  <s_m_source_file>  (78) 
/var/tmp/pbs.5075288.sched01/tmp228mwnki/64h1usuhcs.sdf

>  <i_m_source_file_index>  (78) 
53

>  <i_lp_mmshare_version>  (78) 
48012

>  <i_f3d_flags>  (78) 
0

>  <s_epik_input>  (78) 
W08tXVtTK10xW0NIMl1bQ0BASF0oW09IXSlbQ0BASF0oW09IXSlbQ0BASF0oW09IXSlbQ0BIXTFbT0hd

>  <s_epik_cmdline>  (78) 
J2VwaWtfcHl0aG9uJywgJy1waHQnLCAnMi4wJywgJy1waCcsICc3LjAnLCAnLXRuJywgJzgnLCAnLW1hJywgJzIwMCcsICctaW1hZScsICc8aW5maWxlLm1hZT4nLCAnLW9tYWUnLCAnPG91dGZpbGUubWFlPic=

>  <r_lp_tautomer_probability>  (78) 
1

>  <r_epik_Ionization_Penalty>  (78) 
4.08094e-06

>  <r_epik_Ionization_Penalty_Charging>  (78) 
0

>  <r_epik_Ionization_Penalty_Neutral>  (78) 
4.08094e-06

>  <r_epik_State_Penalty>  (78) 
-0

>  <r_epik_Charging_Adjusted_Penalty>  (78) 
0

>  <i_epik_Tot_Q>  (78) 
0

>  <i_epik_Tot_abs_Q>  (78) 
2

>  <s_epik_Chemistry_Notes>  (78) 
This compound contains an acetal/aminal-like group ( X-CH(R)-Y where X, Y are N, S, or O) that may be acid/base labile, releasing an aldehyde.

>  <s_lp_Force_Field>  (78) 
OPLS3e

>  <r_lp_Energy>  (78) 
6.43771

>  <b_lp_Chiralities_Consistent>  (78) 
1

>  <s_lp_Variant>  (78) 
52:0-1

>  <s_i_glide_gridfile>  (78) 
pfpi4k_grid

>  <i_i_glide_lignum>  (78) 
53

>  <i_i_glide_rotatable_bonds>  (78) 
4

>  <r_i_docking_score>  (78) 
-5.48873

>  <r_i_glide_ligand_efficiency>  (78) 
-0.498975

>  <r_i_glide_ligand_efficiency_sa>  (78) 
-1.10971

>  <r_i_glide_ligand_efficiency_ln>  (78) 
-1.61533

>  <r_i_glide_gscore>  (78) 
-5.48873

>  <r_i_glide_lipo>  (78) 
-0.624551

>  <r_i_glide_hbond>  (78) 
0

>  <r_i_glide_metal>  (78) 
-0

>  <r_i_glide_rewards>  (78) 
-2.16685

>  <r_i_glide_evdw>  (78) 
-18.3813

>  <r_i_glide_ecoul>  (78) 
-11.7835

>  <r_i_glide_erotb>  (78) 
0

>  <r_i_glide_esite>  (78) 
-0.0107455

>  <r_i_glide_emodel>  (78) 
-40.3949

>  <r_i_glide_energy>  (78) 
-30.1647

>  <r_i_glide_einternal>  (78) 
0.958722

>  <r_i_glide_intrahb_reward>  (78) 
-0

>  <i_i_glide_confnum>  (78) 
2

>  <i_i_glide_posenum>  (78) 
18

>  <r_i_glide_eff_state_penalty>  (78) 
0

>  <ligand_id>  (78) 
52

>  <original_smiles>  (78) 
[O-][S+]1CC(O)C(O)C(O)C1O

>  <smiles>  (78) 
[H]OC1([H])S(=O)C([H])([H])C([H])(O[H])C([H])(O[H])C1([H])O[H]

$$$$
52:0:1
     RDKit          3D

 21 21  0  0  1  0  0  0  0  0999 V2000
    4.2891   -0.9642    0.4476 O   0  0  0  0  0  0  0  0  0  0  0  0
    5.1143   -2.0323   -0.2711 S   0  0  0  0  0  0  0  0  0  0  0  0
    5.1737   -1.5638   -2.0635 C   0  0  0  0  0  0  0  0  0  0  0  0
    3.7461   -1.2893   -2.5502 C   0  0  1  0  0  0  0  0  0  0  0  0
    3.8056   -0.7104   -3.8429 O   0  0  0  0  0  0  0  0  0  0  0  0
    2.8527   -2.5456   -2.5454 C   0  0  1  0  0  0  0  0  0  0  0  0
    3.3761   -3.4571   -3.4917 O   0  0  0  0  0  0  0  0  0  0  0  0
    2.7564   -3.1754   -1.1346 C   0  0  1  0  0  0  0  0  0  0  0  0
    1.8183   -4.2508   -1.1172 O   0  0  0  0  0  0  0  0  0  0  0  0
    4.0786   -3.5704   -0.4466 C   0  0  1  0  0  0  0  0  0  0  0  0
    4.7375   -4.6291   -1.1056 O   0  0  0  0  0  0  0  0  0  0  0  0
    5.7796   -0.6721   -2.1844 H   0  0  0  0  0  0  0  0  0  0  0  0
    5.6441   -2.3528   -2.6488 H   0  0  0  0  0  0  0  0  0  0  0  0
    3.2885   -0.5624   -1.8909 H   0  0  0  0  0  0  0  0  0  0  0  0
    2.9503   -0.3439   -4.0366 H   0  0  0  0  0  0  0  0  0  0  0  0
    1.8461   -2.2589   -2.8509 H   0  0  0  0  0  0  0  0  0  0  0  0
    2.9633   -4.3013   -3.3528 H   0  0  0  0  0  0  0  0  0  0  0  0
    2.3220   -2.4240   -0.4779 H   0  0  0  0  0  0  0  0  0  0  0  0
    2.1326   -4.9520   -1.6880 H   0  0  0  0  0  0  0  0  0  0  0  0
    3.8543   -3.9197    0.5584 H   0  0  0  0  0  0  0  0  0  0  0  0
    4.1319   -5.0727   -1.6910 H   0  0  0  0  0  0  0  0  0  0  0  0
  1  2  2  0
  2 10  1  0
  2  3  1  6
  3  4  1  0
  3 12  1  0
  3 13  1  0
  4  5  1  0
  4  6  1  0
  4 14  1  1
  5 15  1  0
  6  7  1  0
  6  8  1  0
  6 16  1  6
  7 17  1  0
  8  9  1  0
  8 10  1  0
  8 18  1  1
  9 19  1  0
 10 11  1  0
 10 20  1  1
 11 21  1  0
M  END
>  <i_m_ct_stereo_status>  (79) 
1

>  <s_m_source_file>  (79) 
/var/tmp/pbs.5075288.sched01/tmp228mwnki/64h1usuhcs.sdf

>  <i_m_source_file_index>  (79) 
53

>  <i_lp_mmshare_version>  (79) 
48012

>  <i_f3d_flags>  (79) 
0

>  <s_epik_input>  (79) 
W08tXVtTK10xW0NIMl1bQ0BASF0oW09IXSlbQ0BASF0oW09IXSlbQ0BASF0oW09IXSlbQ0BIXTFbT0hd

>  <s_epik_cmdline>  (79) 
J2VwaWtfcHl0aG9uJywgJy1waHQnLCAnMi4wJywgJy1waCcsICc3LjAnLCAnLXRuJywgJzgnLCAnLW1hJywgJzIwMCcsICctaW1hZScsICc8aW5maWxlLm1hZT4nLCAnLW9tYWUnLCAnPG91dGZpbGUubWFlPic=

>  <r_lp_tautomer_probability>  (79) 
1

>  <r_epik_Ionization_Penalty>  (79) 
4.08094e-06

>  <r_epik_Ionization_Penalty_Charging>  (79) 
0

>  <r_epik_Ionization_Penalty_Neutral>  (79) 
4.08094e-06

>  <r_epik_State_Penalty>  (79) 
-0

>  <r_epik_Charging_Adjusted_Penalty>  (79) 
0

>  <i_epik_Tot_Q>  (79) 
0

>  <i_epik_Tot_abs_Q>  (79) 
2

>  <s_epik_Chemistry_Notes>  (79) 
This compound contains an acetal/aminal-like group ( X-CH(R)-Y where X, Y are N, S, or O) that may be acid/base labile, releasing an aldehyde.

>  <s_lp_Force_Field>  (79) 
OPLS3e

>  <r_lp_Energy>  (79) 
6.43771

>  <b_lp_Chiralities_Consistent>  (79) 
1

>  <s_lp_Variant>  (79) 
52:0-1

>  <s_i_glide_gridfile>  (79) 
pfpi4k_grid

>  <i_i_glide_lignum>  (79) 
53

>  <i_i_glide_rotatable_bonds>  (79) 
4

>  <r_i_docking_score>  (79) 
-5.19362

>  <r_i_glide_ligand_efficiency>  (79) 
-0.472147

>  <r_i_glide_ligand_efficiency_sa>  (79) 
-1.05005

>  <r_i_glide_ligand_efficiency_ln>  (79) 
-1.52848

>  <r_i_glide_gscore>  (79) 
-5.19362

>  <r_i_glide_lipo>  (79) 
-0.0176975

>  <r_i_glide_hbond>  (79) 
0

>  <r_i_glide_metal>  (79) 
-0

>  <r_i_glide_rewards>  (79) 
-2.16685

>  <r_i_glide_evdw>  (79) 
-16.3072

>  <r_i_glide_ecoul>  (79) 
-14.5725

>  <r_i_glide_erotb>  (79) 
0

>  <r_i_glide_esite>  (79) 
-0.00784097

>  <r_i_glide_emodel>  (79) 
-40.1745

>  <r_i_glide_energy>  (79) 
-30.8797

>  <r_i_glide_einternal>  (79) 
1.85547

>  <r_i_glide_intrahb_reward>  (79) 
-0

>  <i_i_glide_confnum>  (79) 
2

>  <i_i_glide_posenum>  (79) 
8

>  <r_i_glide_eff_state_penalty>  (79) 
0

>  <ligand_id>  (79) 
52

>  <original_smiles>  (79) 
[O-][S+]1CC(O)C(O)C(O)C1O

>  <smiles>  (79) 
[H]OC1([H])S(=O)C([H])([H])C([H])(O[H])C([H])(O[H])C1([H])O[H]

$$$$
52:0:2
     RDKit          3D

 21 21  0  0  1  0  0  0  0  0999 V2000
    2.2799   -3.0122    0.7371 O   0  0  0  0  0  0  0  0  0  0  0  0
    3.1894   -3.9009   -0.1176 S   0  0  0  0  0  0  0  0  0  0  0  0
    4.9195   -3.6550    0.4919 C   0  0  0  0  0  0  0  0  0  0  0  0
    5.2014   -2.1499    0.5769 C   0  0  1  0  0  0  0  0  0  0  0  0
    6.4306   -1.9375    1.2353 O   0  0  0  0  0  0  0  0  0  0  0  0
    5.2189   -1.4502   -0.8008 C   0  0  1  0  0  0  0  0  0  0  0  0
    6.3306   -1.8964   -1.5563 O   0  0  0  0  0  0  0  0  0  0  0  0
    3.8810   -1.6374   -1.5619 C   0  0  1  0  0  0  0  0  0  0  0  0
    3.8938   -0.9066   -2.7760 O   0  0  0  0  0  0  0  0  0  0  0  0
    3.3965   -3.0928   -1.7828 C   0  0  1  0  0  0  0  0  0  0  0  0
    4.2556   -3.8243   -2.6429 O   0  0  0  0  0  0  0  0  0  0  0  0
    5.0169   -4.1137    1.4721 H   0  0  0  0  0  0  0  0  0  0  0  0
    5.6248   -4.1624   -0.1665 H   0  0  0  0  0  0  0  0  0  0  0  0
    4.4304   -1.6781    1.1852 H   0  0  0  0  0  0  0  0  0  0  0  0
    6.5317   -1.0133    1.4146 H   0  0  0  0  0  0  0  0  0  0  0  0
    5.3706   -0.3830   -0.6454 H   0  0  0  0  0  0  0  0  0  0  0  0
    6.1588   -2.8009   -1.8103 H   0  0  0  0  0  0  0  0  0  0  0  0
    3.1259   -1.1439   -0.9534 H   0  0  0  0  0  0  0  0  0  0  0  0
    2.9937   -0.7772   -3.0457 H   0  0  0  0  0  0  0  0  0  0  0  0
    2.4121   -3.0617   -2.2531 H   0  0  0  0  0  0  0  0  0  0  0  0
    3.8835   -4.7016   -2.7342 H   0  0  0  0  0  0  0  0  0  0  0  0
  1  2  2  0
  2 10  1  0
  2  3  1  1
  3  4  1  0
  3 12  1  0
  3 13  1  0
  4  5  1  0
  4  6  1  0
  4 14  1  1
  5 15  1  0
  6  7  1  0
  6  8  1  0
  6 16  1  1
  7 17  1  0
  8  9  1  0
  8 10  1  0
  8 18  1  1
  9 19  1  0
 10 11  1  0
 10 20  1  6
 11 21  1  0
M  END
>  <i_m_ct_stereo_status>  (80) 
1

>  <s_m_source_file>  (80) 
/var/tmp/pbs.5075288.sched01/tmp228mwnki/64h1usuhcs.sdf

>  <i_m_source_file_index>  (80) 
53

>  <i_lp_mmshare_version>  (80) 
48012

>  <i_f3d_flags>  (80) 
0

>  <s_epik_input>  (80) 
W08tXVtTK10xW0NIMl1bQ0BASF0oW09IXSlbQ0BASF0oW09IXSlbQ0BASF0oW09IXSlbQ0BIXTFbT0hd

>  <s_epik_cmdline>  (80) 
J2VwaWtfcHl0aG9uJywgJy1waHQnLCAnMi4wJywgJy1waCcsICc3LjAnLCAnLXRuJywgJzgnLCAnLW1hJywgJzIwMCcsICctaW1hZScsICc8aW5maWxlLm1hZT4nLCAnLW9tYWUnLCAnPG91dGZpbGUubWFlPic=

>  <r_lp_tautomer_probability>  (80) 
1

>  <r_epik_Ionization_Penalty>  (80) 
4.08094e-06

>  <r_epik_Ionization_Penalty_Charging>  (80) 
0

>  <r_epik_Ionization_Penalty_Neutral>  (80) 
4.08094e-06

>  <r_epik_State_Penalty>  (80) 
-0

>  <r_epik_Charging_Adjusted_Penalty>  (80) 
0

>  <i_epik_Tot_Q>  (80) 
0

>  <i_epik_Tot_abs_Q>  (80) 
2

>  <s_epik_Chemistry_Notes>  (80) 
This compound contains an acetal/aminal-like group ( X-CH(R)-Y where X, Y are N, S, or O) that may be acid/base labile, releasing an aldehyde.

>  <s_lp_Force_Field>  (80) 
OPLS3e

>  <r_lp_Energy>  (80) 
6.43771

>  <b_lp_Chiralities_Consistent>  (80) 
1

>  <s_lp_Variant>  (80) 
52:0-1

>  <s_i_glide_gridfile>  (80) 
pfpi4k_grid

>  <i_i_glide_lignum>  (80) 
53

>  <i_i_glide_rotatable_bonds>  (80) 
4

>  <r_i_docking_score>  (80) 
-5.01634

>  <r_i_glide_ligand_efficiency>  (80) 
-0.456031

>  <r_i_glide_ligand_efficiency_sa>  (80) 
-1.0142

>  <r_i_glide_ligand_efficiency_ln>  (80) 
-1.47631

>  <r_i_glide_gscore>  (80) 
-5.01634

>  <r_i_glide_lipo>  (80) 
-0.0753258

>  <r_i_glide_hbond>  (80) 
-0.00145342

>  <r_i_glide_metal>  (80) 
-0

>  <r_i_glide_rewards>  (80) 
-2.66685

>  <r_i_glide_evdw>  (80) 
-14.1205

>  <r_i_glide_ecoul>  (80) 
-10.3579

>  <r_i_glide_erotb>  (80) 
0

>  <r_i_glide_esite>  (80) 
-0.0130022

>  <r_i_glide_emodel>  (80) 
-38.4125

>  <r_i_glide_energy>  (80) 
-24.4784

>  <r_i_glide_einternal>  (80) 
1.86765

>  <r_i_glide_intrahb_reward>  (80) 
-0.5

>  <i_i_glide_confnum>  (80) 
1

>  <i_i_glide_posenum>  (80) 
3

>  <r_i_glide_eff_state_penalty>  (80) 
0

>  <ligand_id>  (80) 
52

>  <original_smiles>  (80) 
[O-][S+]1CC(O)C(O)C(O)C1O

>  <smiles>  (80) 
[H]OC1([H])S(=O)C([H])([H])C([H])(O[H])C([H])(O[H])C1([H])O[H]

$$$$
55:0:0
     RDKit          3D

124132  0  0  1  0  0  0  0  0999 V2000
    1.7920  -11.7159    3.1214 C   0  0  0  0  0  0  0  0  0  0  0  0
    1.8070  -10.8672    4.1314 C   0  0  0  0  0  0  0  0  0  0  0  0
    0.6410  -10.7148    5.0718 C   0  0  0  0  0  0  0  0  0  0  0  0
    0.1762   -9.2646    5.0673 C   0  0  0  0  0  0  0  0  0  0  0  0
    1.3021   -8.2731    5.4938 C   0  0  2  0  0  0  0  0  0  0  0  0
    1.6391   -8.7393    6.8294 O   0  0  0  0  0  0  0  0  0  0  0  0
    1.6019   -8.0982    8.1038 C   0  0  2  0  0  0  0  0  0  0  0  0
    2.2241   -9.1649    9.0468 C   0  0  0  0  0  0  0  0  0  0  0  0
    1.3503  -10.2437    9.2959 O   0  0  0  0  0  0  0  0  0  0  0  0
    0.2127   -7.6435    8.5959 C   0  0  0  0  0  0  0  0  0  0  0  0
    0.3791   -6.1651    8.9954 C   0  0  1  0  0  0  0  0  0  0  0  0
   -0.1636   -5.9761   10.2939 O   0  0  0  0  0  0  0  0  0  0  0  0
    1.9098   -5.8048    8.8797 C   0  0  1  0  0  0  0  0  0  0  0  0
    2.6152   -5.8256   10.2767 C   0  0  0  0  0  0  0  0  0  0  0  0
    4.1499   -5.9659   10.3523 C   0  0  0  0  0  0  0  0  0  0  0  0
    2.4273   -6.9639    8.1762 O   0  0  0  0  0  0  0  0  0  0  0  0
    2.3272   -4.6167    7.8828 C   0  0  1  0  0  0  0  0  0  0  0  0
    3.6881   -4.9304    7.6526 O   0  0  0  0  0  0  0  0  0  0  0  0
    1.5088   -4.6267    6.5752 C   0  0  2  0  0  0  0  0  0  0  0  0
    1.8117   -5.7270    5.6114 C   0  0  0  0  0  0  0  0  0  0  0  0
    2.8876   -5.7262    5.0376 O   0  0  0  0  0  0  0  0  0  0  0  0
    0.7392   -6.8201    5.4661 C   0  0  1  0  0  0  0  0  0  0  0  0
   -0.2796   -6.4505    4.3684 C   0  0  0  0  0  0  0  0  0  0  0  0
    1.2806   -3.1648    6.1785 C   0  0  1  0  0  0  0  0  0  0  0  0
    0.1990   -3.0254    5.2892 O   0  0  0  0  0  0  0  0  0  0  0  0
    0.9337   -2.8025    7.4692 O   0  0  0  0  0  0  0  0  0  0  0  0
    2.1111   -3.0593    8.1625 C   0  0  1  0  0  0  0  0  0  0  0  0
    2.0088   -2.7116    9.5184 O   0  0  0  0  0  0  0  0  0  0  0  0
    3.2023   -2.5564   10.2468 C   0  0  0  0  0  0  0  0  0  0  0  0
    3.0258   -2.0656    7.3207 C   0  0  1  0  0  0  0  0  0  0  0  0
    4.5347   -2.3628    7.1374 C   0  0  0  0  0  0  0  0  0  0  0  0
    4.7174   -2.8977    5.6848 C   0  0  0  0  0  0  0  0  0  0  0  0
    3.6318   -2.1974    4.8410 C   0  0  1  0  0  0  0  0  0  0  0  0
    4.1096   -0.8218    5.0023 O   0  0  0  0  0  0  0  0  0  0  0  0
    5.2135   -0.2105    4.3344 C   0  0  0  0  0  0  0  0  0  0  0  0
    3.5166   -2.4901    3.2379 C   0  0  1  0  0  0  0  0  0  0  0  0
    2.7857   -1.3606    2.7564 O   0  0  0  0  0  0  0  0  0  0  0  0
    4.9109   -2.5793    2.5229 C   0  0  0  0  0  0  0  0  0  0  0  0
    4.8932   -3.6212    1.3869 C   0  0  1  0  0  0  0  0  0  0  0  0
    4.5809   -2.9091    0.1921 O   0  0  0  0  0  0  0  0  0  0  0  0
    6.1669   -4.4251    1.1480 C   0  0  1  0  0  0  0  0  0  0  0  0
    7.3234   -3.6027    1.1405 O   0  0  0  0  0  0  0  0  0  0  0  0
    6.1671   -5.6466    2.1241 C   0  0  0  0  0  0  0  0  0  0  0  0
    6.7461   -6.8513    1.3128 C   0  0  0  0  0  0  0  0  0  0  0  0
    8.1697   -6.6700    0.7284 C   0  0  0  0  0  0  0  0  0  0  0  0
    7.0190   -5.4713    3.4206 C   0  0  0  0  0  0  0  0  0  0  0  0
    7.1271   -6.6865    4.3556 C   0  0  0  0  0  0  0  0  0  0  0  0
    4.6355   -5.7970    2.5278 C   0  0  2  0  0  0  0  0  0  0  0  0
    4.1550   -7.3081    2.4004 C   0  0  0  0  0  0  0  0  0  0  0  0
    2.4127   -7.6908    2.9195 S   0  0  0  0  0  0  0  0  0  0  0  0
    1.8501   -8.7074    1.9025 O   0  0  0  0  0  0  0  0  0  0  0  0
    2.5996   -8.5028    4.6010 C   0  0  2  0  0  0  0  0  0  0  0  0
    2.9959   -9.9813    4.4301 C   0  0  0  0  0  0  0  0  0  0  0  0
    3.8280   -4.6669    1.7589 C   0  0  2  0  0  0  0  0  0  0  0  0
    3.4427   -5.2385    0.4986 O   0  0  0  0  0  0  0  0  0  0  0  0
    2.0643   -5.4548    0.2298 C   0  0  0  0  0  0  0  0  0  0  0  0
    2.8039   -3.6953    2.4897 C   0  0  1  0  0  0  0  0  0  0  0  0
    1.7423   -4.2951    3.1503 O   0  0  0  0  0  0  0  0  0  0  0  0
    2.4031   -2.0939    5.8963 C   0  0  1  0  0  0  0  0  0  0  0  0
    1.6995   -0.8778    5.6222 O   0  0  0  0  0  0  0  0  0  0  0  0
    2.6537  -11.8104    2.4757 H   0  0  0  0  0  0  0  0  0  0  0  0
    0.9307  -12.3317    2.9035 H   0  0  0  0  0  0  0  0  0  0  0  0
   -0.1470  -11.3935    4.7520 H   0  0  0  0  0  0  0  0  0  0  0  0
    0.9501  -11.0217    6.0701 H   0  0  0  0  0  0  0  0  0  0  0  0
   -0.1684   -9.0485    4.0501 H   0  0  0  0  0  0  0  0  0  0  0  0
   -0.6835   -9.1708    5.7280 H   0  0  0  0  0  0  0  0  0  0  0  0
    3.1885   -9.5010    8.6359 H   0  0  0  0  0  0  0  0  0  0  0  0
    2.4190   -8.7040   10.0067 H   0  0  0  0  0  0  0  0  0  0  0  0
    1.4121  -10.8796    8.5947 H   0  0  0  0  0  0  0  0  0  0  0  0
   -0.5498   -7.8264    7.8456 H   0  0  0  0  0  0  0  0  0  0  0  0
   -0.1047   -8.2386    9.4523 H   0  0  0  0  0  0  0  0  0  0  0  0
   -0.2945   -5.5764    8.3802 H   0  0  0  0  0  0  0  0  0  0  0  0
    0.4169   -6.3884   10.9140 H   0  0  0  0  0  0  0  0  0  0  0  0
    2.2742   -4.9808   10.8691 H   0  0  0  0  0  0  0  0  0  0  0  0
    2.2053   -6.6755   10.8361 H   0  0  0  0  0  0  0  0  0  0  0  0
    4.4493   -6.1130   11.3923 H   0  0  0  0  0  0  0  0  0  0  0  0
    4.6846   -5.1013    9.9775 H   0  0  0  0  0  0  0  0  0  0  0  0
    4.4685   -6.8949    9.8507 H   0  0  0  0  0  0  0  0  0  0  0  0
    3.7134   -5.8537    7.4252 H   0  0  0  0  0  0  0  0  0  0  0  0
    0.5003   -4.8767    6.8389 H   0  0  0  0  0  0  0  0  0  0  0  0
    0.1105   -6.7403    6.3362 H   0  0  0  0  0  0  0  0  0  0  0  0
   -0.6523   -5.4507    4.5553 H   0  0  0  0  0  0  0  0  0  0  0  0
   -1.1575   -7.0958    4.3828 H   0  0  0  0  0  0  0  0  0  0  0  0
    0.1087   -6.4557    3.3512 H   0  0  0  0  0  0  0  0  0  0  0  0
    0.1170   -2.0974    5.1233 H   0  0  0  0  0  0  0  0  0  0  0  0
    2.9555   -2.5478   11.3004 H   0  0  0  0  0  0  0  0  0  0  0  0
    3.6161   -1.5572   10.0603 H   0  0  0  0  0  0  0  0  0  0  0  0
    3.8891   -3.3265   10.0195 H   0  0  0  0  0  0  0  0  0  0  0  0
    2.9161   -1.0636    7.7484 H   0  0  0  0  0  0  0  0  0  0  0  0
    5.0693   -1.4168    7.1832 H   0  0  0  0  0  0  0  0  0  0  0  0
    5.0173   -2.9639    7.8976 H   0  0  0  0  0  0  0  0  0  0  0  0
    5.7312   -2.6996    5.3453 H   0  0  0  0  0  0  0  0  0  0  0  0
    4.5839   -3.9702    5.6140 H   0  0  0  0  0  0  0  0  0  0  0  0
    5.5369    0.6623    4.8998 H   0  0  0  0  0  0  0  0  0  0  0  0
    4.9297    0.1552    3.3495 H   0  0  0  0  0  0  0  0  0  0  0  0
    6.0833   -0.8477    4.2430 H   0  0  0  0  0  0  0  0  0  0  0  0
    2.7728   -1.3751    1.8095 H   0  0  0  0  0  0  0  0  0  0  0  0
    5.2655   -1.6219    2.1316 H   0  0  0  0  0  0  0  0  0  0  0  0
    5.6709   -2.8872    3.2305 H   0  0  0  0  0  0  0  0  0  0  0  0
    3.7166   -2.5464    0.2732 H   0  0  0  0  0  0  0  0  0  0  0  0
    6.1013   -4.7985    0.1258 H   0  0  0  0  0  0  0  0  0  0  0  0
    8.0771   -4.1728    1.1647 H   0  0  0  0  0  0  0  0  0  0  0  0
    6.7498   -7.7739    1.9047 H   0  0  0  0  0  0  0  0  0  0  0  0
    6.0615   -7.0271    0.5140 H   0  0  0  0  0  0  0  0  0  0  0  0
    8.4637   -7.5611    0.1697 H   0  0  0  0  0  0  0  0  0  0  0  0
    8.9272   -6.5213    1.5077 H   0  0  0  0  0  0  0  0  0  0  0  0
    8.2388   -5.8385    0.0289 H   0  0  0  0  0  0  0  0  0  0  0  0
    8.0313   -5.2082    3.1369 H   0  0  0  0  0  0  0  0  0  0  0  0
    6.6063   -4.6610    4.0136 H   0  0  0  0  0  0  0  0  0  0  0  0
    7.7130   -6.4229    5.2374 H   0  0  0  0  0  0  0  0  0  0  0  0
    7.6475   -7.5234    3.8903 H   0  0  0  0  0  0  0  0  0  0  0  0
    6.1517   -7.0311    4.7049 H   0  0  0  0  0  0  0  0  0  0  0  0
    4.6074   -5.5306    3.5698 H   0  0  0  0  0  0  0  0  0  0  0  0
    4.1886   -7.6202    1.3614 H   0  0  0  0  0  0  0  0  0  0  0  0
    4.8123   -7.9791    2.9551 H   0  0  0  0  0  0  0  0  0  0  0  0
    3.4537   -8.0465    5.0954 H   0  0  0  0  0  0  0  0  0  0  0  0
    3.4295  -10.3594    5.3538 H   0  0  0  0  0  0  0  0  0  0  0  0
    3.7404  -10.1039    3.6405 H   0  0  0  0  0  0  0  0  0  0  0  0
    1.9330   -6.0933   -0.6386 H   0  0  0  0  0  0  0  0  0  0  0  0
    1.5868   -4.5120   -0.0153 H   0  0  0  0  0  0  0  0  0  0  0  0
    1.5423   -5.9283    1.0571 H   0  0  0  0  0  0  0  0  0  0  0  0
    2.2788   -3.2399    1.6433 H   0  0  0  0  0  0  0  0  0  0  0  0
    2.1215   -4.7834    3.8746 H   0  0  0  0  0  0  0  0  0  0  0  0
    1.5995   -0.8075    4.6821 H   0  0  0  0  0  0  0  0  0  0  0  0
  1  2  2  0
  1 61  1  0
  1 62  1  0
  2 53  1  0
  2  3  1  0
  3  4  1  0
  3 63  1  0
  3 64  1  0
  4  5  1  0
  4 65  1  0
  4 66  1  0
  5 22  1  0
  5 52  1  0
  5  6  1  1
  6  7  1  0
  7 16  1  0
  7  8  1  1
  7 10  1  0
  8  9  1  0
  8 67  1  0
  8 68  1  0
  9 69  1  0
 10 11  1  0
 10 70  1  0
 10 71  1  0
 11 12  1  0
 11 13  1  0
 11 72  1  6
 12 73  1  0
 13 14  1  1
 13 16  1  0
 13 17  1  0
 14 15  1  0
 14 74  1  0
 14 75  1  0
 15 76  1  0
 15 77  1  0
 15 78  1  0
 17 27  1  0
 17 18  1  6
 17 19  1  0
 18 79  1  0
 19 20  1  0
 19 24  1  0
 19 80  1  1
 20 21  2  0
 20 22  1  0
 22 23  1  0
 22 81  1  1
 23 82  1  0
 23 83  1  0
 23 84  1  0
 24 59  1  0
 24 25  1  6
 24 26  1  0
 25 85  1  0
 26 27  1  0
 27 28  1  1
 27 30  1  0
 28 29  1  0
 29 86  1  0
 29 87  1  0
 29 88  1  0
 30 59  1  0
 30 31  1  0
 30 89  1  1
 31 32  1  0
 31 90  1  0
 31 91  1  0
 32 33  1  0
 32 92  1  0
 32 93  1  0
 33 34  1  6
 33 36  1  0
 33 59  1  0
 34 35  1  0
 35 94  1  0
 35 95  1  0
 35 96  1  0
 36 57  1  0
 36 37  1  6
 36 38  1  0
 37 97  1  0
 38 39  1  0
 38 98  1  0
 38 99  1  0
 39 54  1  0
 39 40  1  6
 39 41  1  0
 40100  1  0
 41 42  1  0
 41 43  1  0
 41101  1  6
 42102  1  0
 43 44  1  0
 43 46  1  0
 43 48  1  0
 44 45  1  0
 44103  1  0
 44104  1  0
 45105  1  0
 45106  1  0
 45107  1  0
 46 47  1  0
 46108  1  0
 46109  1  0
 47110  1  0
 47111  1  0
 47112  1  0
 48 49  1  0
 48 54  1  0
 48113  1  1
 50 49  1  6
 49114  1  0
 49115  1  0
 50 51  2  0
 50 52  1  0
 52 53  1  0
 52116  1  1
 53117  1  0
 53118  1  0
 54 55  1  6
 54 57  1  0
 55 56  1  0
 56119  1  0
 56120  1  0
 56121  1  0
 57 58  1  0
 57122  1  6
 58123  1  0
 59 60  1  6
 60124  1  0
M  END
>  <i_m_ct_stereo_status>  (81) 
1

>  <s_m_source_file>  (81) 
/var/tmp/pbs.5075288.sched01/tmp_km6m70o/128goojv9vu.sdf

>  <i_m_source_file_index>  (81) 
26

>  <i_lp_mmshare_version>  (81) 
48012

>  <i_f3d_flags>  (81) 
0

>  <s_epik_input>  (81) 
W0NIMl0xW0NIMl1DKD1bQ0gyXSlbQ0gyXVtDQEhdKFtDQEBdMTIzKVtTK10oW08tXSlbQ0gyXVtDQEBIXTRbQ0BdNShPW0NIM10pW0NAXShbT0hdKShbQ0BASF0oW09IXSlDNChbQ0gyXVtDSDNdKVtDSDJdW0NIM10pW0NIMl1bQ0BAXShbT0hdKShbQ0BASF01W09IXSlbQ0BAXTYoT1tDSDNdKVtDQEBdNyhbT0hdKVtDQEBdOChbT0hdKVtDQEhdKEMoPU8pW0NASF0zW0NIM10pW0NAQF0oW09IXSkoW0NAQF0oTzgpKE9bQ0gzXSlbQ0BIXTdbQ0gyXVtDSDJdNilbQ0BAXTkoW0NIMl1bQ0gzXSlbQ0BIXShbT0hdKVtDSDJdW0NAQF0oTzIpKE85KVtDSDJdW09IXQ==

>  <s_epik_cmdline>  (81) 
J2VwaWtfcHl0aG9uJywgJy1waHQnLCAnMi4wJywgJy1waCcsICc3LjAnLCAnLXRuJywgJzgnLCAnLW1hJywgJzIwMCcsICctaW1hZScsICc8aW5maWxlLm1hZT4nLCAnLW9tYWUnLCAnPG91dGZpbGUubWFlPic=

>  <r_lp_tautomer_probability>  (81) 
1

>  <r_epik_Ionization_Penalty>  (81) 
0.000412488

>  <r_epik_Ionization_Penalty_Charging>  (81) 
0

>  <r_epik_Ionization_Penalty_Neutral>  (81) 
0.000412488

>  <r_epik_State_Penalty>  (81) 
0.000237027

>  <r_epik_Charging_Adjusted_Penalty>  (81) 
0.000237027

>  <i_epik_Tot_Q>  (81) 
0

>  <i_epik_Tot_abs_Q>  (81) 
2

>  <s_lp_Force_Field>  (81) 
OPLS3e

>  <r_lp_Energy>  (81) 
196.051

>  <b_lp_Chiralities_Consistent>  (81) 
1

>  <s_lp_Variant>  (81) 
55:0-1

>  <s_i_glide_gridfile>  (81) 
pfpi4k_grid

>  <i_i_glide_lignum>  (81) 
26

>  <i_i_glide_rotatable_bonds>  (81) 
16

>  <r_i_docking_score>  (81) 
-2.95449

>  <r_i_glide_ligand_efficiency>  (81) 
-0.0492414

>  <r_i_glide_ligand_efficiency_sa>  (81) 
-0.192774

>  <r_i_glide_ligand_efficiency_ln>  (81) 
-0.579954

>  <r_i_glide_gscore>  (81) 
-2.95449

>  <r_i_glide_lipo>  (81) 
-0.425452

>  <r_i_glide_hbond>  (81) 
0

>  <r_i_glide_metal>  (81) 
-0

>  <r_i_glide_rewards>  (81) 
-0.5

>  <r_i_glide_evdw>  (81) 
-24.2053

>  <r_i_glide_ecoul>  (81) 
-5.49373

>  <r_i_glide_erotb>  (81) 
0.0288421

>  <r_i_glide_esite>  (81) 
-0.0235516

>  <r_i_glide_emodel>  (81) 
-39.0473

>  <r_i_glide_energy>  (81) 
-29.699

>  <r_i_glide_einternal>  (81) 
2.38495

>  <r_i_glide_intrahb_reward>  (81) 
-0.5

>  <i_i_glide_confnum>  (81) 
4

>  <i_i_glide_posenum>  (81) 
22

>  <r_i_glide_eff_state_penalty>  (81) 
0

>  <ligand_id>  (81) 
55

>  <original_smiles>  (81) 
C=C1CCC23OC4(CO)CC(O)C(CC)(O4)C4(O)C(C(=O)C2C)C2(O)OC4(OC)C4CCC(OC)(C5(O)CC6(O)C(O)C(CC)(CC)C(C[S+]([O-])C3C1)C6(OC)C5O)C42O

>  <smiles>  (81) 
[H]OC([H])([H])C12OC34C([H])([H])C([H])([H])C(=C([H])[H])C([H])([H])C3([H])S(=O)C([H])([H])C3([H])C5(OC([H])([H])[H])C([H])(O[H])C(O[H])(C([H])([H])C5(O[H])C([H])(O[H])C3(C([H])([H])C([H])([H])[H])C([H])([H])C([H])([H])[H])C3(OC([H])([H])[H])C([H])([H])C([H])([H])C5([H])C6(OC([H])([H])[H])OC(O[H])(C([H])(C(=O)C4([H])C([H])([H])[H])C6(O[H])C(C([H])([H])C([H])([H])[H])(O1)C([H])(O[H])C2([H])[H])C53O[H]

$$$$
55:0:1
     RDKit          3D

124132  0  0  1  0  0  0  0  0999 V2000
    4.5459   -3.4030   -1.3708 C   0  0  0  0  0  0  0  0  0  0  0  0
    3.9150   -2.7218   -0.4527 C   0  0  0  0  0  0  0  0  0  0  0  0
    4.2844   -1.2927   -0.0590 C   0  0  0  0  0  0  0  0  0  0  0  0
    4.6254   -1.2426    1.4332 C   0  0  0  0  0  0  0  0  0  0  0  0
    3.4498   -1.6824    2.3602 C   0  0  2  0  0  0  0  0  0  0  0  0
    2.4006   -0.7251    2.0137 O   0  0  0  0  0  0  0  0  0  0  0  0
    1.6796    0.2363    2.7895 C   0  0  2  0  0  0  0  0  0  0  0  0
    0.6323    0.8116    1.7935 C   0  0  0  0  0  0  0  0  0  0  0  0
   -0.0321    1.9780    2.2417 O   0  0  0  0  0  0  0  0  0  0  0  0
    2.5503    1.3393    3.4072 C   0  0  0  0  0  0  0  0  0  0  0  0
    2.1465    1.3761    4.8924 C   0  0  1  0  0  0  0  0  0  0  0  0
    1.8939    2.7386    5.2197 O   0  0  0  0  0  0  0  0  0  0  0  0
    0.9467    0.3604    5.1142 C   0  0  1  0  0  0  0  0  0  0  0  0
   -0.4558    1.0863    5.1935 C   0  0  0  0  0  0  0  0  0  0  0  0
   -1.7313    0.2821    4.8800 C   0  0  0  0  0  0  0  0  0  0  0  0
    0.9578   -0.3342    3.8391 O   0  0  0  0  0  0  0  0  0  0  0  0
    1.1529   -0.8890    6.1273 C   0  0  1  0  0  0  0  0  0  0  0  0
    0.1458   -1.7811    5.6938 O   0  0  0  0  0  0  0  0  0  0  0  0
    2.5766   -1.4739    6.0771 C   0  0  2  0  0  0  0  0  0  0  0  0
    2.8846   -2.2603    4.8495 C   0  0  0  0  0  0  0  0  0  0  0  0
    2.2628   -3.2819    4.6398 O   0  0  0  0  0  0  0  0  0  0  0  0
    3.8857   -1.6165    3.8656 C   0  0  1  0  0  0  0  0  0  0  0  0
    5.3521   -1.9599    4.2320 C   0  0  0  0  0  0  0  0  0  0  0  0
    2.9545   -1.8983    7.5035 C   0  0  1  0  0  0  0  0  0  0  0  0
    4.3510   -2.0259    7.6499 O   0  0  0  0  0  0  0  0  0  0  0  0
    2.4715   -0.7148    8.0387 O   0  0  0  0  0  0  0  0  0  0  0  0
    1.1222   -0.7764    7.7106 C   0  0  1  0  0  0  0  0  0  0  0  0
    0.3692    0.2745    8.2089 O   0  0  0  0  0  0  0  0  0  0  0  0
    0.9918    1.5692    8.1583 C   0  0  0  0  0  0  0  0  0  0  0  0
    0.8347   -2.1209    8.5254 C   0  0  1  0  0  0  0  0  0  0  0  0
   -0.2856   -3.0812    8.0961 C   0  0  0  0  0  0  0  0  0  0  0  0
    0.4477   -4.2375    7.4172 C   0  0  0  0  0  0  0  0  0  0  0  0
    1.8099   -4.4439    8.1143 C   0  0  1  0  0  0  0  0  0  0  0  0
    1.2970   -4.8261    9.4278 O   0  0  0  0  0  0  0  0  0  0  0  0
    0.6515   -6.0572    9.7774 C   0  0  0  0  0  0  0  0  0  0  0  0
    2.8411   -5.6381    7.6437 C   0  0  1  0  0  0  0  0  0  0  0  0
    3.7079   -5.7974    8.7718 O   0  0  0  0  0  0  0  0  0  0  0  0
    2.1770   -7.0102    7.3764 C   0  0  0  0  0  0  0  0  0  0  0  0
    2.7756   -7.7718    6.1761 C   0  0  1  0  0  0  0  0  0  0  0  0
    3.7428   -8.6574    6.7627 O   0  0  0  0  0  0  0  0  0  0  0  0
    1.7715   -8.5289    5.2795 C   0  0  1  0  0  0  0  0  0  0  0  0
    0.7884   -9.2253    6.0168 O   0  0  0  0  0  0  0  0  0  0  0  0
    1.3350   -7.6049    4.0969 C   0  0  0  0  0  0  0  0  0  0  0  0
    1.3323   -8.3998    2.7350 C   0  0  0  0  0  0  0  0  0  0  0  0
    0.5490   -9.7185    2.7128 C   0  0  0  0  0  0  0  0  0  0  0  0
   -0.1572   -7.0843    4.2678 C   0  0  0  0  0  0  0  0  0  0  0  0
   -0.5171   -6.4448    5.5627 C   0  0  0  0  0  0  0  0  0  0  0  0
    2.3960   -6.3864    4.1328 C   0  0  2  0  0  0  0  0  0  0  0  0
    2.8730   -5.9251    2.6767 C   0  0  0  0  0  0  0  0  0  0  0  0
    4.0409   -4.4813    2.5629 S   0  0  0  0  0  0  0  0  0  0  0  0
    5.0837   -4.8267    1.4776 O   0  0  0  0  0  0  0  0  0  0  0  0
    2.9381   -3.1120    1.8938 C   0  0  2  0  0  0  0  0  0  0  0  0
    2.7500   -3.2739    0.3701 C   0  0  0  0  0  0  0  0  0  0  0  0
    3.4707   -6.7211    5.2623 C   0  0  2  0  0  0  0  0  0  0  0  0
    4.6208   -7.3564    4.6276 O   0  0  0  0  0  0  0  0  0  0  0  0
    4.5120   -8.5096    3.8075 C   0  0  0  0  0  0  0  0  0  0  0  0
    3.8522   -5.6554    6.3961 C   0  0  1  0  0  0  0  0  0  0  0  0
    4.3937   -4.4231    6.0111 O   0  0  0  0  0  0  0  0  0  0  0  0
    2.1722   -2.9076    8.4293 C   0  0  1  0  0  0  0  0  0  0  0  0
    2.8662   -2.8849    9.6769 O   0  0  0  0  0  0  0  0  0  0  0  0
    4.2758   -4.4352   -1.6123 H   0  0  0  0  0  0  0  0  0  0  0  0
    5.3889   -2.9938   -1.9270 H   0  0  0  0  0  0  0  0  0  0  0  0
    5.1361   -0.9578   -0.6551 H   0  0  0  0  0  0  0  0  0  0  0  0
    3.4586   -0.6253   -0.2974 H   0  0  0  0  0  0  0  0  0  0  0  0
    5.4806   -1.9052    1.5777 H   0  0  0  0  0  0  0  0  0  0  0  0
    4.9598   -0.2427    1.6983 H   0  0  0  0  0  0  0  0  0  0  0  0
    1.1545    1.0636    0.8580 H   0  0  0  0  0  0  0  0  0  0  0  0
   -0.0914    0.0337    1.5553 H   0  0  0  0  0  0  0  0  0  0  0  0
    0.1435    2.7064    1.6621 H   0  0  0  0  0  0  0  0  0  0  0  0
    3.6135    1.1769    3.2454 H   0  0  0  0  0  0  0  0  0  0  0  0
    2.3434    2.2889    2.9133 H   0  0  0  0  0  0  0  0  0  0  0  0
    3.0136    1.1544    5.4964 H   0  0  0  0  0  0  0  0  0  0  0  0
    1.2040    3.0687    4.6857 H   0  0  0  0  0  0  0  0  0  0  0  0
   -0.6339    1.5618    6.1472 H   0  0  0  0  0  0  0  0  0  0  0  0
   -0.4506    1.9276    4.5132 H   0  0  0  0  0  0  0  0  0  0  0  0
   -2.5751    0.9679    4.8087 H   0  0  0  0  0  0  0  0  0  0  0  0
   -1.9675   -0.4342    5.6675 H   0  0  0  0  0  0  0  0  0  0  0  0
   -1.6580   -0.2458    3.9266 H   0  0  0  0  0  0  0  0  0  0  0  0
    0.3641   -2.6411    6.0102 H   0  0  0  0  0  0  0  0  0  0  0  0
    3.2772   -0.6522    5.9833 H   0  0  0  0  0  0  0  0  0  0  0  0
    3.8893   -0.5684    4.1159 H   0  0  0  0  0  0  0  0  0  0  0  0
    5.5652   -1.7303    5.2764 H   0  0  0  0  0  0  0  0  0  0  0  0
    6.0497   -1.3521    3.6548 H   0  0  0  0  0  0  0  0  0  0  0  0
    5.6255   -3.0020    4.0899 H   0  0  0  0  0  0  0  0  0  0  0  0
    4.5261   -2.0535    8.5695 H   0  0  0  0  0  0  0  0  0  0  0  0
    0.4361    2.2804    8.7736 H   0  0  0  0  0  0  0  0  0  0  0  0
    0.9763    1.9774    7.1772 H   0  0  0  0  0  0  0  0  0  0  0  0
    2.0383    1.5661    8.4667 H   0  0  0  0  0  0  0  0  0  0  0  0
    0.6367   -1.8309    9.5617 H   0  0  0  0  0  0  0  0  0  0  0  0
   -0.7752   -3.4938    8.9788 H   0  0  0  0  0  0  0  0  0  0  0  0
   -1.0972   -2.6761    7.4963 H   0  0  0  0  0  0  0  0  0  0  0  0
   -0.2202   -5.0781    7.4700 H   0  0  0  0  0  0  0  0  0  0  0  0
    0.6413   -3.9994    6.3804 H   0  0  0  0  0  0  0  0  0  0  0  0
    0.0621   -5.8841   10.6760 H   0  0  0  0  0  0  0  0  0  0  0  0
    1.3731   -6.8251   10.0482 H   0  0  0  0  0  0  0  0  0  0  0  0
   -0.0369   -6.4614    9.0366 H   0  0  0  0  0  0  0  0  0  0  0  0
    4.1820   -6.5964    8.6539 H   0  0  0  0  0  0  0  0  0  0  0  0
    2.0701   -7.6662    8.2365 H   0  0  0  0  0  0  0  0  0  0  0  0
    1.1920   -6.7400    7.1279 H   0  0  0  0  0  0  0  0  0  0  0  0
    3.2820   -9.3332    7.2237 H   0  0  0  0  0  0  0  0  0  0  0  0
    2.2428   -9.3959    4.8473 H   0  0  0  0  0  0  0  0  0  0  0  0
    1.1678  -10.0315    6.3157 H   0  0  0  0  0  0  0  0  0  0  0  0
    0.9825   -7.7696    1.9236 H   0  0  0  0  0  0  0  0  0  0  0  0
    2.3157   -8.7208    2.4307 H   0  0  0  0  0  0  0  0  0  0  0  0
    0.6931  -10.2070    1.7509 H   0  0  0  0  0  0  0  0  0  0  0  0
   -0.5261   -9.5744    2.8558 H   0  0  0  0  0  0  0  0  0  0  0  0
    0.9032  -10.4315    3.4613 H   0  0  0  0  0  0  0  0  0  0  0  0
   -0.3683   -6.3594    3.4733 H   0  0  0  0  0  0  0  0  0  0  0  0
   -0.8563   -7.9234    4.1742 H   0  0  0  0  0  0  0  0  0  0  0  0
   -1.4837   -5.9732    5.6168 H   0  0  0  0  0  0  0  0  0  0  0  0
    0.2188   -5.6752    5.6482 H   0  0  0  0  0  0  0  0  0  0  0  0
   -0.4478   -7.1422    6.3940 H   0  0  0  0  0  0  0  0  0  0  0  0
    1.8776   -5.5242    4.5095 H   0  0  0  0  0  0  0  0  0  0  0  0
    3.4223   -6.6856    2.1611 H   0  0  0  0  0  0  0  0  0  0  0  0
    2.0136   -5.7241    2.0405 H   0  0  0  0  0  0  0  0  0  0  0  0
    1.9497   -3.2845    2.3122 H   0  0  0  0  0  0  0  0  0  0  0  0
    1.8554   -2.7277    0.0708 H   0  0  0  0  0  0  0  0  0  0  0  0
    2.5669   -4.3181    0.0984 H   0  0  0  0  0  0  0  0  0  0  0  0
    5.4678   -8.9182    3.5534 H   0  0  0  0  0  0  0  0  0  0  0  0
    4.0795   -8.3087    2.8660 H   0  0  0  0  0  0  0  0  0  0  0  0
    3.9995   -9.3420    4.2634 H   0  0  0  0  0  0  0  0  0  0  0  0
    4.7580   -6.1190    6.7805 H   0  0  0  0  0  0  0  0  0  0  0  0
    4.7614   -4.0239    6.7770 H   0  0  0  0  0  0  0  0  0  0  0  0
    3.6500   -3.3888    9.5846 H   0  0  0  0  0  0  0  0  0  0  0  0
  1  2  2  0
  1 61  1  0
  1 62  1  0
  2 53  1  0
  2  3  1  0
  3  4  1  0
  3 63  1  0
  3 64  1  0
  4  5  1  0
  4 65  1  0
  4 66  1  0
  5 22  1  0
  5 52  1  0
  5  6  1  1
  6  7  1  0
  7 16  1  0
  7  8  1  6
  7 10  1  0
  8  9  1  0
  8 67  1  0
  8 68  1  0
  9 69  1  0
 10 11  1  0
 10 70  1  0
 10 71  1  0
 11 12  1  0
 11 13  1  0
 11 72  1  1
 12 73  1  0
 13 14  1  1
 13 16  1  0
 13 17  1  0
 14 15  1  0
 14 74  1  0
 14 75  1  0
 15 76  1  0
 15 77  1  0
 15 78  1  0
 17 27  1  0
 17 18  1  6
 17 19  1  0
 18 79  1  0
 19 20  1  0
 19 24  1  0
 19 80  1  6
 20 21  2  0
 20 22  1  0
 22 23  1  0
 22 81  1  1
 23 82  1  0
 23 83  1  0
 23 84  1  0
 24 59  1  0
 24 25  1  6
 24 26  1  0
 25 85  1  0
 26 27  1  0
 27 28  1  6
 27 30  1  0
 28 29  1  0
 29 86  1  0
 29 87  1  0
 29 88  1  0
 30 59  1  0
 30 31  1  0
 30 89  1  1
 31 32  1  0
 31 90  1  0
 31 91  1  0
 32 33  1  0
 32 92  1  0
 32 93  1  0
 33 34  1  1
 33 36  1  0
 33 59  1  0
 34 35  1  0
 35 94  1  0
 35 95  1  0
 35 96  1  0
 36 57  1  0
 36 37  1  1
 36 38  1  0
 37 97  1  0
 38 39  1  0
 38 98  1  0
 38 99  1  0
 39 54  1  0
 39 40  1  1
 39 41  1  0
 40100  1  0
 41 42  1  0
 41 43  1  0
 41101  1  6
 42102  1  0
 43 44  1  0
 43 46  1  0
 43 48  1  0
 44 45  1  0
 44103  1  0
 44104  1  0
 45105  1  0
 45106  1  0
 45107  1  0
 46 47  1  0
 46108  1  0
 46109  1  0
 47110  1  0
 47111  1  0
 47112  1  0
 48 49  1  0
 48 54  1  0
 48113  1  1
 50 49  1  6
 49114  1  0
 49115  1  0
 50 51  2  0
 50 52  1  0
 52 53  1  0
 52116  1  1
 53117  1  0
 53118  1  0
 54 55  1  6
 54 57  1  0
 55 56  1  0
 56119  1  0
 56120  1  0
 56121  1  0
 57 58  1  0
 57122  1  1
 58123  1  0
 59 60  1  1
 60124  1  0
M  END
>  <i_m_ct_stereo_status>  (82) 
1

>  <s_m_source_file>  (82) 
/var/tmp/pbs.5075288.sched01/tmp_km6m70o/128goojv9vu.sdf

>  <i_m_source_file_index>  (82) 
26

>  <i_lp_mmshare_version>  (82) 
48012

>  <i_f3d_flags>  (82) 
0

>  <s_epik_input>  (82) 
W0NIMl0xW0NIMl1DKD1bQ0gyXSlbQ0gyXVtDQEhdKFtDQEBdMTIzKVtTK10oW08tXSlbQ0gyXVtDQEBIXTRbQ0BdNShPW0NIM10pW0NAXShbT0hdKShbQ0BASF0oW09IXSlDNChbQ0gyXVtDSDNdKVtDSDJdW0NIM10pW0NIMl1bQ0BAXShbT0hdKShbQ0BASF01W09IXSlbQ0BAXTYoT1tDSDNdKVtDQEBdNyhbT0hdKVtDQEBdOChbT0hdKVtDQEhdKEMoPU8pW0NASF0zW0NIM10pW0NAQF0oW09IXSkoW0NAQF0oTzgpKE9bQ0gzXSlbQ0BIXTdbQ0gyXVtDSDJdNilbQ0BAXTkoW0NIMl1bQ0gzXSlbQ0BIXShbT0hdKVtDSDJdW0NAQF0oTzIpKE85KVtDSDJdW09IXQ==

>  <s_epik_cmdline>  (82) 
J2VwaWtfcHl0aG9uJywgJy1waHQnLCAnMi4wJywgJy1waCcsICc3LjAnLCAnLXRuJywgJzgnLCAnLW1hJywgJzIwMCcsICctaW1hZScsICc8aW5maWxlLm1hZT4nLCAnLW9tYWUnLCAnPG91dGZpbGUubWFlPic=

>  <r_lp_tautomer_probability>  (82) 
1

>  <r_epik_Ionization_Penalty>  (82) 
0.000412488

>  <r_epik_Ionization_Penalty_Charging>  (82) 
0

>  <r_epik_Ionization_Penalty_Neutral>  (82) 
0.000412488

>  <r_epik_State_Penalty>  (82) 
0.000237027

>  <r_epik_Charging_Adjusted_Penalty>  (82) 
0.000237027

>  <i_epik_Tot_Q>  (82) 
0

>  <i_epik_Tot_abs_Q>  (82) 
2

>  <s_lp_Force_Field>  (82) 
OPLS3e

>  <r_lp_Energy>  (82) 
196.051

>  <b_lp_Chiralities_Consistent>  (82) 
1

>  <s_lp_Variant>  (82) 
55:0-1

>  <s_i_glide_gridfile>  (82) 
pfpi4k_grid

>  <i_i_glide_lignum>  (82) 
26

>  <i_i_glide_rotatable_bonds>  (82) 
16

>  <r_i_docking_score>  (82) 
-1.43913

>  <r_i_glide_ligand_efficiency>  (82) 
-0.0239855

>  <r_i_glide_ligand_efficiency_sa>  (82) 
-0.0938999

>  <r_i_glide_ligand_efficiency_ln>  (82) 
-0.282495

>  <r_i_glide_gscore>  (82) 
-1.43913

>  <r_i_glide_lipo>  (82) 
-0.121321

>  <r_i_glide_hbond>  (82) 
0

>  <r_i_glide_metal>  (82) 
-0

>  <r_i_glide_rewards>  (82) 
-0.5

>  <r_i_glide_evdw>  (82) 
-30.3915

>  <r_i_glide_ecoul>  (82) 
-3.22092

>  <r_i_glide_erotb>  (82) 
0.0288421

>  <r_i_glide_esite>  (82) 
-0.0261784

>  <r_i_glide_emodel>  (82) 
-29.3378

>  <r_i_glide_energy>  (82) 
-33.6124

>  <r_i_glide_einternal>  (82) 
14.388

>  <r_i_glide_intrahb_reward>  (82) 
-0.5

>  <i_i_glide_confnum>  (82) 
6

>  <i_i_glide_posenum>  (82) 
4

>  <r_i_glide_eff_state_penalty>  (82) 
0

>  <ligand_id>  (82) 
55

>  <original_smiles>  (82) 
C=C1CCC23OC4(CO)CC(O)C(CC)(O4)C4(O)C(C(=O)C2C)C2(O)OC4(OC)C4CCC(OC)(C5(O)CC6(O)C(O)C(CC)(CC)C(C[S+]([O-])C3C1)C6(OC)C5O)C42O

>  <smiles>  (82) 
[H]OC([H])([H])C12OC34C([H])([H])C([H])([H])C(=C([H])[H])C([H])([H])C3([H])S(=O)C([H])([H])C3([H])C5(OC([H])([H])[H])C([H])(O[H])C(O[H])(C([H])([H])C5(O[H])C([H])(O[H])C3(C([H])([H])C([H])([H])[H])C([H])([H])C([H])([H])[H])C3(OC([H])([H])[H])C([H])([H])C([H])([H])C5([H])C6(OC([H])([H])[H])OC(O[H])(C([H])(C(=O)C4([H])C([H])([H])[H])C6(O[H])C(C([H])([H])C([H])([H])[H])(O1)C([H])(O[H])C2([H])[H])C53O[H]

$$$$
55:0:2
     RDKit          3D

124132  0  0  1  0  0  0  0  0999 V2000
    4.7292   -3.6796   -1.4052 C   0  0  0  0  0  0  0  0  0  0  0  0
    4.0455   -2.9484   -0.4961 C   0  0  0  0  0  0  0  0  0  0  0  0
    4.4274   -1.5325   -0.1366 C   0  0  0  0  0  0  0  0  0  0  0  0
    4.7180   -1.4565    1.3699 C   0  0  0  0  0  0  0  0  0  0  0  0
    3.5129   -1.8665    2.2634 C   0  0  2  0  0  0  0  0  0  0  0  0
    2.4823   -0.9120    1.8654 O   0  0  0  0  0  0  0  0  0  0  0  0
    1.7430    0.0675    2.5980 C   0  0  2  0  0  0  0  0  0  0  0  0
    0.7475    0.6224    1.5539 C   0  0  0  0  0  0  0  0  0  0  0  0
    0.0178    1.7523    1.9698 O   0  0  0  0  0  0  0  0  0  0  0  0
    2.5986    1.1850    3.2168 C   0  0  0  0  0  0  0  0  0  0  0  0
    2.1479    1.2531    4.6864 C   0  0  1  0  0  0  0  0  0  0  0  0
    1.8961    2.6261    4.9812 O   0  0  0  0  0  0  0  0  0  0  0  0
    0.9324    0.2519    4.8898 C   0  0  1  0  0  0  0  0  0  0  0  0
   -0.4631    0.9902    4.9105 C   0  0  0  0  0  0  0  0  0  0  0  0
   -1.7395    0.1869    4.6061 C   0  0  0  0  0  0  0  0  0  0  0  0
    0.9775   -0.4767    3.6323 O   0  0  0  0  0  0  0  0  0  0  0  0
    1.0934   -0.9728    5.9372 C   0  0  1  0  0  0  0  0  0  0  0  0
    0.1010   -1.8737    5.4718 O   0  0  0  0  0  0  0  0  0  0  0  0
    2.5145   -1.5704    5.9444 C   0  0  2  0  0  0  0  0  0  0  0  0
    2.8652   -2.3666    4.7452 C   0  0  0  0  0  0  0  0  0  0  0  0
    2.2641   -3.4229    4.5489 O   0  0  0  0  0  0  0  0  0  0  0  0
    3.8943   -1.7699    3.7826 C   0  0  1  0  0  0  0  0  0  0  0  0
    5.3454   -2.1221    4.2050 C   0  0  0  0  0  0  0  0  0  0  0  0
    2.8269   -1.9675    7.3863 C   0  0  1  0  0  0  0  0  0  0  0  0
    4.2321   -2.0853    7.5916 O   0  0  0  0  0  0  0  0  0  0  0  0
    2.3468   -0.7736    7.8880 O   0  0  0  0  0  0  0  0  0  0  0  0
    1.0062   -0.8372    7.5104 C   0  0  1  0  0  0  0  0  0  0  0  0
    0.2493    0.2376    7.9635 O   0  0  0  0  0  0  0  0  0  0  0  0
    0.8974    1.5157    7.9169 C   0  0  0  0  0  0  0  0  0  0  0  0
    0.6840   -2.1553    8.3459 C   0  0  1  0  0  0  0  0  0  0  0  0
   -0.4347   -3.1188    7.8991 C   0  0  0  0  0  0  0  0  0  0  0  0
    0.3210   -4.2868    7.2710 C   0  0  0  0  0  0  0  0  0  0  0  0
    1.6496   -4.4992    8.0106 C   0  0  1  0  0  0  0  0  0  0  0  0
    1.0910   -4.8450    9.3194 O   0  0  0  0  0  0  0  0  0  0  0  0
    0.4293   -6.0665    9.6699 C   0  0  0  0  0  0  0  0  0  0  0  0
    2.6914   -5.7045    7.6009 C   0  0  1  0  0  0  0  0  0  0  0  0
    3.5034   -5.8578    8.7662 O   0  0  0  0  0  0  0  0  0  0  0  0
    2.0117   -7.0795    7.3389 C   0  0  0  0  0  0  0  0  0  0  0  0
    2.6550   -7.8675    6.1813 C   0  0  1  0  0  0  0  0  0  0  0  0
    3.5957   -8.7386    6.8229 O   0  0  0  0  0  0  0  0  0  0  0  0
    1.6718   -8.6424    5.2600 C   0  0  1  0  0  0  0  0  0  0  0  0
    0.6098   -9.3036    5.9029 O   0  0  0  0  0  0  0  0  0  0  0  0
    1.2831   -7.7266    4.0461 C   0  0  0  0  0  0  0  0  0  0  0  0
    1.3303   -8.5606    2.7055 C   0  0  0  0  0  0  0  0  0  0  0  0
    0.4266   -9.7950    2.6306 C   0  0  0  0  0  0  0  0  0  0  0  0
   -0.2006   -7.1906    4.1577 C   0  0  0  0  0  0  0  0  0  0  0  0
   -0.5813   -6.4594    5.4126 C   0  0  0  0  0  0  0  0  0  0  0  0
    2.3606   -6.5226    4.0929 C   0  0  2  0  0  0  0  0  0  0  0  0
    2.8896   -6.0955    2.6496 C   0  0  0  0  0  0  0  0  0  0  0  0
    4.0787   -4.6638    2.5352 S   0  0  0  0  0  0  0  0  0  0  0  0
    5.1412   -5.0424    1.5032 O   0  0  0  0  0  0  0  0  0  0  0  0
    3.0013   -3.2998    1.8105 C   0  0  2  0  0  0  0  0  0  0  0  0
    2.8624   -3.4917    0.2768 C   0  0  0  0  0  0  0  0  0  0  0  0
    3.3851   -6.8456    5.2653 C   0  0  2  0  0  0  0  0  0  0  0  0
    4.5524   -7.4968    4.6956 O   0  0  0  0  0  0  0  0  0  0  0  0
    4.4328   -8.6816    3.8878 C   0  0  0  0  0  0  0  0  0  0  0  0
    3.7365   -5.7575    6.3901 C   0  0  1  0  0  0  0  0  0  0  0  0
    4.3008   -4.5468    5.9725 O   0  0  0  0  0  0  0  0  0  0  0  0
    2.0233   -2.9527    8.3107 C   0  0  1  0  0  0  0  0  0  0  0  0
    2.6656   -2.9097    9.5792 O   0  0  0  0  0  0  0  0  0  0  0  0
    4.4491   -4.6959   -1.6176 H   0  0  0  0  0  0  0  0  0  0  0  0
    5.5818   -3.2789   -1.9252 H   0  0  0  0  0  0  0  0  0  0  0  0
    5.3021   -1.2161   -0.7034 H   0  0  0  0  0  0  0  0  0  0  0  0
    3.6194   -0.8506   -0.4128 H   0  0  0  0  0  0  0  0  0  0  0  0
    5.5625   -2.1225    1.5540 H   0  0  0  0  0  0  0  0  0  0  0  0
    5.0551   -0.4535    1.6262 H   0  0  0  0  0  0  0  0  0  0  0  0
    1.3027    0.9075    0.6579 H   0  0  0  0  0  0  0  0  0  0  0  0
    0.0483   -0.1678    1.2811 H   0  0  0  0  0  0  0  0  0  0  0  0
    0.2211    2.4956    1.4261 H   0  0  0  0  0  0  0  0  0  0  0  0
    3.6669    1.0142    3.0933 H   0  0  0  0  0  0  0  0  0  0  0  0
    2.4120    2.1252    2.6973 H   0  0  0  0  0  0  0  0  0  0  0  0
    2.9948    1.0381    5.3229 H   0  0  0  0  0  0  0  0  0  0  0  0
    1.2408    2.9569    4.4087 H   0  0  0  0  0  0  0  0  0  0  0  0
   -0.6487    1.5172    5.8373 H   0  0  0  0  0  0  0  0  0  0  0  0
   -0.4392    1.8043    4.1991 H   0  0  0  0  0  0  0  0  0  0  0  0
   -2.5783    0.8721    4.4871 H   0  0  0  0  0  0  0  0  0  0  0  0
   -1.9986   -0.4950    5.4170 H   0  0  0  0  0  0  0  0  0  0  0  0
   -1.6493   -0.3781    3.6777 H   0  0  0  0  0  0  0  0  0  0  0  0
    0.2888   -2.0756    4.5776 H   0  0  0  0  0  0  0  0  0  0  0  0
    3.2265   -0.7569    5.8603 H   0  0  0  0  0  0  0  0  0  0  0  0
    3.9004   -0.7150    4.0073 H   0  0  0  0  0  0  0  0  0  0  0  0
    5.5250   -1.8741    5.2514 H   0  0  0  0  0  0  0  0  0  0  0  0
    6.0645   -1.5358    3.6375 H   0  0  0  0  0  0  0  0  0  0  0  0
    5.6135   -3.1692    4.0913 H   0  0  0  0  0  0  0  0  0  0  0  0
    4.3726   -2.1369    8.4976 H   0  0  0  0  0  0  0  0  0  0  0  0
    0.3356    2.2479    8.4967 H   0  0  0  0  0  0  0  0  0  0  0  0
    0.9253    1.9142    6.9238 H   0  0  0  0  0  0  0  0  0  0  0  0
    1.9344    1.5070    8.2577 H   0  0  0  0  0  0  0  0  0  0  0  0
    0.4518   -1.8482    9.3676 H   0  0  0  0  0  0  0  0  0  0  0  0
   -0.9533   -3.5168    8.7740 H   0  0  0  0  0  0  0  0  0  0  0  0
   -1.2264   -2.7178    7.2699 H   0  0  0  0  0  0  0  0  0  0  0  0
   -0.3532   -5.1329    7.3008 H   0  0  0  0  0  0  0  0  0  0  0  0
    0.5516   -4.0536    6.2402 H   0  0  0  0  0  0  0  0  0  0  0  0
   -0.1903   -5.8698   10.5451 H   0  0  0  0  0  0  0  0  0  0  0  0
    1.1380   -6.8314    9.9834 H   0  0  0  0  0  0  0  0  0  0  0  0
   -0.2341   -6.4834    8.9138 H   0  0  0  0  0  0  0  0  0  0  0  0
    3.9927   -6.6450    8.6726 H   0  0  0  0  0  0  0  0  0  0  0  0
    1.8749   -7.7202    8.2031 H   0  0  0  0  0  0  0  0  0  0  0  0
    1.0567   -6.8103    7.0440 H   0  0  0  0  0  0  0  0  0  0  0  0
    3.9634   -9.3234    6.1827 H   0  0  0  0  0  0  0  0  0  0  0  0
    2.1443   -9.5175    4.8608 H   0  0  0  0  0  0  0  0  0  0  0  0
    0.3378  -10.0000    5.3260 H   0  0  0  0  0  0  0  0  0  0  0  0
    1.1170   -7.9244    1.8464 H   0  0  0  0  0  0  0  0  0  0  0  0
    2.2914   -8.9930    2.5099 H   0  0  0  0  0  0  0  0  0  0  0  0
    0.6088  -10.3085    1.6877 H   0  0  0  0  0  0  0  0  0  0  0  0
   -0.6336   -9.5439    2.6678 H   0  0  0  0  0  0  0  0  0  0  0  0
    0.6529  -10.5192    3.4176 H   0  0  0  0  0  0  0  0  0  0  0  0
   -0.4013   -6.5143    3.3155 H   0  0  0  0  0  0  0  0  0  0  0  0
   -0.9058   -8.0264    4.1164 H   0  0  0  0  0  0  0  0  0  0  0  0
   -1.5581   -6.0056    5.4225 H   0  0  0  0  0  0  0  0  0  0  0  0
    0.1383   -5.6826    5.4658 H   0  0  0  0  0  0  0  0  0  0  0  0
   -0.5491   -7.1182    6.2724 H   0  0  0  0  0  0  0  0  0  0  0  0
    1.8394   -5.6459    4.4335 H   0  0  0  0  0  0  0  0  0  0  0  0
    3.4523   -6.8757    2.1707 H   0  0  0  0  0  0  0  0  0  0  0  0
    2.0575   -5.9044    1.9757 H   0  0  0  0  0  0  0  0  0  0  0  0
    1.9982   -3.4564    2.2002 H   0  0  0  0  0  0  0  0  0  0  0  0
    1.9814   -2.9445   -0.0629 H   0  0  0  0  0  0  0  0  0  0  0  0
    2.6754   -4.5370    0.0251 H   0  0  0  0  0  0  0  0  0  0  0  0
    5.3901   -9.1109    3.6568 H   0  0  0  0  0  0  0  0  0  0  0  0
    4.0204   -8.4852    2.9282 H   0  0  0  0  0  0  0  0  0  0  0  0
    3.9058   -9.4911    4.3523 H   0  0  0  0  0  0  0  0  0  0  0  0
    4.6248   -6.2130    6.8180 H   0  0  0  0  0  0  0  0  0  0  0  0
    3.6413   -4.0484    5.5318 H   0  0  0  0  0  0  0  0  0  0  0  0
    3.4778   -3.3770    9.5135 H   0  0  0  0  0  0  0  0  0  0  0  0
  1  2  2  0
  1 61  1  0
  1 62  1  0
  2 53  1  0
  2  3  1  0
  3  4  1  0
  3 63  1  0
  3 64  1  0
  4  5  1  0
  4 65  1  0
  4 66  1  0
  5 22  1  0
  5 52  1  0
  5  6  1  1
  6  7  1  0
  7 16  1  0
  7  8  1  6
  7 10  1  0
  8  9  1  0
  8 67  1  0
  8 68  1  0
  9 69  1  0
 10 11  1  0
 10 70  1  0
 10 71  1  0
 11 12  1  0
 11 13  1  0
 11 72  1  1
 12 73  1  0
 13 14  1  1
 13 16  1  0
 13 17  1  0
 14 15  1  0
 14 74  1  0
 14 75  1  0
 15 76  1  0
 15 77  1  0
 15 78  1  0
 17 27  1  0
 17 18  1  6
 17 19  1  0
 18 79  1  0
 19 20  1  0
 19 24  1  0
 19 80  1  6
 20 21  2  0
 20 22  1  0
 22 23  1  0
 22 81  1  1
 23 82  1  0
 23 83  1  0
 23 84  1  0
 24 59  1  0
 24 25  1  6
 24 26  1  0
 25 85  1  0
 26 27  1  0
 27 28  1  6
 27 30  1  0
 28 29  1  0
 29 86  1  0
 29 87  1  0
 29 88  1  0
 30 59  1  0
 30 31  1  0
 30 89  1  1
 31 32  1  0
 31 90  1  0
 31 91  1  0
 32 33  1  0
 32 92  1  0
 32 93  1  0
 33 34  1  1
 33 36  1  0
 33 59  1  0
 34 35  1  0
 35 94  1  0
 35 95  1  0
 35 96  1  0
 36 57  1  0
 36 37  1  1
 36 38  1  0
 37 97  1  0
 38 39  1  0
 38 98  1  0
 38 99  1  0
 39 54  1  0
 39 40  1  1
 39 41  1  0
 40100  1  0
 41 42  1  0
 41 43  1  0
 41101  1  6
 42102  1  0
 43 44  1  0
 43 46  1  0
 43 48  1  0
 44 45  1  0
 44103  1  0
 44104  1  0
 45105  1  0
 45106  1  0
 45107  1  0
 46 47  1  0
 46108  1  0
 46109  1  0
 47110  1  0
 47111  1  0
 47112  1  0
 48 49  1  0
 48 54  1  0
 48113  1  1
 50 49  1  6
 49114  1  0
 49115  1  0
 50 51  2  0
 50 52  1  0
 52 53  1  0
 52116  1  1
 53117  1  0
 53118  1  0
 54 55  1  6
 54 57  1  0
 55 56  1  0
 56119  1  0
 56120  1  0
 56121  1  0
 57 58  1  0
 57122  1  1
 58123  1  0
 59 60  1  1
 60124  1  0
M  END
>  <i_m_ct_stereo_status>  (83) 
1

>  <s_m_source_file>  (83) 
/var/tmp/pbs.5075288.sched01/tmp_km6m70o/128goojv9vu.sdf

>  <i_m_source_file_index>  (83) 
26

>  <i_lp_mmshare_version>  (83) 
48012

>  <i_f3d_flags>  (83) 
0

>  <s_epik_input>  (83) 
W0NIMl0xW0NIMl1DKD1bQ0gyXSlbQ0gyXVtDQEhdKFtDQEBdMTIzKVtTK10oW08tXSlbQ0gyXVtDQEBIXTRbQ0BdNShPW0NIM10pW0NAXShbT0hdKShbQ0BASF0oW09IXSlDNChbQ0gyXVtDSDNdKVtDSDJdW0NIM10pW0NIMl1bQ0BAXShbT0hdKShbQ0BASF01W09IXSlbQ0BAXTYoT1tDSDNdKVtDQEBdNyhbT0hdKVtDQEBdOChbT0hdKVtDQEhdKEMoPU8pW0NASF0zW0NIM10pW0NAQF0oW09IXSkoW0NAQF0oTzgpKE9bQ0gzXSlbQ0BIXTdbQ0gyXVtDSDJdNilbQ0BAXTkoW0NIMl1bQ0gzXSlbQ0BIXShbT0hdKVtDSDJdW0NAQF0oTzIpKE85KVtDSDJdW09IXQ==

>  <s_epik_cmdline>  (83) 
J2VwaWtfcHl0aG9uJywgJy1waHQnLCAnMi4wJywgJy1waCcsICc3LjAnLCAnLXRuJywgJzgnLCAnLW1hJywgJzIwMCcsICctaW1hZScsICc8aW5maWxlLm1hZT4nLCAnLW9tYWUnLCAnPG91dGZpbGUubWFlPic=

>  <r_lp_tautomer_probability>  (83) 
1

>  <r_epik_Ionization_Penalty>  (83) 
0.000412488

>  <r_epik_Ionization_Penalty_Charging>  (83) 
0

>  <r_epik_Ionization_Penalty_Neutral>  (83) 
0.000412488

>  <r_epik_State_Penalty>  (83) 
0.000237027

>  <r_epik_Charging_Adjusted_Penalty>  (83) 
0.000237027

>  <i_epik_Tot_Q>  (83) 
0

>  <i_epik_Tot_abs_Q>  (83) 
2

>  <s_lp_Force_Field>  (83) 
OPLS3e

>  <r_lp_Energy>  (83) 
196.051

>  <b_lp_Chiralities_Consistent>  (83) 
1

>  <s_lp_Variant>  (83) 
55:0-1

>  <s_i_glide_gridfile>  (83) 
pfpi4k_grid

>  <i_i_glide_lignum>  (83) 
26

>  <i_i_glide_rotatable_bonds>  (83) 
16

>  <r_i_docking_score>  (83) 
-0.448128

>  <r_i_glide_ligand_efficiency>  (83) 
-0.00746881

>  <r_i_glide_ligand_efficiency_sa>  (83) 
-0.0292394

>  <r_i_glide_ligand_efficiency_ln>  (83) 
-0.0879659

>  <r_i_glide_gscore>  (83) 
-0.448128

>  <r_i_glide_lipo>  (83) 
-0.123533

>  <r_i_glide_hbond>  (83) 
0

>  <r_i_glide_metal>  (83) 
-0

>  <r_i_glide_rewards>  (83) 
0

>  <r_i_glide_evdw>  (83) 
-31.4087

>  <r_i_glide_ecoul>  (83) 
-3.44902

>  <r_i_glide_erotb>  (83) 
0.0288421

>  <r_i_glide_esite>  (83) 
-0.0348762

>  <r_i_glide_emodel>  (83) 
-22.3454

>  <r_i_glide_energy>  (83) 
-34.8577

>  <r_i_glide_einternal>  (83) 
14.1182

>  <r_i_glide_intrahb_reward>  (83) 
-0

>  <i_i_glide_confnum>  (83) 
3

>  <i_i_glide_posenum>  (83) 
16

>  <r_i_glide_eff_state_penalty>  (83) 
0

>  <ligand_id>  (83) 
55

>  <original_smiles>  (83) 
C=C1CCC23OC4(CO)CC(O)C(CC)(O4)C4(O)C(C(=O)C2C)C2(O)OC4(OC)C4CCC(OC)(C5(O)CC6(O)C(O)C(CC)(CC)C(C[S+]([O-])C3C1)C6(OC)C5O)C42O

>  <smiles>  (83) 
[H]OC([H])([H])C12OC34C([H])([H])C([H])([H])C(=C([H])[H])C([H])([H])C3([H])S(=O)C([H])([H])C3([H])C5(OC([H])([H])[H])C([H])(O[H])C(O[H])(C([H])([H])C5(O[H])C([H])(O[H])C3(C([H])([H])C([H])([H])[H])C([H])([H])C([H])([H])[H])C3(OC([H])([H])[H])C([H])([H])C([H])([H])C5([H])C6(OC([H])([H])[H])OC(O[H])(C([H])(C(=O)C4([H])C([H])([H])[H])C6(O[H])C(C([H])([H])C([H])([H])[H])(O1)C([H])(O[H])C2([H])[H])C53O[H]

$$$$
55:2:0
     RDKit          3D

124132  0  0  1  0  0  0  0  0999 V2000
   -1.2417   -4.4479    9.7912 C   0  0  0  0  0  0  0  0  0  0  0  0
   -0.5267   -5.1841    8.9254 C   0  0  0  0  0  0  0  0  0  0  0  0
    0.4217   -6.2810    9.3670 C   0  0  0  0  0  0  0  0  0  0  0  0
    1.8200   -6.0849    8.7563 C   0  0  0  0  0  0  0  0  0  0  0  0
    1.8035   -5.9229    7.2071 C   0  0  2  0  0  0  0  0  0  0  0  0
    1.1083   -7.1151    6.7713 O   0  0  0  0  0  0  0  0  0  0  0  0
    1.5081   -8.3810    6.2699 C   0  0  2  0  0  0  0  0  0  0  0  0
    0.2315   -9.2657    6.4960 C   0  0  0  0  0  0  0  0  0  0  0  0
    0.2047   -9.7504    7.8284 O   0  0  0  0  0  0  0  0  0  0  0  0
    2.8089   -9.0126    6.8038 C   0  0  0  0  0  0  0  0  0  0  0  0
    3.7107   -9.2412    5.5692 C   0  0  1  0  0  0  0  0  0  0  0  0
    4.1512  -10.5873    5.5803 O   0  0  0  0  0  0  0  0  0  0  0  0
    2.8959   -8.8297    4.2937 C   0  0  1  0  0  0  0  0  0  0  0  0
    2.4603  -10.0311    3.3717 C   0  0  0  0  0  0  0  0  0  0  0  0
    1.4785  -11.0945    3.9458 C   0  0  0  0  0  0  0  0  0  0  0  0
    1.6597   -8.3289    4.8812 O   0  0  0  0  0  0  0  0  0  0  0  0
    3.4286   -7.5493    3.4464 C   0  0  1  0  0  0  0  0  0  0  0  0
    2.2423   -7.0544    2.8512 O   0  0  0  0  0  0  0  0  0  0  0  0
    4.1544   -6.4611    4.2652 C   0  0  2  0  0  0  0  0  0  0  0  0
    3.2868   -5.5348    5.0830 C   0  0  0  0  0  0  0  0  0  0  0  0
    2.6646   -4.6504    4.5273 O   0  0  0  0  0  0  0  0  0  0  0  0
    3.2347   -5.7914    6.6044 C   0  0  1  0  0  0  0  0  0  0  0  0
    4.2446   -4.9557    7.4238 C   0  0  0  0  0  0  0  0  0  0  0  0
    5.3673   -6.0096    3.4113 C   0  0  1  0  0  0  0  0  0  0  0  0
    6.4081   -5.4897    4.2130 O   0  0  0  0  0  0  0  0  0  0  0  0
    5.6962   -7.3020    3.0293 O   0  0  0  0  0  0  0  0  0  0  0  0
    4.5627   -7.6843    2.3345 C   0  0  1  0  0  0  0  0  0  0  0  0
    4.6227   -8.9211    1.7191 O   0  0  0  0  0  0  0  0  0  0  0  0
    5.6455   -9.7963    2.1810 C   0  0  0  0  0  0  0  0  0  0  0  0
    4.6619   -6.5463    1.2446 C   0  0  1  0  0  0  0  0  0  0  0  0
    3.3754   -6.0784    0.5459 C   0  0  0  0  0  0  0  0  0  0  0  0
    3.0323   -4.6987    1.1500 C   0  0  0  0  0  0  0  0  0  0  0  0
    4.3927   -4.0498    1.4787 C   0  0  1  0  0  0  0  0  0  0  0  0
    4.9456   -3.9197    0.1249 O   0  0  0  0  0  0  0  0  0  0  0  0
    4.3281   -3.2263   -0.9722 C   0  0  0  0  0  0  0  0  0  0  0  0
    4.3740   -2.5410    2.0971 C   0  0  1  0  0  0  0  0  0  0  0  0
    5.3967   -1.8017    1.4247 O   0  0  0  0  0  0  0  0  0  0  0  0
    3.0382   -1.7704    1.8359 C   0  0  0  0  0  0  0  0  0  0  0  0
    2.9476   -0.5928    2.8299 C   0  0  1  0  0  0  0  0  0  0  0  0
    3.7636    0.4291    2.2730 O   0  0  0  0  0  0  0  0  0  0  0  0
    1.5389   -0.0462    3.2004 C   0  0  1  0  0  0  0  0  0  0  0  0
    0.6734   -0.2894    2.0893 O   0  0  0  0  0  0  0  0  0  0  0  0
    1.0678   -0.6544    4.6237 C   0  0  0  0  0  0  0  0  0  0  0  0
    1.0441    0.5907    5.6013 C   0  0  0  0  0  0  0  0  0  0  0  0
    0.6506    0.4540    7.1326 C   0  0  0  0  0  0  0  0  0  0  0  0
   -0.3594   -1.3537    4.4562 C   0  0  0  0  0  0  0  0  0  0  0  0
   -1.3185   -1.5407    5.6897 C   0  0  0  0  0  0  0  0  0  0  0  0
    2.2522   -1.6921    4.8689 C   0  0  2  0  0  0  0  0  0  0  0  0
    2.5814   -2.2121    6.3224 C   0  0  0  0  0  0  0  0  0  0  0  0
    1.2094   -2.9816    7.3216 S   0  0  0  0  0  0  0  0  0  0  0  0
    1.5871   -2.9479    8.8092 O   0  0  0  0  0  0  0  0  0  0  0  0
    0.7876   -4.7445    6.8030 C   0  0  2  0  0  0  0  0  0  0  0  0
   -0.6010   -5.0099    7.4170 C   0  0  0  0  0  0  0  0  0  0  0  0
    3.5402   -1.1479    4.1272 C   0  0  2  0  0  0  0  0  0  0  0  0
    4.0587   -0.0142    4.8445 O   0  0  0  0  0  0  0  0  0  0  0  0
    5.0828   -0.2153    5.8216 C   0  0  0  0  0  0  0  0  0  0  0  0
    4.6651   -2.1248    3.5926 C   0  0  1  0  0  0  0  0  0  0  0  0
    4.9424   -3.1619    4.4737 O   0  0  0  0  0  0  0  0  0  0  0  0
    5.2752   -5.3309    1.9715 C   0  0  1  0  0  0  0  0  0  0  0  0
    6.6218   -5.1148    1.5666 O   0  0  0  0  0  0  0  0  0  0  0  0
   -1.9279   -3.6873    9.4548 H   0  0  0  0  0  0  0  0  0  0  0  0
   -1.1552   -4.5977   10.8577 H   0  0  0  0  0  0  0  0  0  0  0  0
    0.4872   -6.2907   10.4539 H   0  0  0  0  0  0  0  0  0  0  0  0
    0.0127   -7.2457    9.0606 H   0  0  0  0  0  0  0  0  0  0  0  0
    2.2492   -5.2030    9.2143 H   0  0  0  0  0  0  0  0  0  0  0  0
    2.4652   -6.9173    9.0526 H   0  0  0  0  0  0  0  0  0  0  0  0
   -0.6500   -8.6338    6.3062 H   0  0  0  0  0  0  0  0  0  0  0  0
    0.2165  -10.1185    5.8935 H   0  0  0  0  0  0  0  0  0  0  0  0
    0.5985  -10.6482    7.7417 H   0  0  0  0  0  0  0  0  0  0  0  0
    3.2744   -8.4338    7.6030 H   0  0  0  0  0  0  0  0  0  0  0  0
    2.5880   -9.9746    7.2571 H   0  0  0  0  0  0  0  0  0  0  0  0
    4.6532   -8.7184    5.7008 H   0  0  0  0  0  0  0  0  0  0  0  0
    3.4014  -11.1584    5.6002 H   0  0  0  0  0  0  0  0  0  0  0  0
    1.9642   -9.6250    2.4910 H   0  0  0  0  0  0  0  0  0  0  0  0
    3.3353  -10.5624    3.0118 H   0  0  0  0  0  0  0  0  0  0  0  0
    1.4853  -11.9986    3.3170 H   0  0  0  0  0  0  0  0  0  0  0  0
    0.4815  -10.6772    4.0124 H   0  0  0  0  0  0  0  0  0  0  0  0
    1.7634  -11.4295    4.9497 H   0  0  0  0  0  0  0  0  0  0  0  0
    2.4955   -6.3530    2.2791 H   0  0  0  0  0  0  0  0  0  0  0  0
    4.7059   -6.9581    5.0451 H   0  0  0  0  0  0  0  0  0  0  0  0
    3.6937   -6.7639    6.6999 H   0  0  0  0  0  0  0  0  0  0  0  0
    5.0686   -4.5881    6.8163 H   0  0  0  0  0  0  0  0  0  0  0  0
    4.6798   -5.5694    8.2126 H   0  0  0  0  0  0  0  0  0  0  0  0
    3.8086   -4.1081    7.9487 H   0  0  0  0  0  0  0  0  0  0  0  0
    7.1574   -5.3581    3.6662 H   0  0  0  0  0  0  0  0  0  0  0  0
    5.5044  -10.7736    1.7245 H   0  0  0  0  0  0  0  0  0  0  0  0
    5.6062   -9.9228    3.2638 H   0  0  0  0  0  0  0  0  0  0  0  0
    6.6290   -9.4174    1.8976 H   0  0  0  0  0  0  0  0  0  0  0  0
    5.3579   -6.8912    0.4795 H   0  0  0  0  0  0  0  0  0  0  0  0
    3.6448   -5.9239   -0.4931 H   0  0  0  0  0  0  0  0  0  0  0  0
    2.5509   -6.7816    0.4979 H   0  0  0  0  0  0  0  0  0  0  0  0
    2.4102   -4.1136    0.4710 H   0  0  0  0  0  0  0  0  0  0  0  0
    2.4489   -4.7737    2.0560 H   0  0  0  0  0  0  0  0  0  0  0  0
    5.0085   -3.2557   -1.8227 H   0  0  0  0  0  0  0  0  0  0  0  0
    4.1404   -2.1739   -0.7849 H   0  0  0  0  0  0  0  0  0  0  0  0
    3.4116   -3.6853   -1.3371 H   0  0  0  0  0  0  0  0  0  0  0  0
    5.2778   -0.8955    1.6512 H   0  0  0  0  0  0  0  0  0  0  0  0
    2.9084   -1.4455    0.8016 H   0  0  0  0  0  0  0  0  0  0  0  0
    2.2028   -2.4298    2.0483 H   0  0  0  0  0  0  0  0  0  0  0  0
    3.7350    1.1697    2.8459 H   0  0  0  0  0  0  0  0  0  0  0  0
    1.6360    1.0468    3.2818 H   0  0  0  0  0  0  0  0  0  0  0  0
    1.0318    0.0987    1.3027 H   0  0  0  0  0  0  0  0  0  0  0  0
    1.9928    1.0885    5.5367 H   0  0  0  0  0  0  0  0  0  0  0  0
    0.3517    1.3049    5.1596 H   0  0  0  0  0  0  0  0  0  0  0  0
    0.6858    1.4738    7.5454 H   0  0  0  0  0  0  0  0  0  0  0  0
    1.4485   -0.0783    7.6888 H   0  0  0  0  0  0  0  0  0  0  0  0
   -0.3221    0.0271    7.3127 H   0  0  0  0  0  0  0  0  0  0  0  0
   -0.9383   -0.7647    3.7631 H   0  0  0  0  0  0  0  0  0  0  0  0
   -0.2030   -2.3213    3.9591 H   0  0  0  0  0  0  0  0  0  0  0  0
   -2.1143   -2.2674    5.4115 H   0  0  0  0  0  0  0  0  0  0  0  0
   -1.7409   -0.5321    5.9232 H   0  0  0  0  0  0  0  0  0  0  0  0
   -0.8188   -1.8971    6.5525 H   0  0  0  0  0  0  0  0  0  0  0  0
    1.9205   -2.5350    4.2762 H   0  0  0  0  0  0  0  0  0  0  0  0
    3.4735   -2.8380    6.2656 H   0  0  0  0  0  0  0  0  0  0  0  0
    2.9194   -1.3568    6.9009 H   0  0  0  0  0  0  0  0  0  0  0  0
    0.6107   -4.7820    5.7238 H   0  0  0  0  0  0  0  0  0  0  0  0
   -1.0614   -5.8903    7.0004 H   0  0  0  0  0  0  0  0  0  0  0  0
   -1.2898   -4.1938    7.1768 H   0  0  0  0  0  0  0  0  0  0  0  0
    5.0908    0.6314    6.5063 H   0  0  0  0  0  0  0  0  0  0  0  0
    6.0672   -0.2863    5.3650 H   0  0  0  0  0  0  0  0  0  0  0  0
    4.9576   -1.1064    6.4264 H   0  0  0  0  0  0  0  0  0  0  0  0
    5.6011   -1.5633    3.6074 H   0  0  0  0  0  0  0  0  0  0  0  0
    4.1691   -3.6975    4.5301 H   0  0  0  0  0  0  0  0  0  0  0  0
    7.0941   -5.9207    1.6855 H   0  0  0  0  0  0  0  0  0  0  0  0
  1  2  2  0
  1 61  1  0
  1 62  1  0
  2 53  1  0
  2  3  1  0
  3  4  1  0
  3 63  1  0
  3 64  1  0
  4  5  1  0
  4 65  1  0
  4 66  1  0
  5 22  1  0
  5 52  1  0
  5  6  1  6
  6  7  1  0
  7 16  1  0
  7  8  1  6
  7 10  1  0
  8  9  1  0
  8 67  1  0
  8 68  1  0
  9 69  1  0
 10 11  1  0
 10 70  1  0
 10 71  1  0
 11 12  1  0
 11 13  1  0
 11 72  1  1
 12 73  1  0
 13 14  1  6
 13 16  1  0
 13 17  1  0
 14 15  1  0
 14 74  1  0
 14 75  1  0
 15 76  1  0
 15 77  1  0
 15 78  1  0
 17 27  1  0
 17 18  1  6
 17 19  1  0
 18 79  1  0
 19 20  1  0
 19 24  1  0
 19 80  1  1
 20 21  2  0
 20 22  1  0
 22 23  1  0
 22 81  1  6
 23 82  1  0
 23 83  1  0
 23 84  1  0
 24 59  1  0
 24 25  1  1
 24 26  1  0
 25 85  1  0
 26 27  1  0
 27 28  1  6
 27 30  1  0
 28 29  1  0
 29 86  1  0
 29 87  1  0
 29 88  1  0
 30 59  1  0
 30 31  1  0
 30 89  1  6
 31 32  1  0
 31 90  1  0
 31 91  1  0
 32 33  1  0
 32 92  1  0
 32 93  1  0
 33 34  1  6
 33 36  1  0
 33 59  1  0
 34 35  1  0
 35 94  1  0
 35 95  1  0
 35 96  1  0
 36 57  1  0
 36 37  1  6
 36 38  1  0
 37 97  1  0
 38 39  1  0
 38 98  1  0
 38 99  1  0
 39 54  1  0
 39 40  1  6
 39 41  1  0
 40100  1  0
 41 42  1  0
 41 43  1  0
 41101  1  1
 42102  1  0
 43 44  1  0
 43 46  1  0
 43 48  1  0
 44 45  1  0
 44103  1  0
 44104  1  0
 45105  1  0
 45106  1  0
 45107  1  0
 46 47  1  0
 46108  1  0
 46109  1  0
 47110  1  0
 47111  1  0
 47112  1  0
 48 49  1  0
 48 54  1  0
 48113  1  6
 50 49  1  6
 49114  1  0
 49115  1  0
 50 51  2  0
 50 52  1  0
 52 53  1  0
 52116  1  6
 53117  1  0
 53118  1  0
 54 55  1  1
 54 57  1  0
 55 56  1  0
 56119  1  0
 56120  1  0
 56121  1  0
 57 58  1  0
 57122  1  6
 58123  1  0
 59 60  1  6
 60124  1  0
M  END
>  <i_m_ct_stereo_status>  (84) 
1

>  <s_m_source_file>  (84) 
/var/tmp/pbs.5075288.sched01/tmp_km6m70o/128goojv9vu.sdf

>  <i_m_source_file_index>  (84) 
28

>  <i_lp_mmshare_version>  (84) 
48012

>  <i_f3d_flags>  (84) 
0

>  <s_epik_input>  (84) 
W0NIMl0xW0NIMl1DKD1bQ0gyXSlbQ0gyXVtDQEhdKFtDQEBdMTIzKVtTK10oW08tXSlbQ0gyXVtDQEBIXTRbQ0BdNShPW0NIM10pW0NAXShbT0hdKShbQ0BASF0oW09IXSlDNChbQ0gyXVtDSDNdKVtDSDJdW0NIM10pW0NIMl1bQ0BAXShbT0hdKShbQ0BASF01W09IXSlbQ0BAXTYoT1tDSDNdKVtDQEBdNyhbT0hdKVtDQEBdOChbT0hdKVtDQEhdKEMoPU8pW0NASF0zW0NIM10pW0NAQF0oW09IXSkoW0NAQF0oTzgpKE9bQ0gzXSlbQ0BIXTdbQ0gyXVtDSDJdNilbQ0BAXTkoW0NIMl1bQ0gzXSlbQ0BIXShbT0hdKVtDSDJdW0NAQF0oTzIpKE85KVtDSDJdW09IXQ==

>  <s_epik_cmdline>  (84) 
J2VwaWtfcHl0aG9uJywgJy1waHQnLCAnMi4wJywgJy1waCcsICc3LjAnLCAnLXRuJywgJzgnLCAnLW1hJywgJzIwMCcsICctaW1hZScsICc8aW5maWxlLm1hZT4nLCAnLW9tYWUnLCAnPG91dGZpbGUubWFlPic=

>  <r_lp_tautomer_probability>  (84) 
1

>  <r_epik_Ionization_Penalty>  (84) 
0.000412488

>  <r_epik_Ionization_Penalty_Charging>  (84) 
0

>  <r_epik_Ionization_Penalty_Neutral>  (84) 
0.000412488

>  <r_epik_State_Penalty>  (84) 
0.000237027

>  <r_epik_Charging_Adjusted_Penalty>  (84) 
0.000237027

>  <i_epik_Tot_Q>  (84) 
0

>  <i_epik_Tot_abs_Q>  (84) 
2

>  <s_lp_Force_Field>  (84) 
OPLS3e

>  <r_lp_Energy>  (84) 
205.877

>  <b_lp_Chiralities_Consistent>  (84) 
1

>  <s_lp_Variant>  (84) 
55:0-3

>  <s_i_glide_gridfile>  (84) 
pfpi4k_grid

>  <i_i_glide_lignum>  (84) 
28

>  <i_i_glide_rotatable_bonds>  (84) 
16

>  <r_i_docking_score>  (84) 
-3.54498

>  <r_i_glide_ligand_efficiency>  (84) 
-0.0590829

>  <r_i_glide_ligand_efficiency_sa>  (84) 
-0.231302

>  <r_i_glide_ligand_efficiency_ln>  (84) 
-0.695865

>  <r_i_glide_gscore>  (84) 
-3.54498

>  <r_i_glide_lipo>  (84) 
-0.347803

>  <r_i_glide_hbond>  (84) 
0

>  <r_i_glide_metal>  (84) 
-0

>  <r_i_glide_rewards>  (84) 
-0.500894

>  <r_i_glide_evdw>  (84) 
-32.4415

>  <r_i_glide_ecoul>  (84) 
-7.19885

>  <r_i_glide_erotb>  (84) 
0.0288421

>  <r_i_glide_esite>  (84) 
-0.0232187

>  <r_i_glide_emodel>  (84) 
-50.6459

>  <r_i_glide_energy>  (84) 
-39.6403

>  <r_i_glide_einternal>  (84) 
5.62399

>  <r_i_glide_intrahb_reward>  (84) 
-0.5

>  <i_i_glide_confnum>  (84) 
4

>  <i_i_glide_posenum>  (84) 
4

>  <r_i_glide_eff_state_penalty>  (84) 
0

>  <ligand_id>  (84) 
55

>  <original_smiles>  (84) 
C=C1CCC23OC4(CO)CC(O)C(CC)(O4)C4(O)C(C(=O)C2C)C2(O)OC4(OC)C4CCC(OC)(C5(O)CC6(O)C(O)C(CC)(CC)C(C[S+]([O-])C3C1)C6(OC)C5O)C42O

>  <smiles>  (84) 
[H]OC([H])([H])C12OC34C([H])([H])C([H])([H])C(=C([H])[H])C([H])([H])C3([H])S(=O)C([H])([H])C3([H])C5(OC([H])([H])[H])C([H])(O[H])C(O[H])(C([H])([H])C5(O[H])C([H])(O[H])C3(C([H])([H])C([H])([H])[H])C([H])([H])C([H])([H])[H])C3(OC([H])([H])[H])C([H])([H])C([H])([H])C5([H])C6(OC([H])([H])[H])OC(O[H])(C([H])(C(=O)C4([H])C([H])([H])[H])C6(O[H])C(C([H])([H])C([H])([H])[H])(O1)C([H])(O[H])C2([H])[H])C53O[H]

$$$$
55:2:1
     RDKit          3D

124132  0  0  1  0  0  0  0  0999 V2000
   -2.1090   -4.2606    9.2543 C   0  0  0  0  0  0  0  0  0  0  0  0
   -1.3133   -4.8592    8.3396 C   0  0  0  0  0  0  0  0  0  0  0  0
   -0.3220   -5.9331    8.7053 C   0  0  0  0  0  0  0  0  0  0  0  0
    1.0762   -5.6134    8.1594 C   0  0  0  0  0  0  0  0  0  0  0  0
    1.0752   -5.3029    6.6375 C   0  0  2  0  0  0  0  0  0  0  0  0
    0.4531   -6.5032    6.1131 O   0  0  0  0  0  0  0  0  0  0  0  0
    0.9402   -7.6347    5.4178 C   0  0  2  0  0  0  0  0  0  0  0  0
   -0.2523   -8.6124    5.5149 C   0  0  0  0  0  0  0  0  0  0  0  0
   -1.3449   -8.2498    4.6759 O   0  0  0  0  0  0  0  0  0  0  0  0
    2.2269   -8.2790    5.9658 C   0  0  0  0  0  0  0  0  0  0  0  0
    3.1966   -8.3445    4.7646 C   0  0  1  0  0  0  0  0  0  0  0  0
    3.7022   -9.6651    4.6920 O   0  0  0  0  0  0  0  0  0  0  0  0
    2.4298   -7.8284    3.4825 C   0  0  1  0  0  0  0  0  0  0  0  0
    2.0227   -8.9575    2.4486 C   0  0  0  0  0  0  0  0  0  0  0  0
    1.0690  -10.0664    2.9231 C   0  0  0  0  0  0  0  0  0  0  0  0
    1.1812   -7.3904    4.0702 O   0  0  0  0  0  0  0  0  0  0  0  0
    2.9184   -6.4555    2.7832 C   0  0  1  0  0  0  0  0  0  0  0  0
    1.7314   -5.9722    2.1818 O   0  0  0  0  0  0  0  0  0  0  0  0
    3.5493   -5.4241    3.7430 C   0  0  2  0  0  0  0  0  0  0  0  0
    2.6071   -4.6225    4.6211 C   0  0  0  0  0  0  0  0  0  0  0  0
    1.9646   -3.6975    4.1487 O   0  0  0  0  0  0  0  0  0  0  0  0
    2.5164   -5.0478    6.1049 C   0  0  1  0  0  0  0  0  0  0  0  0
    3.4507   -4.2433    7.0404 C   0  0  0  0  0  0  0  0  0  0  0  0
    4.7650   -4.8371    2.9886 C   0  0  1  0  0  0  0  0  0  0  0  0
    5.7320   -4.3573    3.8621 O   0  0  0  0  0  0  0  0  0  0  0  0
    5.1701   -6.0629    2.4985 O   0  0  0  0  0  0  0  0  0  0  0  0
    4.0920   -6.4194    1.7201 C   0  0  1  0  0  0  0  0  0  0  0  0
    4.2583   -7.5943    0.9880 O   0  0  0  0  0  0  0  0  0  0  0  0
    5.1430   -8.5599    1.5551 C   0  0  0  0  0  0  0  0  0  0  0  0
    4.1744   -5.1726    0.7515 C   0  0  1  0  0  0  0  0  0  0  0  0
    2.8975   -4.6959    0.0484 C   0  0  0  0  0  0  0  0  0  0  0  0
    2.4770   -3.4086    0.7915 C   0  0  0  0  0  0  0  0  0  0  0  0
    3.7762   -2.7183    1.2405 C   0  0  1  0  0  0  0  0  0  0  0  0
    4.3866   -2.3962   -0.0609 O   0  0  0  0  0  0  0  0  0  0  0  0
    3.7348   -1.6794   -1.1273 C   0  0  0  0  0  0  0  0  0  0  0  0
    3.6341   -1.2855    2.0139 C   0  0  1  0  0  0  0  0  0  0  0  0
    4.6055   -0.4003    1.4524 O   0  0  0  0  0  0  0  0  0  0  0  0
    2.2745   -0.5657    1.7743 C   0  0  0  0  0  0  0  0  0  0  0  0
    2.0857    0.5091    2.8748 C   0  0  1  0  0  0  0  0  0  0  0  0
    2.8091    1.6638    2.4802 O   0  0  0  0  0  0  0  0  0  0  0  0
    0.6526    0.9489    3.2318 C   0  0  1  0  0  0  0  0  0  0  0  0
   -0.1753    0.7884    2.0878 O   0  0  0  0  0  0  0  0  0  0  0  0
    0.1798    0.1903    4.5413 C   0  0  0  0  0  0  0  0  0  0  0  0
    0.0684    1.2655    5.6730 C   0  0  0  0  0  0  0  0  0  0  0  0
   -1.0395    2.3465    5.5223 C   0  0  0  0  0  0  0  0  0  0  0  0
   -1.1974   -0.5426    4.3237 C   0  0  0  0  0  0  0  0  0  0  0  0
   -2.1151   -0.8694    5.5408 C   0  0  0  0  0  0  0  0  0  0  0  0
    1.3742   -0.8249    4.7505 C   0  0  2  0  0  0  0  0  0  0  0  0
    1.6615   -1.4428    6.1585 C   0  0  0  0  0  0  0  0  0  0  0  0
    0.3232   -2.4370    7.0304 S   0  0  0  0  0  0  0  0  0  0  0  0
    0.5895   -2.5087    8.5068 O   0  0  0  0  0  0  0  0  0  0  0  0
    0.0152   -4.1629    6.3019 C   0  0  2  0  0  0  0  0  0  0  0  0
   -1.3773   -4.5474    6.8561 C   0  0  0  0  0  0  0  0  0  0  0  0
    2.6618   -0.1533    4.1259 C   0  0  2  0  0  0  0  0  0  0  0  0
    3.0957    0.9143    4.9841 O   0  0  0  0  0  0  0  0  0  0  0  0
    4.0888    0.6666    5.9793 C   0  0  0  0  0  0  0  0  0  0  0  0
    3.8525   -1.0171    3.5451 C   0  0  1  0  0  0  0  0  0  0  0  0
    4.1528   -2.1236    4.3182 O   0  0  0  0  0  0  0  0  0  0  0  0
    4.6950   -4.0038    1.6359 C   0  0  1  0  0  0  0  0  0  0  0  0
    6.0334   -3.6534    1.2867 O   0  0  0  0  0  0  0  0  0  0  0  0
   -2.8660   -3.5579    8.9758 H   0  0  0  0  0  0  0  0  0  0  0  0
   -2.0403   -4.5309   10.2942 H   0  0  0  0  0  0  0  0  0  0  0  0
   -0.2911   -6.0495    9.7892 H   0  0  0  0  0  0  0  0  0  0  0  0
   -0.6553   -6.8839    8.2870 H   0  0  0  0  0  0  0  0  0  0  0  0
    1.4400   -4.7598    8.7207 H   0  0  0  0  0  0  0  0  0  0  0  0
    1.7457   -6.4432    8.3988 H   0  0  0  0  0  0  0  0  0  0  0  0
    0.0462   -9.6273    5.2836 H   0  0  0  0  0  0  0  0  0  0  0  0
   -0.5790   -8.6525    6.5531 H   0  0  0  0  0  0  0  0  0  0  0  0
   -1.8872   -9.0248    4.5914 H   0  0  0  0  0  0  0  0  0  0  0  0
    2.6266   -7.7574    6.8261 H   0  0  0  0  0  0  0  0  0  0  0  0
    1.9791   -9.2705    6.3324 H   0  0  0  0  0  0  0  0  0  0  0  0
    4.1030   -7.7910    4.9974 H   0  0  0  0  0  0  0  0  0  0  0  0
    2.9860  -10.2573    4.5235 H   0  0  0  0  0  0  0  0  0  0  0  0
    1.5729   -8.4872    1.5684 H   0  0  0  0  0  0  0  0  0  0  0  0
    2.8947   -9.5184    2.0864 H   0  0  0  0  0  0  0  0  0  0  0  0
    1.0120  -10.8525    2.1703 H   0  0  0  0  0  0  0  0  0  0  0  0
    0.0592   -9.6860    3.0459 H   0  0  0  0  0  0  0  0  0  0  0  0
    1.4229  -10.5465    3.8340 H   0  0  0  0  0  0  0  0  0  0  0  0
    1.4244   -6.6455    1.5932 H   0  0  0  0  0  0  0  0  0  0  0  0
    4.0873   -5.9660    4.4882 H   0  0  0  0  0  0  0  0  0  0  0  0
    3.0348   -5.9933    6.1178 H   0  0  0  0  0  0  0  0  0  0  0  0
    4.2760   -3.7719    6.5067 H   0  0  0  0  0  0  0  0  0  0  0  0
    3.9029   -4.9088    7.7788 H   0  0  0  0  0  0  0  0  0  0  0  0
    2.9564   -3.4722    7.6290 H   0  0  0  0  0  0  0  0  0  0  0  0
    6.4599   -4.0891    3.3168 H   0  0  0  0  0  0  0  0  0  0  0  0
    5.0359   -9.4832    0.9866 H   0  0  0  0  0  0  0  0  0  0  0  0
    4.8787   -8.7724    2.5879 H   0  0  0  0  0  0  0  0  0  0  0  0
    6.1879   -8.2360    1.5368 H   0  0  0  0  0  0  0  0  0  0  0  0
    4.9233   -5.3981   -0.0143 H   0  0  0  0  0  0  0  0  0  0  0  0
    3.1607   -4.4159   -0.9667 H   0  0  0  0  0  0  0  0  0  0  0  0
    2.1175   -5.4364   -0.0840 H   0  0  0  0  0  0  0  0  0  0  0  0
    1.8610   -2.7744    0.1612 H   0  0  0  0  0  0  0  0  0  0  0  0
    1.8672   -3.6221    1.6595 H   0  0  0  0  0  0  0  0  0  0  0  0
    4.4384   -1.5725   -1.9508 H   0  0  0  0  0  0  0  0  0  0  0  0
    3.4388   -0.6721   -0.8565 H   0  0  0  0  0  0  0  0  0  0  0  0
    2.8767   -2.1819   -1.5703 H   0  0  0  0  0  0  0  0  0  0  0  0
    4.4540   -0.3704    0.5197 H   0  0  0  0  0  0  0  0  0  0  0  0
    2.1986   -0.1209    0.7792 H   0  0  0  0  0  0  0  0  0  0  0  0
    1.4597   -1.2828    1.8643 H   0  0  0  0  0  0  0  0  0  0  0  0
    3.7219    1.4236    2.4026 H   0  0  0  0  0  0  0  0  0  0  0  0
    0.6961    2.0343    3.4160 H   0  0  0  0  0  0  0  0  0  0  0  0
    0.0996    1.4211    1.4308 H   0  0  0  0  0  0  0  0  0  0  0  0
   -0.0387    0.7642    6.6326 H   0  0  0  0  0  0  0  0  0  0  0  0
    1.0114    1.8141    5.7509 H   0  0  0  0  0  0  0  0  0  0  0  0
   -0.9255    3.0995    6.3022 H   0  0  0  0  0  0  0  0  0  0  0  0
   -2.0514    1.9744    5.6136 H   0  0  0  0  0  0  0  0  0  0  0  0
   -1.0104    2.8570    4.5630 H   0  0  0  0  0  0  0  0  0  0  0  0
   -1.8109    0.0334    3.6463 H   0  0  0  0  0  0  0  0  0  0  0  0
   -1.0006   -1.4687    3.7954 H   0  0  0  0  0  0  0  0  0  0  0  0
   -2.9792   -1.4513    5.1943 H   0  0  0  0  0  0  0  0  0  0  0  0
   -2.5601    0.0270    5.9774 H   0  0  0  0  0  0  0  0  0  0  0  0
   -1.6291   -1.4030    6.3353 H   0  0  0  0  0  0  0  0  0  0  0  0
    1.1015   -1.6134    4.0716 H   0  0  0  0  0  0  0  0  0  0  0  0
    2.5875   -2.0062    6.1036 H   0  0  0  0  0  0  0  0  0  0  0  0
    1.8665   -0.6330    6.8579 H   0  0  0  0  0  0  0  0  0  0  0  0
   -0.1256   -4.0797    5.2283 H   0  0  0  0  0  0  0  0  0  0  0  0
   -1.7670   -5.4307    6.3561 H   0  0  0  0  0  0  0  0  0  0  0  0
   -2.0925   -3.7523    6.6694 H   0  0  0  0  0  0  0  0  0  0  0  0
    4.0210    1.4501    6.7318 H   0  0  0  0  0  0  0  0  0  0  0  0
    5.0923    0.6875    5.5598 H   0  0  0  0  0  0  0  0  0  0  0  0
    3.9792   -0.2816    6.4952 H   0  0  0  0  0  0  0  0  0  0  0  0
    4.7578   -0.4104    3.6519 H   0  0  0  0  0  0  0  0  0  0  0  0
    3.4005   -2.6999    4.2686 H   0  0  0  0  0  0  0  0  0  0  0  0
    5.9909   -3.3556    0.3877 H   0  0  0  0  0  0  0  0  0  0  0  0
  1  2  2  0
  1 61  1  0
  1 62  1  0
  2 53  1  0
  2  3  1  0
  3  4  1  0
  3 63  1  0
  3 64  1  0
  4  5  1  0
  4 65  1  0
  4 66  1  0
  5 22  1  0
  5 52  1  0
  5  6  1  6
  6  7  1  0
  7 16  1  0
  7  8  1  6
  7 10  1  0
  8  9  1  0
  8 67  1  0
  8 68  1  0
  9 69  1  0
 10 11  1  0
 10 70  1  0
 10 71  1  0
 11 12  1  0
 11 13  1  0
 11 72  1  1
 12 73  1  0
 13 14  1  6
 13 16  1  0
 13 17  1  0
 14 15  1  0
 14 74  1  0
 14 75  1  0
 15 76  1  0
 15 77  1  0
 15 78  1  0
 17 27  1  0
 17 18  1  6
 17 19  1  0
 18 79  1  0
 19 20  1  0
 19 24  1  0
 19 80  1  1
 20 21  2  0
 20 22  1  0
 22 23  1  0
 22 81  1  6
 23 82  1  0
 23 83  1  0
 23 84  1  0
 24 59  1  0
 24 25  1  1
 24 26  1  0
 25 85  1  0
 26 27  1  0
 27 28  1  6
 27 30  1  0
 28 29  1  0
 29 86  1  0
 29 87  1  0
 29 88  1  0
 30 59  1  0
 30 31  1  0
 30 89  1  6
 31 32  1  0
 31 90  1  0
 31 91  1  0
 32 33  1  0
 32 92  1  0
 32 93  1  0
 33 34  1  6
 33 36  1  0
 33 59  1  0
 34 35  1  0
 35 94  1  0
 35 95  1  0
 35 96  1  0
 36 57  1  0
 36 37  1  6
 36 38  1  0
 37 97  1  0
 38 39  1  0
 38 98  1  0
 38 99  1  0
 39 54  1  0
 39 40  1  6
 39 41  1  0
 40100  1  0
 41 42  1  0
 41 43  1  0
 41101  1  1
 42102  1  0
 43 44  1  0
 43 46  1  0
 43 48  1  0
 44 45  1  0
 44103  1  0
 44104  1  0
 45105  1  0
 45106  1  0
 45107  1  0
 46 47  1  0
 46108  1  0
 46109  1  0
 47110  1  0
 47111  1  0
 47112  1  0
 48 49  1  0
 48 54  1  0
 48113  1  6
 50 49  1  6
 49114  1  0
 49115  1  0
 50 51  2  0
 50 52  1  0
 52 53  1  0
 52116  1  6
 53117  1  0
 53118  1  0
 54 55  1  1
 54 57  1  0
 55 56  1  0
 56119  1  0
 56120  1  0
 56121  1  0
 57 58  1  0
 57122  1  6
 58123  1  0
 59 60  1  6
 60124  1  0
M  END
>  <i_m_ct_stereo_status>  (85) 
1

>  <s_m_source_file>  (85) 
/var/tmp/pbs.5075288.sched01/tmp_km6m70o/128goojv9vu.sdf

>  <i_m_source_file_index>  (85) 
28

>  <i_lp_mmshare_version>  (85) 
48012

>  <i_f3d_flags>  (85) 
0

>  <s_epik_input>  (85) 
W0NIMl0xW0NIMl1DKD1bQ0gyXSlbQ0gyXVtDQEhdKFtDQEBdMTIzKVtTK10oW08tXSlbQ0gyXVtDQEBIXTRbQ0BdNShPW0NIM10pW0NAXShbT0hdKShbQ0BASF0oW09IXSlDNChbQ0gyXVtDSDNdKVtDSDJdW0NIM10pW0NIMl1bQ0BAXShbT0hdKShbQ0BASF01W09IXSlbQ0BAXTYoT1tDSDNdKVtDQEBdNyhbT0hdKVtDQEBdOChbT0hdKVtDQEhdKEMoPU8pW0NASF0zW0NIM10pW0NAQF0oW09IXSkoW0NAQF0oTzgpKE9bQ0gzXSlbQ0BIXTdbQ0gyXVtDSDJdNilbQ0BAXTkoW0NIMl1bQ0gzXSlbQ0BIXShbT0hdKVtDSDJdW0NAQF0oTzIpKE85KVtDSDJdW09IXQ==

>  <s_epik_cmdline>  (85) 
J2VwaWtfcHl0aG9uJywgJy1waHQnLCAnMi4wJywgJy1waCcsICc3LjAnLCAnLXRuJywgJzgnLCAnLW1hJywgJzIwMCcsICctaW1hZScsICc8aW5maWxlLm1hZT4nLCAnLW9tYWUnLCAnPG91dGZpbGUubWFlPic=

>  <r_lp_tautomer_probability>  (85) 
1

>  <r_epik_Ionization_Penalty>  (85) 
0.000412488

>  <r_epik_Ionization_Penalty_Charging>  (85) 
0

>  <r_epik_Ionization_Penalty_Neutral>  (85) 
0.000412488

>  <r_epik_State_Penalty>  (85) 
0.000237027

>  <r_epik_Charging_Adjusted_Penalty>  (85) 
0.000237027

>  <i_epik_Tot_Q>  (85) 
0

>  <i_epik_Tot_abs_Q>  (85) 
2

>  <s_lp_Force_Field>  (85) 
OPLS3e

>  <r_lp_Energy>  (85) 
205.877

>  <b_lp_Chiralities_Consistent>  (85) 
1

>  <s_lp_Variant>  (85) 
55:0-3

>  <s_i_glide_gridfile>  (85) 
pfpi4k_grid

>  <i_i_glide_lignum>  (85) 
28

>  <i_i_glide_rotatable_bonds>  (85) 
16

>  <r_i_docking_score>  (85) 
-3.54294

>  <r_i_glide_ligand_efficiency>  (85) 
-0.0590491

>  <r_i_glide_ligand_efficiency_sa>  (85) 
-0.231169

>  <r_i_glide_ligand_efficiency_ln>  (85) 
-0.695466

>  <r_i_glide_gscore>  (85) 
-3.54294

>  <r_i_glide_lipo>  (85) 
-0.240812

>  <r_i_glide_hbond>  (85) 
0

>  <r_i_glide_metal>  (85) 
-0

>  <r_i_glide_rewards>  (85) 
-0.56885

>  <r_i_glide_evdw>  (85) 
-36.6329

>  <r_i_glide_ecoul>  (85) 
-5.92983

>  <r_i_glide_erotb>  (85) 
0.0288421

>  <r_i_glide_esite>  (85) 
-0.0410054

>  <r_i_glide_emodel>  (85) 
-51.7891

>  <r_i_glide_energy>  (85) 
-42.5627

>  <r_i_glide_einternal>  (85) 
7.92518

>  <r_i_glide_intrahb_reward>  (85) 
-0.5

>  <i_i_glide_confnum>  (85) 
2

>  <i_i_glide_posenum>  (85) 
1

>  <r_i_glide_eff_state_penalty>  (85) 
0

>  <ligand_id>  (85) 
55

>  <original_smiles>  (85) 
C=C1CCC23OC4(CO)CC(O)C(CC)(O4)C4(O)C(C(=O)C2C)C2(O)OC4(OC)C4CCC(OC)(C5(O)CC6(O)C(O)C(CC)(CC)C(C[S+]([O-])C3C1)C6(OC)C5O)C42O

>  <smiles>  (85) 
[H]OC([H])([H])C12OC34C([H])([H])C([H])([H])C(=C([H])[H])C([H])([H])C3([H])S(=O)C([H])([H])C3([H])C5(OC([H])([H])[H])C([H])(O[H])C(O[H])(C([H])([H])C5(O[H])C([H])(O[H])C3(C([H])([H])C([H])([H])[H])C([H])([H])C([H])([H])[H])C3(OC([H])([H])[H])C([H])([H])C([H])([H])C5([H])C6(OC([H])([H])[H])OC(O[H])(C([H])(C(=O)C4([H])C([H])([H])[H])C6(O[H])C(C([H])([H])C([H])([H])[H])(O1)C([H])(O[H])C2([H])[H])C53O[H]

$$$$
55:2:2
     RDKit          3D

124132  0  0  1  0  0  0  0  0999 V2000
   -1.4661   -4.3014    9.7336 C   0  0  0  0  0  0  0  0  0  0  0  0
   -0.7648   -5.0203    8.8422 C   0  0  0  0  0  0  0  0  0  0  0  0
    0.2040   -6.1133    9.2479 C   0  0  0  0  0  0  0  0  0  0  0  0
    1.5886   -5.8896    8.6150 C   0  0  0  0  0  0  0  0  0  0  0  0
    1.5377   -5.6895    7.0687 C   0  0  2  0  0  0  0  0  0  0  0  0
    0.8483   -6.8832    6.6064 O   0  0  0  0  0  0  0  0  0  0  0  0
    1.2552   -8.1356    6.0692 C   0  0  2  0  0  0  0  0  0  0  0  0
    0.0157   -9.0242    6.3247 C   0  0  0  0  0  0  0  0  0  0  0  0
   -0.0905   -9.4105    7.6736 O   0  0  0  0  0  0  0  0  0  0  0  0
    2.5671   -8.7663    6.5875 C   0  0  0  0  0  0  0  0  0  0  0  0
    3.4560   -8.9579    5.3376 C   0  0  1  0  0  0  0  0  0  0  0  0
    3.9104  -10.2980    5.3096 O   0  0  0  0  0  0  0  0  0  0  0  0
    2.6305   -8.5134    4.0774 C   0  0  1  0  0  0  0  0  0  0  0  0
    2.1947   -9.7030    3.1413 C   0  0  0  0  0  0  0  0  0  0  0  0
    1.2302  -10.7708    3.7079 C   0  0  0  0  0  0  0  0  0  0  0  0
    1.4008   -8.0475    4.6892 O   0  0  0  0  0  0  0  0  0  0  0  0
    3.1322   -7.2077    3.2568 C   0  0  1  0  0  0  0  0  0  0  0  0
    1.9395   -6.7184    2.6780 O   0  0  0  0  0  0  0  0  0  0  0  0
    3.8679   -6.1362    4.0949 C   0  0  2  0  0  0  0  0  0  0  0  0
    3.0010   -5.2381    4.9391 C   0  0  0  0  0  0  0  0  0  0  0  0
    2.3487   -4.3587    4.4069 O   0  0  0  0  0  0  0  0  0  0  0  0
    2.9661   -5.5353    6.4532 C   0  0  1  0  0  0  0  0  0  0  0  0
    3.9793   -4.7085    7.2791 C   0  0  0  0  0  0  0  0  0  0  0  0
    5.0576   -5.6578    3.2254 C   0  0  1  0  0  0  0  0  0  0  0  0
    6.0964   -5.1503    4.0098 O   0  0  0  0  0  0  0  0  0  0  0  0
    5.3791   -6.9446    2.8238 O   0  0  0  0  0  0  0  0  0  0  0  0
    4.2500   -7.3118    2.1314 C   0  0  1  0  0  0  0  0  0  0  0  0
    4.2949   -8.5555    1.5176 O   0  0  0  0  0  0  0  0  0  0  0  0
    5.5464   -9.2333    1.5511 C   0  0  0  0  0  0  0  0  0  0  0  0
    4.3323   -6.1569    1.0513 C   0  0  1  0  0  0  0  0  0  0  0  0
    3.0328   -5.6764    0.3818 C   0  0  0  0  0  0  0  0  0  0  0  0
    2.6867   -4.3181    1.0312 C   0  0  0  0  0  0  0  0  0  0  0  0
    4.0472   -3.6682    1.3524 C   0  0  1  0  0  0  0  0  0  0  0  0
    4.5872   -3.4996   -0.0036 O   0  0  0  0  0  0  0  0  0  0  0  0
    3.9442   -2.7780   -1.0718 C   0  0  0  0  0  0  0  0  0  0  0  0
    4.0187   -2.1710    2.0108 C   0  0  1  0  0  0  0  0  0  0  0  0
    5.0198   -1.4095    1.3355 O   0  0  0  0  0  0  0  0  0  0  0  0
    2.6712   -1.4124    1.7882 C   0  0  0  0  0  0  0  0  0  0  0  0
    2.5857   -0.2512    2.8052 C   0  0  1  0  0  0  0  0  0  0  0  0
    3.3794    0.7895    2.2557 O   0  0  0  0  0  0  0  0  0  0  0  0
    1.1800    0.2715    3.2164 C   0  0  1  0  0  0  0  0  0  0  0  0
    0.2834    0.0985    2.1277 O   0  0  0  0  0  0  0  0  0  0  0  0
    0.7302   -0.3745    4.6211 C   0  0  0  0  0  0  0  0  0  0  0  0
    0.6925    0.8361    5.6313 C   0  0  0  0  0  0  0  0  0  0  0  0
    0.3710    0.6755    7.1444 C   0  0  0  0  0  0  0  0  0  0  0  0
   -0.6867   -1.0852    4.4684 C   0  0  0  0  0  0  0  0  0  0  0  0
   -1.6322   -1.2839    5.6752 C   0  0  0  0  0  0  0  0  0  0  0  0
    1.9207   -1.4075    4.8299 C   0  0  2  0  0  0  0  0  0  0  0  0
    2.2762   -1.9565    6.2546 C   0  0  0  0  0  0  0  0  0  0  0  0
    0.9246   -2.7791    7.2533 S   0  0  0  0  0  0  0  0  0  0  0  0
    1.3092   -2.7548    8.7498 O   0  0  0  0  0  0  0  0  0  0  0  0
    0.5065   -4.5321    6.7041 C   0  0  2  0  0  0  0  0  0  0  0  0
   -0.8749   -4.8192    7.3408 C   0  0  0  0  0  0  0  0  0  0  0  0
    3.1995   -0.8316    4.0819 C   0  0  2  0  0  0  0  0  0  0  0  0
    3.7118    0.2882    4.8240 O   0  0  0  0  0  0  0  0  0  0  0  0
    4.7415    0.0728    5.7915 C   0  0  0  0  0  0  0  0  0  0  0  0
    4.3222   -1.7894    3.5117 C   0  0  1  0  0  0  0  0  0  0  0  0
    4.6251   -2.8375    4.3639 O   0  0  0  0  0  0  0  0  0  0  0  0
    4.9434   -4.9494    1.8017 C   0  0  1  0  0  0  0  0  0  0  0  0
    6.2780   -4.6949    1.3715 O   0  0  0  0  0  0  0  0  0  0  0  0
   -2.1693   -3.5443    9.4282 H   0  0  0  0  0  0  0  0  0  0  0  0
   -1.3612   -4.4760   10.7954 H   0  0  0  0  0  0  0  0  0  0  0  0
    0.2858   -6.1518   10.3342 H   0  0  0  0  0  0  0  0  0  0  0  0
   -0.1926   -7.0766    8.9264 H   0  0  0  0  0  0  0  0  0  0  0  0
    2.0169   -5.0114    9.0897 H   0  0  0  0  0  0  0  0  0  0  0  0
    2.2450   -6.7204    8.8841 H   0  0  0  0  0  0  0  0  0  0  0  0
   -0.8745   -8.5302    5.9235 H   0  0  0  0  0  0  0  0  0  0  0  0
    0.1121   -9.9727    5.8207 H   0  0  0  0  0  0  0  0  0  0  0  0
    0.4642  -10.1749    7.7671 H   0  0  0  0  0  0  0  0  0  0  0  0
    3.0346   -8.1998    7.3918 H   0  0  0  0  0  0  0  0  0  0  0  0
    2.3281   -9.7300    7.0269 H   0  0  0  0  0  0  0  0  0  0  0  0
    4.3931   -8.4295    5.4702 H   0  0  0  0  0  0  0  0  0  0  0  0
    3.1660  -10.8814    5.3411 H   0  0  0  0  0  0  0  0  0  0  0  0
    1.7015   -9.2956    2.2612 H   0  0  0  0  0  0  0  0  0  0  0  0
    3.0804  -10.2192    2.7702 H   0  0  0  0  0  0  0  0  0  0  0  0
    1.1675  -11.6451    3.0541 H   0  0  0  0  0  0  0  0  0  0  0  0
    0.2269  -10.3510    3.8138 H   0  0  0  0  0  0  0  0  0  0  0  0
    1.5395  -11.1431    4.6817 H   0  0  0  0  0  0  0  0  0  0  0  0
    2.1810   -5.9912    2.1236 H   0  0  0  0  0  0  0  0  0  0  0  0
    4.4327   -6.6505    4.8552 H   0  0  0  0  0  0  0  0  0  0  0  0
    3.4353   -6.5058    6.5212 H   0  0  0  0  0  0  0  0  0  0  0  0
    4.7933   -4.3179    6.6702 H   0  0  0  0  0  0  0  0  0  0  0  0
    4.4359   -5.3355    8.0451 H   0  0  0  0  0  0  0  0  0  0  0  0
    3.5428   -3.8757    7.8267 H   0  0  0  0  0  0  0  0  0  0  0  0
    6.8276   -5.0079    3.4209 H   0  0  0  0  0  0  0  0  0  0  0  0
    5.4313  -10.2277    1.1159 H   0  0  0  0  0  0  0  0  0  0  0  0
    5.8945   -9.3603    2.5782 H   0  0  0  0  0  0  0  0  0  0  0  0
    6.3008   -8.6889    0.9803 H   0  0  0  0  0  0  0  0  0  0  0  0
    5.0196   -6.4809    0.2664 H   0  0  0  0  0  0  0  0  0  0  0  0
    3.2635   -5.4647   -0.6593 H   0  0  0  0  0  0  0  0  0  0  0  0
    2.2165   -6.3896    0.3345 H   0  0  0  0  0  0  0  0  0  0  0  0
    2.0559   -3.7221    0.3759 H   0  0  0  0  0  0  0  0  0  0  0  0
    2.1100   -4.4155    1.9405 H   0  0  0  0  0  0  0  0  0  0  0  0
    4.6079   -2.7814   -1.9354 H   0  0  0  0  0  0  0  0  0  0  0  0
    3.7566   -1.7321   -0.8527 H   0  0  0  0  0  0  0  0  0  0  0  0
    3.0198   -3.2285   -1.4268 H   0  0  0  0  0  0  0  0  0  0  0  0
    4.8552   -0.4961    1.5340 H   0  0  0  0  0  0  0  0  0  0  0  0
    2.5367   -1.0592    0.7682 H   0  0  0  0  0  0  0  0  0  0  0  0
    1.8356   -2.0786    1.9874 H   0  0  0  0  0  0  0  0  0  0  0  0
    3.3846    1.5025    2.8771 H   0  0  0  0  0  0  0  0  0  0  0  0
    1.2592    1.3611    3.3168 H   0  0  0  0  0  0  0  0  0  0  0  0
    0.6217    0.5376    1.3589 H   0  0  0  0  0  0  0  0  0  0  0  0
    1.6413    1.3630    5.5636 H   0  0  0  0  0  0  0  0  0  0  0  0
   -0.0121    1.5550    5.2217 H   0  0  0  0  0  0  0  0  0  0  0  0
    0.3582    1.6672    7.5976 H   0  0  0  0  0  0  0  0  0  0  0  0
    1.1510    0.1476    7.6849 H   0  0  0  0  0  0  0  0  0  0  0  0
   -0.5933    0.2111    7.3770 H   0  0  0  0  0  0  0  0  0  0  0  0
   -1.2911   -0.5052    3.7794 H   0  0  0  0  0  0  0  0  0  0  0  0
   -0.5370   -2.0463    3.9677 H   0  0  0  0  0  0  0  0  0  0  0  0
   -2.4287   -1.9943    5.4317 H   0  0  0  0  0  0  0  0  0  0  0  0
   -2.0744   -0.3227    5.9470 H   0  0  0  0  0  0  0  0  0  0  0  0
   -1.1244   -1.6793    6.5440 H   0  0  0  0  0  0  0  0  0  0  0  0
    1.6028   -2.2379    4.2198 H   0  0  0  0  0  0  0  0  0  0  0  0
    3.1542   -2.5767    6.1846 H   0  0  0  0  0  0  0  0  0  0  0  0
    2.6023   -1.1205    6.8560 H   0  0  0  0  0  0  0  0  0  0  0  0
    0.3155   -4.5306    5.6341 H   0  0  0  0  0  0  0  0  0  0  0  0
   -1.3305   -5.7126    6.9159 H   0  0  0  0  0  0  0  0  0  0  0  0
   -1.5709   -4.0113    7.1223 H   0  0  0  0  0  0  0  0  0  0  0  0
    4.7492    0.9118    6.4875 H   0  0  0  0  0  0  0  0  0  0  0  0
    5.7245    0.0116    5.3297 H   0  0  0  0  0  0  0  0  0  0  0  0
    4.6208   -0.8288    6.3830 H   0  0  0  0  0  0  0  0  0  0  0  0
    5.2511   -1.2165    3.5323 H   0  0  0  0  0  0  0  0  0  0  0  0
    3.8557   -3.3893    4.4156 H   0  0  0  0  0  0  0  0  0  0  0  0
    6.2217   -4.4774    0.4526 H   0  0  0  0  0  0  0  0  0  0  0  0
  1  2  2  0
  1 61  1  0
  1 62  1  0
  2 53  1  0
  2  3  1  0
  3  4  1  0
  3 63  1  0
  3 64  1  0
  4  5  1  0
  4 65  1  0
  4 66  1  0
  5 22  1  0
  5 52  1  0
  5  6  1  6
  6  7  1  0
  7 16  1  0
  7  8  1  6
  7 10  1  0
  8  9  1  0
  8 67  1  0
  8 68  1  0
  9 69  1  0
 10 11  1  0
 10 70  1  0
 10 71  1  0
 11 12  1  0
 11 13  1  0
 11 72  1  1
 12 73  1  0
 13 14  1  6
 13 16  1  0
 13 17  1  0
 14 15  1  0
 14 74  1  0
 14 75  1  0
 15 76  1  0
 15 77  1  0
 15 78  1  0
 17 27  1  0
 17 18  1  6
 17 19  1  0
 18 79  1  0
 19 20  1  0
 19 24  1  0
 19 80  1  1
 20 21  2  0
 20 22  1  0
 22 23  1  0
 22 81  1  6
 23 82  1  0
 23 83  1  0
 23 84  1  0
 24 59  1  0
 24 25  1  1
 24 26  1  0
 25 85  1  0
 26 27  1  0
 27 28  1  6
 27 30  1  0
 28 29  1  0
 29 86  1  0
 29 87  1  0
 29 88  1  0
 30 59  1  0
 30 31  1  0
 30 89  1  6
 31 32  1  0
 31 90  1  0
 31 91  1  0
 32 33  1  0
 32 92  1  0
 32 93  1  0
 33 34  1  6
 33 36  1  0
 33 59  1  0
 34 35  1  0
 35 94  1  0
 35 95  1  0
 35 96  1  0
 36 57  1  0
 36 37  1  6
 36 38  1  0
 37 97  1  0
 38 39  1  0
 38 98  1  0
 38 99  1  0
 39 54  1  0
 39 40  1  6
 39 41  1  0
 40100  1  0
 41 42  1  0
 41 43  1  0
 41101  1  1
 42102  1  0
 43 44  1  0
 43 46  1  0
 43 48  1  0
 44 45  1  0
 44103  1  0
 44104  1  0
 45105  1  0
 45106  1  0
 45107  1  0
 46 47  1  0
 46108  1  0
 46109  1  0
 47110  1  0
 47111  1  0
 47112  1  0
 48 49  1  0
 48 54  1  0
 48113  1  6
 50 49  1  6
 49114  1  0
 49115  1  0
 50 51  2  0
 50 52  1  0
 52 53  1  0
 52116  1  6
 53117  1  0
 53118  1  0
 54 55  1  1
 54 57  1  0
 55 56  1  0
 56119  1  0
 56120  1  0
 56121  1  0
 57 58  1  0
 57122  1  6
 58123  1  0
 59 60  1  6
 60124  1  0
M  END
>  <i_m_ct_stereo_status>  (86) 
1

>  <s_m_source_file>  (86) 
/var/tmp/pbs.5075288.sched01/tmp_km6m70o/128goojv9vu.sdf

>  <i_m_source_file_index>  (86) 
28

>  <i_lp_mmshare_version>  (86) 
48012

>  <i_f3d_flags>  (86) 
0

>  <s_epik_input>  (86) 
W0NIMl0xW0NIMl1DKD1bQ0gyXSlbQ0gyXVtDQEhdKFtDQEBdMTIzKVtTK10oW08tXSlbQ0gyXVtDQEBIXTRbQ0BdNShPW0NIM10pW0NAXShbT0hdKShbQ0BASF0oW09IXSlDNChbQ0gyXVtDSDNdKVtDSDJdW0NIM10pW0NIMl1bQ0BAXShbT0hdKShbQ0BASF01W09IXSlbQ0BAXTYoT1tDSDNdKVtDQEBdNyhbT0hdKVtDQEBdOChbT0hdKVtDQEhdKEMoPU8pW0NASF0zW0NIM10pW0NAQF0oW09IXSkoW0NAQF0oTzgpKE9bQ0gzXSlbQ0BIXTdbQ0gyXVtDSDJdNilbQ0BAXTkoW0NIMl1bQ0gzXSlbQ0BIXShbT0hdKVtDSDJdW0NAQF0oTzIpKE85KVtDSDJdW09IXQ==

>  <s_epik_cmdline>  (86) 
J2VwaWtfcHl0aG9uJywgJy1waHQnLCAnMi4wJywgJy1waCcsICc3LjAnLCAnLXRuJywgJzgnLCAnLW1hJywgJzIwMCcsICctaW1hZScsICc8aW5maWxlLm1hZT4nLCAnLW9tYWUnLCAnPG91dGZpbGUubWFlPic=

>  <r_lp_tautomer_probability>  (86) 
1

>  <r_epik_Ionization_Penalty>  (86) 
0.000412488

>  <r_epik_Ionization_Penalty_Charging>  (86) 
0

>  <r_epik_Ionization_Penalty_Neutral>  (86) 
0.000412488

>  <r_epik_State_Penalty>  (86) 
0.000237027

>  <r_epik_Charging_Adjusted_Penalty>  (86) 
0.000237027

>  <i_epik_Tot_Q>  (86) 
0

>  <i_epik_Tot_abs_Q>  (86) 
2

>  <s_lp_Force_Field>  (86) 
OPLS3e

>  <r_lp_Energy>  (86) 
205.877

>  <b_lp_Chiralities_Consistent>  (86) 
1

>  <s_lp_Variant>  (86) 
55:0-3

>  <s_i_glide_gridfile>  (86) 
pfpi4k_grid

>  <i_i_glide_lignum>  (86) 
28

>  <i_i_glide_rotatable_bonds>  (86) 
16

>  <r_i_docking_score>  (86) 
-3.31991

>  <r_i_glide_ligand_efficiency>  (86) 
-0.0553318

>  <r_i_glide_ligand_efficiency_sa>  (86) 
-0.216617

>  <r_i_glide_ligand_efficiency_ln>  (86) 
-0.651685

>  <r_i_glide_gscore>  (86) 
-3.31991

>  <r_i_glide_lipo>  (86) 
-0.307691

>  <r_i_glide_hbond>  (86) 
0

>  <r_i_glide_metal>  (86) 
-0

>  <r_i_glide_rewards>  (86) 
-0.529362

>  <r_i_glide_evdw>  (86) 
-34.8253

>  <r_i_glide_ecoul>  (86) 
-4.95827

>  <r_i_glide_erotb>  (86) 
0.0288421

>  <r_i_glide_esite>  (86) 
-0.0266892

>  <r_i_glide_emodel>  (86) 
-50.7559

>  <r_i_glide_energy>  (86) 
-39.7836

>  <r_i_glide_einternal>  (86) 
5.04758

>  <r_i_glide_intrahb_reward>  (86) 
-0.5

>  <i_i_glide_confnum>  (86) 
1

>  <i_i_glide_posenum>  (86) 
11

>  <r_i_glide_eff_state_penalty>  (86) 
0

>  <ligand_id>  (86) 
55

>  <original_smiles>  (86) 
C=C1CCC23OC4(CO)CC(O)C(CC)(O4)C4(O)C(C(=O)C2C)C2(O)OC4(OC)C4CCC(OC)(C5(O)CC6(O)C(O)C(CC)(CC)C(C[S+]([O-])C3C1)C6(OC)C5O)C42O

>  <smiles>  (86) 
[H]OC([H])([H])C12OC34C([H])([H])C([H])([H])C(=C([H])[H])C([H])([H])C3([H])S(=O)C([H])([H])C3([H])C5(OC([H])([H])[H])C([H])(O[H])C(O[H])(C([H])([H])C5(O[H])C([H])(O[H])C3(C([H])([H])C([H])([H])[H])C([H])([H])C([H])([H])[H])C3(OC([H])([H])[H])C([H])([H])C([H])([H])C5([H])C6(OC([H])([H])[H])OC(O[H])(C([H])(C(=O)C4([H])C([H])([H])[H])C6(O[H])C(C([H])([H])C([H])([H])[H])(O1)C([H])(O[H])C2([H])[H])C53O[H]

$$$$
56:1:0
     RDKit          3D

116126  0  0  1  0  0  0  0  0999 V2000
    4.2131    6.6133    8.7335 C   0  0  0  0  0  0  0  0  0  0  0  0
    4.4313    5.5483    7.9365 C   0  0  0  0  0  0  0  0  0  0  0  0
    4.3706    5.7326    6.3945 C   0  0  0  0  0  0  0  0  0  0  0  0
    3.0765    5.2375    5.6564 C   0  0  2  0  0  0  0  0  0  0  0  0
    1.9859    6.0456    6.1081 O   0  0  0  0  0  0  0  0  0  0  0  0
    1.4475    5.3933    7.1661 C   0  0  0  0  0  0  0  0  0  0  0  0
    1.9335    4.1498    7.2983 C   0  0  0  0  0  0  0  0  0  0  0  0
    2.7044    3.8191    6.0967 C   0  0  1  0  0  0  0  0  0  0  0  0
    1.8129    3.0954    5.2701 O   0  0  0  0  0  0  0  0  0  0  0  0
    1.8364    1.6925    5.3611 C   0  0  2  0  0  0  0  0  0  0  0  0
    0.8653    1.0355    4.5966 O   0  0  0  0  0  0  0  0  0  0  0  0
   -0.4702    1.4057    4.7427 C   0  0  2  0  0  0  0  0  0  0  0  0
   -1.2992    0.5933    3.7454 C   0  0  0  0  0  0  0  0  0  0  0  0
   -1.3137    1.4718    2.5100 C   0  0  0  0  0  0  0  0  0  0  0  0
   -1.4183    2.8487    3.1460 C   0  0  1  0  0  0  0  0  0  0  0  0
   -2.8690    3.2745    3.4150 C   0  0  0  0  0  0  0  0  0  0  0  0
   -0.7292    2.7481    4.3940 O   0  0  0  0  0  0  0  0  0  0  0  0
   -0.9110    1.1654    6.1930 C   0  0  1  0  0  0  0  0  0  0  0  0
   -0.9960   -0.2207    6.4647 O   0  0  0  0  0  0  0  0  0  0  0  0
   -0.2020    2.0914    7.2222 C   0  0  0  0  0  0  0  0  0  0  0  0
    1.2133    1.7401    7.9099 C   0  0  2  0  0  0  0  0  0  0  0  0
    0.7288    0.8594    9.1477 C   0  0  0  0  0  0  0  0  0  0  0  0
    1.2786    0.8966   10.5750 C   0  0  0  0  0  0  0  0  0  0  0  0
   -0.2095    0.0718    9.0245 O   0  0  0  0  0  0  0  0  0  0  0  0
    1.7844    3.1777    8.4340 C   0  0  2  0  0  0  0  0  0  0  0  0
    0.8474    3.8634    9.4755 C   0  0  0  0  0  0  0  0  0  0  0  0
    3.4521    3.0767    9.3176 S   0  0  0  0  0  0  0  0  0  0  0  0
    3.2546    3.5198   10.7667 O   0  0  0  0  0  0  0  0  0  0  0  0
    4.7959    4.1826    8.5716 C   0  0  1  0  0  0  0  0  0  0  0  0
    6.0122    3.4297    7.9158 C   0  0  1  0  0  0  0  0  0  0  0  0
    7.1907    4.1172    8.2619 O   0  0  0  0  0  0  0  0  0  0  0  0
    6.0570    2.0454    8.2543 O   0  0  0  0  0  0  0  0  0  0  0  0
    7.0689    1.2322    7.6514 C   0  0  1  0  0  0  0  0  0  0  0  0
    7.4761    1.7156    6.2322 C   0  0  0  0  0  0  0  0  0  0  0  0
    8.2165    1.2778    8.4544 O   0  0  0  0  0  0  0  0  0  0  0  0
    6.6193   -0.2603    7.5550 C   0  0  1  0  0  0  0  0  0  0  0  0
    7.5983   -1.0672    6.9027 O   0  0  0  0  0  0  0  0  0  0  0  0
    8.2284   -1.9114    7.8583 C   0  0  0  0  0  0  0  0  0  0  0  0
    7.1762   -2.1788    8.9246 C   0  0  1  0  0  0  0  0  0  0  0  0
    7.7514   -2.3409   10.3420 C   0  0  0  0  0  0  0  0  0  0  0  0
    6.2520   -1.0039    8.7732 C   0  0  2  0  0  0  0  0  0  0  0  0
    5.2373   -1.0084    7.5902 C   0  0  1  0  0  0  0  0  0  0  0  0
    3.8148   -0.3700    7.7379 C   0  0  1  0  0  0  0  0  0  0  0  0
    3.5529   -0.5130    9.2407 C   0  0  0  0  0  0  0  0  0  0  0  0
    3.7354    0.8970    6.8841 C   0  0  1  0  0  0  0  0  0  0  0  0
    4.4360    0.6227    5.6083 O   0  0  0  0  0  0  0  0  0  0  0  0
    4.0629   -0.4861    4.7798 C   0  0  2  0  0  0  0  0  0  0  0  0
    5.3716   -1.2761    4.4059 C   0  0  0  0  0  0  0  0  0  0  0  0
    5.1308   -2.4266    3.4185 C   0  0  0  0  0  0  0  0  0  0  0  0
    4.3931   -1.8892    2.1812 C   0  0  1  0  0  0  0  0  0  0  0  0
    3.8898   -3.0582    1.3324 C   0  0  0  0  0  0  0  0  0  0  0  0
    3.1916   -1.0078    2.5738 C   0  0  0  0  0  0  0  0  0  0  0  0
    3.5714   -0.0324    3.5400 O   0  0  0  0  0  0  0  0  0  0  0  0
    2.8748   -1.2318    5.4652 C   0  0  1  0  0  0  0  0  0  0  0  0
    3.1781   -2.6008    5.6613 O   0  0  0  0  0  0  0  0  0  0  0  0
    2.5228   -0.5947    6.8190 C   0  0  1  0  0  0  0  0  0  0  0  0
    1.4587   -1.4063    7.2912 O   0  0  0  0  0  0  0  0  0  0  0  0
    2.1879    0.9920    6.7729 C   0  0  2  0  0  0  0  0  0  0  0  0
    4.2658    6.5273    9.8089 H   0  0  0  0  0  0  0  0  0  0  0  0
    3.9778    7.5837    8.3271 H   0  0  0  0  0  0  0  0  0  0  0  0
    4.4612    6.7977    6.1865 H   0  0  0  0  0  0  0  0  0  0  0  0
    5.2591    5.3073    5.9339 H   0  0  0  0  0  0  0  0  0  0  0  0
    3.2082    5.3052    4.5761 H   0  0  0  0  0  0  0  0  0  0  0  0
    0.8236    5.9820    7.8126 H   0  0  0  0  0  0  0  0  0  0  0  0
    3.6459    3.3149    6.2233 H   0  0  0  0  0  0  0  0  0  0  0  0
    2.6538    1.6343    4.6671 H   0  0  0  0  0  0  0  0  0  0  0  0
   -0.8746   -0.4046    3.5897 H   0  0  0  0  0  0  0  0  0  0  0  0
   -2.3099    0.4959    4.1415 H   0  0  0  0  0  0  0  0  0  0  0  0
   -0.3838    1.3749    1.9481 H   0  0  0  0  0  0  0  0  0  0  0  0
   -2.1383    1.2690    1.8279 H   0  0  0  0  0  0  0  0  0  0  0  0
   -0.9572    3.6012    2.5081 H   0  0  0  0  0  0  0  0  0  0  0  0
   -3.4341    3.3835    2.4877 H   0  0  0  0  0  0  0  0  0  0  0  0
   -2.8753    4.2325    3.9264 H   0  0  0  0  0  0  0  0  0  0  0  0
   -3.4004    2.5605    4.0454 H   0  0  0  0  0  0  0  0  0  0  0  0
   -1.9563    1.4788    6.2224 H   0  0  0  0  0  0  0  0  0  0  0  0
   -0.1252   -0.6053    6.3577 H   0  0  0  0  0  0  0  0  0  0  0  0
   -0.2100    3.0805    6.7627 H   0  0  0  0  0  0  0  0  0  0  0  0
   -0.9496    2.2539    7.9989 H   0  0  0  0  0  0  0  0  0  0  0  0
    2.2952    1.2597   10.6618 H   0  0  0  0  0  0  0  0  0  0  0  0
    1.2794   -0.1263   10.9360 H   0  0  0  0  0  0  0  0  0  0  0  0
    0.6139    1.4051   11.2850 H   0  0  0  0  0  0  0  0  0  0  0  0
   -0.1581    4.0312    9.0902 H   0  0  0  0  0  0  0  0  0  0  0  0
    1.2353    4.8408    9.7683 H   0  0  0  0  0  0  0  0  0  0  0  0
    0.7442    3.3152   10.4035 H   0  0  0  0  0  0  0  0  0  0  0  0
    5.2311    4.4825    9.5264 H   0  0  0  0  0  0  0  0  0  0  0  0
    5.8989    3.4868    6.8367 H   0  0  0  0  0  0  0  0  0  0  0  0
    7.9091    3.7446    7.7712 H   0  0  0  0  0  0  0  0  0  0  0  0
    8.0098    2.6606    6.2769 H   0  0  0  0  0  0  0  0  0  0  0  0
    6.6219    1.7970    5.5700 H   0  0  0  0  0  0  0  0  0  0  0  0
    8.1738    1.0170    5.7791 H   0  0  0  0  0  0  0  0  0  0  0  0
    8.0468    0.7623    9.2365 H   0  0  0  0  0  0  0  0  0  0  0  0
    8.5900   -2.8318    7.4038 H   0  0  0  0  0  0  0  0  0  0  0  0
    9.0784   -1.3708    8.2763 H   0  0  0  0  0  0  0  0  0  0  0  0
    6.6233   -3.0829    8.6714 H   0  0  0  0  0  0  0  0  0  0  0  0
    8.2918   -1.4563   10.6698 H   0  0  0  0  0  0  0  0  0  0  0  0
    8.4410   -3.1851   10.3878 H   0  0  0  0  0  0  0  0  0  0  0  0
    6.9602   -2.5348   11.0630 H   0  0  0  0  0  0  0  0  0  0  0  0
    6.1057   -0.4089    9.6713 H   0  0  0  0  0  0  0  0  0  0  0  0
    5.1460   -2.0213    7.1975 H   0  0  0  0  0  0  0  0  0  0  0  0
    3.8100    0.3892    9.7963 H   0  0  0  0  0  0  0  0  0  0  0  0
    4.0996   -1.3579    9.6825 H   0  0  0  0  0  0  0  0  0  0  0  0
    2.5502   -0.8560    9.4288 H   0  0  0  0  0  0  0  0  0  0  0  0
    4.1474    1.7449    7.3386 H   0  0  0  0  0  0  0  0  0  0  0  0
    6.0289   -0.5181    3.9857 H   0  0  0  0  0  0  0  0  0  0  0  0
    5.9079   -1.6563    5.2742 H   0  0  0  0  0  0  0  0  0  0  0  0
    6.1057   -2.8247    3.0946 H   0  0  0  0  0  0  0  0  0  0  0  0
    4.5667   -3.2584    3.8783 H   0  0  0  0  0  0  0  0  0  0  0  0
    5.0893   -1.2764    1.6027 H   0  0  0  0  0  0  0  0  0  0  0  0
    3.1472   -3.6562    1.8659 H   0  0  0  0  0  0  0  0  0  0  0  0
    4.7002   -3.7307    1.0541 H   0  0  0  0  0  0  0  0  0  0  0  0
    3.4113   -2.6973    0.4236 H   0  0  0  0  0  0  0  0  0  0  0  0
    2.8172   -0.4745    1.6890 H   0  0  0  0  0  0  0  0  0  0  0  0
    2.3620   -1.6153    2.9498 H   0  0  0  0  0  0  0  0  0  0  0  0
    1.9600   -1.1297    4.8669 H   0  0  0  0  0  0  0  0  0  0  0  0
    3.3514   -2.9736    4.8229 H   0  0  0  0  0  0  0  0  0  0  0  0
    1.3858   -1.2749    8.2260 H   0  0  0  0  0  0  0  0  0  0  0  0
  1  2  2  0
  1 59  1  0
  1 60  1  0
  2 29  1  0
  2  3  1  0
  3  4  1  0
  3 61  1  0
  3 62  1  0
  4  8  1  0
  4  5  1  0
  4 63  1  6
  5  6  1  0
  6  7  2  0
  6 64  1  0
  7 25  1  0
  7  8  1  0
  8  9  1  0
  8 65  1  1
  9 10  1  0
 10 58  1  0
 10 11  1  0
 10 66  1  6
 12 11  1  1
 12 17  1  0
 12 13  1  0
 12 18  1  0
 13 14  1  0
 13 67  1  0
 13 68  1  0
 14 15  1  0
 14 69  1  0
 14 70  1  0
 15 16  1  0
 15 17  1  0
 15 71  1  6
 16 72  1  0
 16 73  1  0
 16 74  1  0
 18 19  1  0
 18 20  1  0
 18 75  1  6
 19 76  1  0
 20 21  1  0
 20 77  1  0
 20 78  1  0
 58 21  1  1
 21 22  1  1
 21 25  1  0
 22 23  1  0
 22 24  2  0
 23 79  1  0
 23 80  1  0
 23 81  1  0
 25 26  1  1
 27 25  1  6
 26 82  1  0
 26 83  1  0
 26 84  1  0
 27 28  2  0
 27 29  1  0
 29 30  1  0
 29 85  1  1
 30 31  1  0
 30 32  1  0
 30 86  1  6
 31 87  1  0
 32 33  1  0
 33 34  1  0
 33 35  1  1
 33 36  1  0
 34 88  1  0
 34 89  1  0
 34 90  1  0
 35 91  1  0
 36 41  1  0
 36 42  1  0
 36 37  1  6
 37 38  1  0
 38 39  1  0
 38 92  1  0
 38 93  1  0
 39 40  1  0
 39 41  1  0
 39 94  1  6
 40 95  1  0
 40 96  1  0
 40 97  1  0
 41 42  1  0
 41 98  1  1
 42 43  1  0
 42 99  1  6
 43 56  1  0
 43 44  1  1
 43 45  1  0
 44100  1  0
 44101  1  0
 44102  1  0
 45 58  1  0
 45 46  1  0
 45103  1  1
 46 47  1  0
 47 53  1  6
 47 48  1  0
 47 54  1  0
 48 49  1  0
 48104  1  0
 48105  1  0
 49 50  1  0
 49106  1  0
 49107  1  0
 50 51  1  0
 50 52  1  0
 50108  1  6
 51109  1  0
 51110  1  0
 51111  1  0
 52 53  1  0
 52112  1  0
 52113  1  0
 54 55  1  0
 54 56  1  0
 54114  1  6
 55115  1  0
 56 57  1  1
 56 58  1  0
 57116  1  0
M  END
>  <i_m_ct_stereo_status>  (87) 
1

>  <s_m_source_file>  (87) 
/var/tmp/pbs.5075288.sched01/tmp_km6m70o/128goojv9vu.sdf

>  <i_m_source_file_index>  (87) 
31

>  <i_lp_mmshare_version>  (87) 
48012

>  <i_f3d_flags>  (87) 
0

>  <s_epik_input>  (87) 
W0NIM11bQ0BASF0oTzEpW0NIMl1bQ0gyXVtDQEBdMTJPW0NAQEhdM1tDQF00NVtDQF0oQyg9TylbQ0gzXSkoW0NIMl1bQ0BASF0yW09IXSlbQ0BdNihbQ0gzXSlDN1tDQEBIXShPMylbQ0BASF0oT1tDSF09NylbQ0gyXUMoPVtDSDJdKVtDQEBIXShbUytdNltPLV0pW0NAQEhdKFtPSF0pT1tDQEBdKFtDSDNdKShbT0hdKVtDQF04OVtDQEhdKFtDQEBIXShbQ0gyXU84KVtDSDNdKVtDQEhdOUMxKFtDSDNdKVtDQEhdNE9bQ0BdMihbQ0BASF0oW09IXSlbQ0BAXTE1W09IXSlbQ0gyXVtDSDJdW0NAQEhdKFtDSDNdKVtDSDJdTzI=

>  <s_epik_cmdline>  (87) 
J2VwaWtfcHl0aG9uJywgJy1waHQnLCAnMi4wJywgJy1waCcsICc3LjAnLCAnLXRuJywgJzgnLCAnLW1hJywgJzIwMCcsICctaW1hZScsICc8aW5maWxlLm1hZT4nLCAnLW9tYWUnLCAnPG91dGZpbGUubWFlPic=

>  <r_lp_tautomer_probability>  (87) 
1

>  <r_epik_Ionization_Penalty>  (87) 
5.93071e-06

>  <r_epik_Ionization_Penalty_Charging>  (87) 
0

>  <r_epik_Ionization_Penalty_Neutral>  (87) 
5.93071e-06

>  <r_epik_State_Penalty>  (87) 
-0

>  <r_epik_Charging_Adjusted_Penalty>  (87) 
0

>  <i_epik_Tot_Q>  (87) 
0

>  <i_epik_Tot_abs_Q>  (87) 
2

>  <s_epik_Chemistry_Notes>  (87) 
This compound contains an acetal/aminal-like group ( X-CH(R)-Y where X, Y are N, S, or O) that may be acid/base labile, releasing an aldehyde.

>  <s_lp_Force_Field>  (87) 
OPLS3e

>  <r_lp_Energy>  (87) 
187.918

>  <b_lp_Chiralities_Consistent>  (87) 
1

>  <s_lp_Variant>  (87) 
56:0-2

>  <s_i_glide_gridfile>  (87) 
pfpi4k_grid

>  <i_i_glide_lignum>  (87) 
31

>  <i_i_glide_rotatable_bonds>  (87) 
6

>  <r_i_docking_score>  (87) 
-2.78405

>  <r_i_glide_ligand_efficiency>  (87) 
-0.0480008

>  <r_i_glide_ligand_efficiency_sa>  (87) 
-0.185805

>  <r_i_glide_ligand_efficiency_ln>  (87) 
-0.550159

>  <r_i_glide_gscore>  (87) 
-2.78405

>  <r_i_glide_lipo>  (87) 
-0.305198

>  <r_i_glide_hbond>  (87) 
0

>  <r_i_glide_metal>  (87) 
-0

>  <r_i_glide_rewards>  (87) 
-0.535285

>  <r_i_glide_evdw>  (87) 
-23.9271

>  <r_i_glide_ecoul>  (87) 
-4.83811

>  <r_i_glide_erotb>  (87) 
0

>  <r_i_glide_esite>  (87) 
-0.0214942

>  <r_i_glide_emodel>  (87) 
-36.9273

>  <r_i_glide_energy>  (87) 
-28.7652

>  <r_i_glide_einternal>  (87) 
1.15923

>  <r_i_glide_intrahb_reward>  (87) 
-0.5

>  <i_i_glide_confnum>  (87) 
3

>  <i_i_glide_posenum>  (87) 
31

>  <r_i_glide_eff_state_penalty>  (87) 
0

>  <ligand_id>  (87) 
56

>  <original_smiles>  (87) 
C=C1CC2OC=C3C2OC2OC4(CCC(C)O4)C(O)CC4(C(C)=O)C3(C)[S+]([O-])C1C(O)OC(C)(O)C13OCC(C)C1C3C1(C)C3OC5(CCC(C)CO5)C(O)C1(O)C234

>  <smiles>  (87) 
[H]OC1([H])OC(O[H])(C([H])([H])[H])C23OC([H])([H])C([H])(C([H])([H])[H])C2([H])C3([H])C2(C([H])([H])[H])C3([H])OC4(OC([H])([H])C([H])(C([H])([H])[H])C([H])([H])C4([H])[H])C([H])(O[H])C2(O[H])C32C3([H])OC4([H])C5=C([H])OC4([H])C([H])([H])C(=C([H])[H])C1([H])S(=O)C5(C([H])([H])[H])C2(C(=O)C([H])([H])[H])C([H])([H])C([H])(O[H])C1(O3)OC([H])(C([H])([H])[H])C([H])([H])C1([H])[H]

$$$$
56:1:1
     RDKit          3D

116126  0  0  1  0  0  0  0  0999 V2000
    3.9769    0.4824   11.6283 C   0  0  0  0  0  0  0  0  0  0  0  0
    4.2635    0.1929   10.3412 C   0  0  0  0  0  0  0  0  0  0  0  0
    4.7125    1.3359    9.3922 C   0  0  0  0  0  0  0  0  0  0  0  0
    3.6531    1.8886    8.3783 C   0  0  2  0  0  0  0  0  0  0  0  0
    2.6151    2.5068    9.1442 O   0  0  0  0  0  0  0  0  0  0  0  0
    1.6730    1.5392    9.3448 C   0  0  0  0  0  0  0  0  0  0  0  0
    1.9053    0.4648    8.6071 C   0  0  0  0  0  0  0  0  0  0  0  0
    2.9612    0.7423    7.6338 C   0  0  1  0  0  0  0  0  0  0  0  0
    2.2692    1.0799    6.4482 O   0  0  0  0  0  0  0  0  0  0  0  0
    2.0683    0.0618    5.4966 C   0  0  2  0  0  0  0  0  0  0  0  0
    1.2999    0.4262    4.3786 O   0  0  0  0  0  0  0  0  0  0  0  0
    0.0609    1.0192    4.6153 C   0  0  2  0  0  0  0  0  0  0  0  0
   -0.5460    1.3640    3.2541 C   0  0  0  0  0  0  0  0  0  0  0  0
   -0.0712    2.7656    3.0425 C   0  0  0  0  0  0  0  0  0  0  0  0
   -0.1398    3.3415    4.4408 C   0  0  1  0  0  0  0  0  0  0  0  0
   -1.5372    3.9093    4.7647 C   0  0  0  0  0  0  0  0  0  0  0  0
    0.1194    2.2351    5.3009 O   0  0  0  0  0  0  0  0  0  0  0  0
   -0.8463    0.0463    5.3440 C   0  0  1  0  0  0  0  0  0  0  0  0
   -1.1757   -1.0353    4.5153 O   0  0  0  0  0  0  0  0  0  0  0  0
   -0.3658   -0.2328    6.7838 C   0  0  0  0  0  0  0  0  0  0  0  0
    0.6817   -1.3511    7.1854 C   0  0  2  0  0  0  0  0  0  0  0  0
   -0.2066   -2.6508    7.4550 C   0  0  0  0  0  0  0  0  0  0  0  0
   -1.3659   -3.1620    6.5374 C   0  0  0  0  0  0  0  0  0  0  0  0
   -0.0898   -3.2894    8.4725 O   0  0  0  0  0  0  0  0  0  0  0  0
    1.2702   -0.9031    8.6663 C   0  0  2  0  0  0  0  0  0  0  0  0
    0.1801   -0.7940    9.7910 C   0  0  0  0  0  0  0  0  0  0  0  0
    2.5375   -2.0916    9.4311 S   0  0  0  0  0  0  0  0  0  0  0  0
    1.9656   -2.6501   10.7333 O   0  0  0  0  0  0  0  0  0  0  0  0
    4.2007   -1.2780    9.8674 C   0  0  1  0  0  0  0  0  0  0  0  0
    5.4266   -1.7746    9.0145 C   0  0  1  0  0  0  0  0  0  0  0  0
    6.5427   -1.9213    9.8911 O   0  0  0  0  0  0  0  0  0  0  0  0
    5.1591   -2.9679    8.2981 O   0  0  0  0  0  0  0  0  0  0  0  0
    6.1635   -3.4515    7.4135 C   0  0  1  0  0  0  0  0  0  0  0  0
    7.0587   -2.3204    6.8307 C   0  0  0  0  0  0  0  0  0  0  0  0
    7.0092   -4.3372    8.1290 O   0  0  0  0  0  0  0  0  0  0  0  0
    5.5534   -4.2755    6.2441 C   0  0  1  0  0  0  0  0  0  0  0  0
    6.5547   -4.7183    5.3278 O   0  0  0  0  0  0  0  0  0  0  0  0
    6.7437   -6.1263    5.4552 C   0  0  0  0  0  0  0  0  0  0  0  0
    5.3858   -6.6740    5.8969 C   0  0  1  0  0  0  0  0  0  0  0  0
    5.4699   -7.8871    6.8307 C   0  0  0  0  0  0  0  0  0  0  0  0
    4.7355   -5.4756    6.5164 C   0  0  2  0  0  0  0  0  0  0  0  0
    4.1195   -4.3826    5.6096 C   0  0  1  0  0  0  0  0  0  0  0  0
    2.8505   -3.5683    5.9882 C   0  0  1  0  0  0  0  0  0  0  0  0
    2.0807   -4.5371    6.9171 C   0  0  0  0  0  0  0  0  0  0  0  0
    3.2519   -2.1086    6.2337 C   0  0  1  0  0  0  0  0  0  0  0  0
    4.2609   -1.7231    5.2309 O   0  0  0  0  0  0  0  0  0  0  0  0
    3.9978   -1.8275    3.8217 C   0  0  2  0  0  0  0  0  0  0  0  0
    5.2242   -2.5611    3.1767 C   0  0  0  0  0  0  0  0  0  0  0  0
    5.1240   -2.6204    1.6286 C   0  0  0  0  0  0  0  0  0  0  0  0
    4.8959   -1.2085    1.0551 C   0  0  1  0  0  0  0  0  0  0  0  0
    4.5112   -1.3042   -0.4205 C   0  0  0  0  0  0  0  0  0  0  0  0
    3.7819   -0.4666    1.8145 C   0  0  0  0  0  0  0  0  0  0  0  0
    3.9920   -0.5578    3.2297 O   0  0  0  0  0  0  0  0  0  0  0  0
    2.5672   -2.4259    3.6334 C   0  0  1  0  0  0  0  0  0  0  0  0
    2.5720   -3.5882    2.8149 O   0  0  0  0  0  0  0  0  0  0  0  0
    1.9364   -2.7057    4.9942 C   0  0  1  0  0  0  0  0  0  0  0  0
    0.6820   -3.2010    4.5878 O   0  0  0  0  0  0  0  0  0  0  0  0
    1.8521   -1.4626    6.0218 C   0  0  2  0  0  0  0  0  0  0  0  0
    3.6829   -0.2886   12.3239 H   0  0  0  0  0  0  0  0  0  0  0  0
    4.0310    1.4894   12.0038 H   0  0  0  0  0  0  0  0  0  0  0  0
    5.0200    2.1759   10.0135 H   0  0  0  0  0  0  0  0  0  0  0  0
    5.6281    1.0559    8.8760 H   0  0  0  0  0  0  0  0  0  0  0  0
    4.1199    2.5939    7.6890 H   0  0  0  0  0  0  0  0  0  0  0  0
    0.9779    1.7281   10.1488 H   0  0  0  0  0  0  0  0  0  0  0  0
    3.7311    0.0106    7.4845 H   0  0  0  0  0  0  0  0  0  0  0  0
    3.0462    0.1949    5.0816 H   0  0  0  0  0  0  0  0  0  0  0  0
   -0.2520    0.6492    2.4827 H   0  0  0  0  0  0  0  0  0  0  0  0
   -1.6408    1.3813    3.3157 H   0  0  0  0  0  0  0  0  0  0  0  0
    0.9416    2.7581    2.6337 H   0  0  0  0  0  0  0  0  0  0  0  0
   -0.7742    3.2729    2.3950 H   0  0  0  0  0  0  0  0  0  0  0  0
    0.6240    4.1112    4.5630 H   0  0  0  0  0  0  0  0  0  0  0  0
   -1.7633    4.7481    4.1085 H   0  0  0  0  0  0  0  0  0  0  0  0
   -1.5917    4.2478    5.7989 H   0  0  0  0  0  0  0  0  0  0  0  0
   -2.3294    3.1723    4.6222 H   0  0  0  0  0  0  0  0  0  0  0  0
   -1.7862    0.6023    5.4646 H   0  0  0  0  0  0  0  0  0  0  0  0
   -0.3721   -1.4808    4.2655 H   0  0  0  0  0  0  0  0  0  0  0  0
   -0.0968    0.7262    7.1993 H   0  0  0  0  0  0  0  0  0  0  0  0
   -1.3036   -0.3956    7.2658 H   0  0  0  0  0  0  0  0  0  0  0  0
   -1.8921   -2.4511    5.9615 H   0  0  0  0  0  0  0  0  0  0  0  0
   -2.1828   -3.5872    7.1346 H   0  0  0  0  0  0  0  0  0  0  0  0
   -1.0566   -4.0168    5.9147 H   0  0  0  0  0  0  0  0  0  0  0  0
   -0.6150   -0.1006    9.5341 H   0  0  0  0  0  0  0  0  0  0  0  0
    0.6094   -0.4438   10.7301 H   0  0  0  0  0  0  0  0  0  0  0  0
   -0.2899   -1.7266   10.0920 H   0  0  0  0  0  0  0  0  0  0  0  0
    4.3619   -1.8306   10.7915 H   0  0  0  0  0  0  0  0  0  0  0  0
    5.6756   -0.9924    8.3025 H   0  0  0  0  0  0  0  0  0  0  0  0
    7.3281   -1.9364    9.3797 H   0  0  0  0  0  0  0  0  0  0  0  0
    7.7059   -1.8707    7.5793 H   0  0  0  0  0  0  0  0  0  0  0  0
    6.4917   -1.5463    6.3130 H   0  0  0  0  0  0  0  0  0  0  0  0
    7.7225   -2.7645    6.1110 H   0  0  0  0  0  0  0  0  0  0  0  0
    7.4633   -3.8629    8.7949 H   0  0  0  0  0  0  0  0  0  0  0  0
    7.1041   -6.5785    4.5308 H   0  0  0  0  0  0  0  0  0  0  0  0
    7.4861   -6.2991    6.2364 H   0  0  0  0  0  0  0  0  0  0  0  0
    4.8115   -6.9510    5.0091 H   0  0  0  0  0  0  0  0  0  0  0  0
    6.0049   -7.6558    7.7507 H   0  0  0  0  0  0  0  0  0  0  0  0
    5.9771   -8.7181    6.3451 H   0  0  0  0  0  0  0  0  0  0  0  0
    4.4734   -8.2306    7.1029 H   0  0  0  0  0  0  0  0  0  0  0  0
    4.4112   -5.5902    7.5520 H   0  0  0  0  0  0  0  0  0  0  0  0
    4.0165   -4.7768    4.6059 H   0  0  0  0  0  0  0  0  0  0  0  0
    2.1738   -4.3187    7.9846 H   0  0  0  0  0  0  0  0  0  0  0  0
    2.3562   -5.5865    6.7859 H   0  0  0  0  0  0  0  0  0  0  0  0
    1.0443   -4.6477    6.6267 H   0  0  0  0  0  0  0  0  0  0  0  0
    3.6110   -1.9390    7.2114 H   0  0  0  0  0  0  0  0  0  0  0  0
    6.0683   -1.9413    3.4438 H   0  0  0  0  0  0  0  0  0  0  0  0
    5.4535   -3.5497    3.5614 H   0  0  0  0  0  0  0  0  0  0  0  0
    6.0717   -3.0429    1.2512 H   0  0  0  0  0  0  0  0  0  0  0  0
    4.3214   -3.2840    1.2790 H   0  0  0  0  0  0  0  0  0  0  0  0
    5.8161   -0.6391    1.1841 H   0  0  0  0  0  0  0  0  0  0  0  0
    3.5547   -1.8195   -0.5467 H   0  0  0  0  0  0  0  0  0  0  0  0
    5.2553   -1.8548   -0.9886 H   0  0  0  0  0  0  0  0  0  0  0  0
    4.3962   -0.3110   -0.8433 H   0  0  0  0  0  0  0  0  0  0  0  0
    3.7795    0.5961    1.5386 H   0  0  0  0  0  0  0  0  0  0  0  0
    2.7961   -0.8580    1.5433 H   0  0  0  0  0  0  0  0  0  0  0  0
    1.8972   -1.6739    3.2033 H   0  0  0  0  0  0  0  0  0  0  0  0
    3.2009   -4.2050    3.1605 H   0  0  0  0  0  0  0  0  0  0  0  0
    0.3303   -3.6986    5.3049 H   0  0  0  0  0  0  0  0  0  0  0  0
  1  2  2  0
  1 59  1  0
  1 60  1  0
  2 29  1  0
  2  3  1  0
  3  4  1  0
  3 61  1  0
  3 62  1  0
  4  8  1  0
  4  5  1  0
  4 63  1  6
  5  6  1  0
  6  7  2  0
  6 64  1  0
  7 25  1  0
  7  8  1  0
  8  9  1  0
  8 65  1  6
  9 10  1  0
 10 58  1  0
 10 11  1  0
 10 66  1  6
 12 11  1  6
 12 17  1  0
 12 13  1  0
 12 18  1  0
 13 14  1  0
 13 67  1  0
 13 68  1  0
 14 15  1  0
 14 69  1  0
 14 70  1  0
 15 16  1  0
 15 17  1  0
 15 71  1  6
 16 72  1  0
 16 73  1  0
 16 74  1  0
 18 19  1  0
 18 20  1  0
 18 75  1  1
 19 76  1  0
 20 21  1  0
 20 77  1  0
 20 78  1  0
 58 21  1  1
 21 22  1  1
 21 25  1  0
 22 23  1  0
 22 24  2  0
 23 79  1  0
 23 80  1  0
 23 81  1  0
 25 26  1  1
 27 25  1  1
 26 82  1  0
 26 83  1  0
 26 84  1  0
 27 28  2  0
 27 29  1  0
 29 30  1  0
 29 85  1  1
 30 31  1  0
 30 32  1  0
 30 86  1  6
 31 87  1  0
 32 33  1  0
 33 34  1  0
 33 35  1  1
 33 36  1  0
 34 88  1  0
 34 89  1  0
 34 90  1  0
 35 91  1  0
 36 41  1  0
 36 42  1  0
 36 37  1  6
 37 38  1  0
 38 39  1  0
 38 92  1  0
 38 93  1  0
 39 40  1  0
 39 41  1  0
 39 94  1  6
 40 95  1  0
 40 96  1  0
 40 97  1  0
 41 42  1  0
 41 98  1  1
 42 43  1  0
 42 99  1  6
 43 56  1  0
 43 44  1  1
 43 45  1  0
 44100  1  0
 44101  1  0
 44102  1  0
 45 58  1  0
 45 46  1  0
 45103  1  1
 46 47  1  0
 47 53  1  6
 47 48  1  0
 47 54  1  0
 48 49  1  0
 48104  1  0
 48105  1  0
 49 50  1  0
 49106  1  0
 49107  1  0
 50 51  1  0
 50 52  1  0
 50108  1  6
 51109  1  0
 51110  1  0
 51111  1  0
 52 53  1  0
 52112  1  0
 52113  1  0
 54 55  1  0
 54 56  1  0
 54114  1  6
 55115  1  0
 56 57  1  6
 56 58  1  0
 57116  1  0
M  END
>  <i_m_ct_stereo_status>  (88) 
1

>  <s_m_source_file>  (88) 
/var/tmp/pbs.5075288.sched01/tmp_km6m70o/128goojv9vu.sdf

>  <i_m_source_file_index>  (88) 
31

>  <i_lp_mmshare_version>  (88) 
48012

>  <i_f3d_flags>  (88) 
0

>  <s_epik_input>  (88) 
W0NIM11bQ0BASF0oTzEpW0NIMl1bQ0gyXVtDQEBdMTJPW0NAQEhdM1tDQF00NVtDQF0oQyg9TylbQ0gzXSkoW0NIMl1bQ0BASF0yW09IXSlbQ0BdNihbQ0gzXSlDN1tDQEBIXShPMylbQ0BASF0oT1tDSF09NylbQ0gyXUMoPVtDSDJdKVtDQEBIXShbUytdNltPLV0pW0NAQEhdKFtPSF0pT1tDQEBdKFtDSDNdKShbT0hdKVtDQF04OVtDQEhdKFtDQEBIXShbQ0gyXU84KVtDSDNdKVtDQEhdOUMxKFtDSDNdKVtDQEhdNE9bQ0BdMihbQ0BASF0oW09IXSlbQ0BAXTE1W09IXSlbQ0gyXVtDSDJdW0NAQEhdKFtDSDNdKVtDSDJdTzI=

>  <s_epik_cmdline>  (88) 
J2VwaWtfcHl0aG9uJywgJy1waHQnLCAnMi4wJywgJy1waCcsICc3LjAnLCAnLXRuJywgJzgnLCAnLW1hJywgJzIwMCcsICctaW1hZScsICc8aW5maWxlLm1hZT4nLCAnLW9tYWUnLCAnPG91dGZpbGUubWFlPic=

>  <r_lp_tautomer_probability>  (88) 
1

>  <r_epik_Ionization_Penalty>  (88) 
5.93071e-06

>  <r_epik_Ionization_Penalty_Charging>  (88) 
0

>  <r_epik_Ionization_Penalty_Neutral>  (88) 
5.93071e-06

>  <r_epik_State_Penalty>  (88) 
-0

>  <r_epik_Charging_Adjusted_Penalty>  (88) 
0

>  <i_epik_Tot_Q>  (88) 
0

>  <i_epik_Tot_abs_Q>  (88) 
2

>  <s_epik_Chemistry_Notes>  (88) 
This compound contains an acetal/aminal-like group ( X-CH(R)-Y where X, Y are N, S, or O) that may be acid/base labile, releasing an aldehyde.

>  <s_lp_Force_Field>  (88) 
OPLS3e

>  <r_lp_Energy>  (88) 
187.918

>  <b_lp_Chiralities_Consistent>  (88) 
1

>  <s_lp_Variant>  (88) 
56:0-2

>  <s_i_glide_gridfile>  (88) 
pfpi4k_grid

>  <i_i_glide_lignum>  (88) 
31

>  <i_i_glide_rotatable_bonds>  (88) 
6

>  <r_i_docking_score>  (88) 
-1.49573

>  <r_i_glide_ligand_efficiency>  (88) 
-0.0257884

>  <r_i_glide_ligand_efficiency_sa>  (88) 
-0.0998238

>  <r_i_glide_ligand_efficiency_ln>  (88) 
-0.295573

>  <r_i_glide_gscore>  (88) 
-1.49573

>  <r_i_glide_lipo>  (88) 
-0.230414

>  <r_i_glide_hbond>  (88) 
-0.0330576

>  <r_i_glide_metal>  (88) 
-0

>  <r_i_glide_rewards>  (88) 
-0.502305

>  <r_i_glide_evdw>  (88) 
-20.05

>  <r_i_glide_ecoul>  (88) 
2.25837

>  <r_i_glide_erotb>  (88) 
0

>  <r_i_glide_esite>  (88) 
-0.066208

>  <r_i_glide_emodel>  (88) 
-22.1047

>  <r_i_glide_energy>  (88) 
-17.7916

>  <r_i_glide_einternal>  (88) 
1.38598

>  <r_i_glide_intrahb_reward>  (88) 
-0.5

>  <i_i_glide_confnum>  (88) 
3

>  <i_i_glide_posenum>  (88) 
8

>  <r_i_glide_eff_state_penalty>  (88) 
0

>  <ligand_id>  (88) 
56

>  <original_smiles>  (88) 
C=C1CC2OC=C3C2OC2OC4(CCC(C)O4)C(O)CC4(C(C)=O)C3(C)[S+]([O-])C1C(O)OC(C)(O)C13OCC(C)C1C3C1(C)C3OC5(CCC(C)CO5)C(O)C1(O)C234

>  <smiles>  (88) 
[H]OC1([H])OC(O[H])(C([H])([H])[H])C23OC([H])([H])C([H])(C([H])([H])[H])C2([H])C3([H])C2(C([H])([H])[H])C3([H])OC4(OC([H])([H])C([H])(C([H])([H])[H])C([H])([H])C4([H])[H])C([H])(O[H])C2(O[H])C32C3([H])OC4([H])C5=C([H])OC4([H])C([H])([H])C(=C([H])[H])C1([H])S(=O)C5(C([H])([H])[H])C2(C(=O)C([H])([H])[H])C([H])([H])C([H])(O[H])C1(O3)OC([H])(C([H])([H])[H])C([H])([H])C1([H])[H]

$$$$
61:0:0
     RDKit          3D

 99106  0  0  1  0  0  0  0  0999 V2000
    3.3970   -2.2245    0.0789 C   0  0  0  0  0  0  0  0  0  0  0  0
    2.8078   -2.1988    1.3885 O   0  0  0  0  0  0  0  0  0  0  0  0
    2.9574   -1.0835    2.2523 C   0  0  1  0  0  0  0  0  0  0  0  0
    2.2530    0.1281    1.5814 C   0  0  0  0  0  0  0  0  0  0  0  0
    2.2913   -1.3662    3.4821 O   0  0  0  0  0  0  0  0  0  0  0  0
    2.4683   -0.3627    4.4819 C   0  0  1  0  0  0  0  0  0  0  0  0
    2.1000   -0.5812    5.8455 O   0  0  0  0  0  0  0  0  0  0  0  0
    3.3541    0.1005    6.2793 C   0  0  1  0  0  0  0  0  0  0  0  0
    3.8879   -0.4975    4.9191 C   0  0  2  0  0  0  0  0  0  0  0  0
    4.7271    0.0821    3.7959 C   0  0  1  0  0  0  0  0  0  0  0  0
    6.0932    0.1483    4.1540 O   0  0  0  0  0  0  0  0  0  0  0  0
    4.4907   -0.7905    2.5143 C   0  0  1  0  0  0  0  0  0  0  0  0
    5.2191   -1.9984    2.6446 O   0  0  0  0  0  0  0  0  0  0  0  0
    3.5937    1.7731    6.2843 C   0  0  1  0  0  0  0  0  0  0  0  0
    2.8024    3.0035    5.5252 C   0  0  0  0  0  0  0  0  0  0  0  0
    1.9056    4.0300    6.4783 C   0  0  0  0  0  0  0  0  0  0  0  0
    2.6374    5.3940    6.5772 C   0  0  0  0  0  0  0  0  0  0  0  0
    0.5794    4.4275    5.7723 C   0  0  0  0  0  0  0  0  0  0  0  0
    1.5349    3.6547    7.9169 O   0  0  0  0  0  0  0  0  0  0  0  0
    1.2677    2.2861    8.5261 C   0  0  1  0  0  0  0  0  0  0  0  0
   -0.2664    2.3998    8.7971 C   0  0  0  0  0  0  0  0  0  0  0  0
    1.8204    1.6218    7.4951 C   0  0  1  0  0  0  0  0  0  0  0  0
    0.8681    1.6103    6.3540 O   0  0  0  0  0  0  0  0  0  0  0  0
   -0.2508    0.8324    6.1542 C   0  0  0  0  0  0  0  0  0  0  0  0
   -0.9010    1.0932    4.8083 C   0  0  0  0  0  0  0  0  0  0  0  0
   -0.7170   -0.0107    6.9224 O   0  0  0  0  0  0  0  0  0  0  0  0
    3.5105    2.1088    7.7756 C   0  0  1  0  0  0  0  0  0  0  0  0
    4.4787    3.1527    7.3568 O   0  0  0  0  0  0  0  0  0  0  0  0
    5.8930    3.1145    7.4087 C   0  0  0  0  0  0  0  0  0  0  0  0
    6.5193    4.3901    6.8411 C   0  0  0  0  0  0  0  0  0  0  0  0
    6.5928    2.2026    7.8028 O   0  0  0  0  0  0  0  0  0  0  0  0
    3.6580    3.2244    9.0742 C   0  0  2  0  0  0  0  0  0  0  0  0
    4.4804    2.9544   10.2137 O   0  0  0  0  0  0  0  0  0  0  0  0
    3.1079    2.9930   10.5750 C   0  0  2  0  0  0  0  0  0  0  0  0
    2.0511    1.8389   10.7688 C   0  0  1  0  0  0  0  0  0  0  0  0
    2.0780    1.1643    9.5245 C   0  0  2  0  0  0  0  0  0  0  0  0
    3.4629   -0.0473    9.3104 C   0  0  1  0  0  0  0  0  0  0  0  0
    4.7519    0.4468   10.0038 C   0  0  0  0  0  0  0  0  0  0  0  0
    3.6113   -1.6667    9.8176 C   0  0  0  0  0  0  0  0  0  0  0  0
    4.9686   -2.5354    9.7915 C   0  0  0  0  0  0  0  0  0  0  0  0
    3.1961   -2.3766   11.1829 C   0  0  0  0  0  0  0  0  0  0  0  0
    2.6421   -1.7264    8.6583 C   0  0  1  0  0  0  0  0  0  0  0  0
    2.6796   -2.9322    8.0791 F   0  0  0  0  0  0  0  0  0  0  0  0
    1.1631   -1.5694    9.3383 C   0  0  0  0  0  0  0  0  0  0  0  0
    0.7941   -0.9337   10.8597 C   0  0  0  0  0  0  0  0  0  0  0  0
    1.9629    0.2975   11.8255 S   0  0  0  0  0  0  0  0  0  0  0  0
    1.1990    0.7001   13.0988 O   0  0  0  0  0  0  0  0  0  0  0  0
    3.6242   -0.6657    7.7837 C   0  0  1  0  0  0  0  0  0  0  0  0
    5.0180   -1.1471    7.3804 C   0  0  0  0  0  0  0  0  0  0  0  0
    6.0726   -0.5123    7.4786 O   0  0  0  0  0  0  0  0  0  0  0  0
    3.1890   -3.1960   -0.3787 H   0  0  0  0  0  0  0  0  0  0  0  0
    4.4805   -2.1366    0.1275 H   0  0  0  0  0  0  0  0  0  0  0  0
    3.0079   -1.4559   -0.5940 H   0  0  0  0  0  0  0  0  0  0  0  0
    1.1706   -0.0192    1.5639 H   0  0  0  0  0  0  0  0  0  0  0  0
    2.5869    0.2535    0.5525 H   0  0  0  0  0  0  0  0  0  0  0  0
    2.4783    1.0601    2.1038 H   0  0  0  0  0  0  0  0  0  0  0  0
    2.1559    0.6195    4.1433 H   0  0  0  0  0  0  0  0  0  0  0  0
    4.0792   -1.5695    5.0331 H   0  0  0  0  0  0  0  0  0  0  0  0
    4.3950    1.0991    3.5659 H   0  0  0  0  0  0  0  0  0  0  0  0
    6.6088    0.3992    3.4026 H   0  0  0  0  0  0  0  0  0  0  0  0
    4.8940   -0.2741    1.6430 H   0  0  0  0  0  0  0  0  0  0  0  0
    5.0178   -2.5448    1.8994 H   0  0  0  0  0  0  0  0  0  0  0  0
    4.5690    1.7591    5.7869 H   0  0  0  0  0  0  0  0  0  0  0  0
    3.5640    3.6077    5.0285 H   0  0  0  0  0  0  0  0  0  0  0  0
    2.2162    2.6460    4.6807 H   0  0  0  0  0  0  0  0  0  0  0  0
    2.7279    5.8594    5.5959 H   0  0  0  0  0  0  0  0  0  0  0  0
    3.6468    5.3505    6.9740 H   0  0  0  0  0  0  0  0  0  0  0  0
    2.0845    6.0862    7.2124 H   0  0  0  0  0  0  0  0  0  0  0  0
    0.7573    4.7037    4.7320 H   0  0  0  0  0  0  0  0  0  0  0  0
    0.1228    5.2865    6.2643 H   0  0  0  0  0  0  0  0  0  0  0  0
   -0.1840    3.6574    5.7721 H   0  0  0  0  0  0  0  0  0  0  0  0
   -0.7556    1.4593    9.0575 H   0  0  0  0  0  0  0  0  0  0  0  0
   -0.7914    2.8402    7.9477 H   0  0  0  0  0  0  0  0  0  0  0  0
   -0.4313    3.0944    9.6243 H   0  0  0  0  0  0  0  0  0  0  0  0
    1.6308    0.5586    7.6296 H   0  0  0  0  0  0  0  0  0  0  0  0
   -0.2096    1.6090    4.1405 H   0  0  0  0  0  0  0  0  0  0  0  0
   -1.7936    1.7055    4.9356 H   0  0  0  0  0  0  0  0  0  0  0  0
   -1.1853    0.1499    4.3439 H   0  0  0  0  0  0  0  0  0  0  0  0
    6.3949    5.2098    7.5466 H   0  0  0  0  0  0  0  0  0  0  0  0
    6.0883    4.6579    5.8751 H   0  0  0  0  0  0  0  0  0  0  0  0
    7.5846    4.2131    6.7083 H   0  0  0  0  0  0  0  0  0  0  0  0
    3.5526    4.2986    8.8670 H   0  0  0  0  0  0  0  0  0  0  0  0
    2.8853    3.8612   11.1923 H   0  0  0  0  0  0  0  0  0  0  0  0
    1.0988    2.3340   10.9614 H   0  0  0  0  0  0  0  0  0  0  0  0
    1.1447    0.6900    9.4788 H   0  0  0  0  0  0  0  0  0  0  0  0
    5.5251   -0.2827   10.1877 H   0  0  0  0  0  0  0  0  0  0  0  0
    4.5739    0.8162   11.0110 H   0  0  0  0  0  0  0  0  0  0  0  0
    5.3139    1.1159    9.3804 H   0  0  0  0  0  0  0  0  0  0  0  0
    4.8167   -3.5238    9.3586 H   0  0  0  0  0  0  0  0  0  0  0  0
    5.4300   -2.6776   10.7686 H   0  0  0  0  0  0  0  0  0  0  0  0
    5.8723   -2.1363    9.3552 H   0  0  0  0  0  0  0  0  0  0  0  0
    3.6576   -3.3454   11.3965 H   0  0  0  0  0  0  0  0  0  0  0  0
    2.2048   -2.8002   11.2175 H   0  0  0  0  0  0  0  0  0  0  0  0
    3.4373   -1.7942   12.0683 H   0  0  0  0  0  0  0  0  0  0  0  0
    0.4831   -1.1362    8.6155 H   0  0  0  0  0  0  0  0  0  0  0  0
    0.7598   -2.5793    9.4026 H   0  0  0  0  0  0  0  0  0  0  0  0
   -0.1626   -0.4133   10.7558 H   0  0  0  0  0  0  0  0  0  0  0  0
    0.5162   -1.7261   11.5547 H   0  0  0  0  0  0  0  0  0  0  0  0
    5.0429   -2.1616    6.9590 H   0  0  0  0  0  0  0  0  0  0  0  0
  1  2  1  0
  1 51  1  0
  1 52  1  0
  1 53  1  0
  3  2  1  6
  3 12  1  0
  3  4  1  0
  3  5  1  0
  4 54  1  0
  4 55  1  0
  4 56  1  0
  5  6  1  0
  6  9  1  0
  6  7  1  0
  6 57  1  6
  8  7  1  6
  8 48  1  0
  8  9  1  0
  8 14  1  0
  9 10  1  0
  9 58  1  1
 10 11  1  0
 10 12  1  0
 10 59  1  6
 11 60  1  0
 12 13  1  0
 12 61  1  6
 13 62  1  0
 14 27  1  0
 14 15  1  0
 14 63  1  6
 15 16  1  0
 15 64  1  0
 15 65  1  0
 16 17  1  0
 16 18  1  0
 16 19  1  0
 17 66  1  0
 17 67  1  0
 17 68  1  0
 18 69  1  0
 18 70  1  0
 18 71  1  0
 19 20  1  0
 20 36  1  0
 20 21  1  6
 20 22  1  0
 21 72  1  0
 21 73  1  0
 21 74  1  0
 22 23  1  0
 22 27  1  0
 22 75  1  1
 23 24  1  0
 24 25  1  0
 24 26  2  0
 25 76  1  0
 25 77  1  0
 25 78  1  0
 27 28  1  6
 27 32  1  0
 28 29  1  0
 29 30  1  0
 29 31  2  0
 30 79  1  0
 30 80  1  0
 30 81  1  0
 32 34  1  0
 32 33  1  0
 32 82  1  6
 33 34  1  0
 34 35  1  0
 34 83  1  1
 35 46  1  0
 35 36  1  0
 35 84  1  6
 36 37  1  0
 36 85  1  1
 37 48  1  0
 37 38  1  1
 37 39  1  0
 38 86  1  0
 38 87  1  0
 38 88  1  0
 39 40  1  0
 39 41  1  0
 39 42  1  0
 40 89  1  0
 40 90  1  0
 40 91  1  0
 41 92  1  0
 41 93  1  0
 41 94  1  0
 42 43  1  6
 42 44  1  0
 42 48  1  0
 44 45  1  0
 44 95  1  0
 44 96  1  0
 46 45  1  6
 45 97  1  0
 45 98  1  0
 46 47  2  0
 48 49  1  6
 49 50  2  0
 49 99  1  0
M  END
>  <i_m_ct_stereo_status>  (89) 
1

>  <s_m_source_file>  (89) 
/var/tmp/pbs.5075288.sched01/tmp_km6m70o/128goojv9vu.sdf

>  <i_m_source_file_index>  (89) 
49

>  <i_lp_mmshare_version>  (89) 
48012

>  <i_f3d_flags>  (89) 
0

>  <s_epik_input>  (89) 
W09IXVtDQEhdMVtDQEBIXShbT0hdKVtDQEBdKFtDSDNdKShPW0NIM10pT1tDQEBIXShPMilbQ0BASF0xW0NAQF0yM1tDQEBIXTRbQ0BdNShPQyg9TylbQ0gzXSlbQ0BIXTZbQ0BIXShPNilbQ0BIXTdbQ0hdKFtDQF0oW0NIM10pKE9DKFtDSDJdNCkoW0NIM10pW0NIM10pW0NASF01T0MoPU8pW0NIM10pW0NAXTgoW0NIM10pQzMoW0NIXT1PKVtDQEBdKEYpKEM4KFtDSDNdKVtDSDNdKVtDSDJdW0NIMl1bUytdN1tPLV0=

>  <s_epik_cmdline>  (89) 
J2VwaWtfcHl0aG9uJywgJy1waHQnLCAnMi4wJywgJy1waCcsICc3LjAnLCAnLXRuJywgJzgnLCAnLW1hJywgJzIwMCcsICctaW1hZScsICc8aW5maWxlLm1hZT4nLCAnLW9tYWUnLCAnPG91dGZpbGUubWFlPic=

>  <r_lp_tautomer_probability>  (89) 
1

>  <r_epik_Ionization_Penalty>  (89) 
4.0619e-06

>  <r_epik_Ionization_Penalty_Charging>  (89) 
0

>  <r_epik_Ionization_Penalty_Neutral>  (89) 
4.0619e-06

>  <r_epik_State_Penalty>  (89) 
-0

>  <r_epik_Charging_Adjusted_Penalty>  (89) 
0

>  <i_epik_Tot_Q>  (89) 
0

>  <i_epik_Tot_abs_Q>  (89) 
2

>  <s_epik_Chemistry_Notes>  (89) 
This compound has an ester and may undergo hydrolysis at high or low pH. This compound contains an acetal/aminal-like group ( X-CH(R)-Y where X, Y are N, S, or O) that may be acid/base labile, releasing an aldehyde.

>  <s_lp_Force_Field>  (89) 
OPLS3e

>  <r_lp_Energy>  (89) 
749.68

>  <b_lp_Chiralities_Consistent>  (89) 
1

>  <s_lp_Variant>  (89) 
61:0-1

>  <s_i_glide_gridfile>  (89) 
pfpi4k_grid

>  <i_i_glide_lignum>  (89) 
49

>  <i_i_glide_rotatable_bonds>  (89) 
8

>  <r_i_docking_score>  (89) 
-1.52728

>  <r_i_glide_ligand_efficiency>  (89) 
-0.0305457

>  <r_i_glide_ligand_efficiency_sa>  (89) 
-0.112531

>  <r_i_glide_ligand_efficiency_ln>  (89) 
-0.310928

>  <r_i_glide_gscore>  (89) 
-1.52728

>  <r_i_glide_lipo>  (89) 
-0.150465

>  <r_i_glide_hbond>  (89) 
-0.0708819

>  <r_i_glide_metal>  (89) 
-0

>  <r_i_glide_rewards>  (89) 
0

>  <r_i_glide_evdw>  (89) 
-19.0863

>  <r_i_glide_ecoul>  (89) 
-2.67401

>  <r_i_glide_erotb>  (89) 
0.0811177

>  <r_i_glide_esite>  (89) 
-0.031635

>  <r_i_glide_emodel>  (89) 
-21.5615

>  <r_i_glide_energy>  (89) 
-21.7604

>  <r_i_glide_einternal>  (89) 
4.37727

>  <r_i_glide_intrahb_reward>  (89) 
-0

>  <i_i_glide_confnum>  (89) 
3

>  <i_i_glide_posenum>  (89) 
40

>  <r_i_glide_eff_state_penalty>  (89) 
0

>  <ligand_id>  (89) 
61

>  <original_smiles>  (89) 
COC1(C)OC2OC3(C2C(O)C1O)C1CC(C)(C)OC2(C)C(OC(C)=O)C1(OC(C)=O)C1OC1C1C2C2(C)C(C)(C)C(F)(CC[S+]1[O-])C32C=O

>  <smiles>  (89) 
[H]OC1([H])C([H])(O[H])C2([H])C([H])(OC1(OC([H])([H])[H])C([H])([H])[H])OC21C2([H])C([H])([H])C(C([H])([H])[H])(C([H])([H])[H])OC3(C([H])([H])[H])C([H])(OC(=O)C([H])([H])[H])C2(OC(=O)C([H])([H])[H])C2([H])OC2([H])C2([H])S(=O)C([H])([H])C([H])([H])C4(F)C1(C([H])=O)C(C([H])([H])[H])(C23[H])C4(C([H])([H])[H])C([H])([H])[H]

$$$$
61:0:1
     RDKit          3D

 99106  0  0  1  0  0  0  0  0999 V2000
    3.4589   -2.1445    0.0027 C   0  0  0  0  0  0  0  0  0  0  0  0
    2.8934   -2.1798    1.3217 O   0  0  0  0  0  0  0  0  0  0  0  0
    3.0491   -1.0958    2.2160 C   0  0  1  0  0  0  0  0  0  0  0  0
    2.3233    0.1297    1.5869 C   0  0  0  0  0  0  0  0  0  0  0  0
    2.3926   -1.4257    3.4387 O   0  0  0  0  0  0  0  0  0  0  0  0
    2.5493   -0.4444    4.4641 C   0  0  1  0  0  0  0  0  0  0  0  0
    2.1884   -0.7112    5.8241 O   0  0  0  0  0  0  0  0  0  0  0  0
    3.4268   -0.0164    6.2743 C   0  0  1  0  0  0  0  0  0  0  0  0
    3.9685   -0.5608    4.8922 C   0  0  2  0  0  0  0  0  0  0  0  0
    4.7991    0.0641    3.7853 C   0  0  1  0  0  0  0  0  0  0  0  0
    6.1596    0.1836    4.1518 O   0  0  0  0  0  0  0  0  0  0  0  0
    4.5842   -0.7835    2.4803 C   0  0  1  0  0  0  0  0  0  0  0  0
    5.3504   -1.9738    2.5783 O   0  0  0  0  0  0  0  0  0  0  0  0
    3.6327    1.6588    6.3349 C   0  0  1  0  0  0  0  0  0  0  0  0
    2.8181    2.8953    5.6133 C   0  0  0  0  0  0  0  0  0  0  0  0
    1.9017    3.8728    6.5967 C   0  0  0  0  0  0  0  0  0  0  0  0
    2.6055    5.2483    6.7380 C   0  0  0  0  0  0  0  0  0  0  0  0
    0.5663    4.2650    5.9038 C   0  0  0  0  0  0  0  0  0  0  0  0
    1.5394    3.4459    8.0232 O   0  0  0  0  0  0  0  0  0  0  0  0
    1.3018    2.0553    8.5915 C   0  0  1  0  0  0  0  0  0  0  0  0
   -0.2344    2.1331    8.8696 C   0  0  0  0  0  0  0  0  0  0  0  0
    1.8661    1.4352    7.5382 C   0  0  1  0  0  0  0  0  0  0  0  0
    0.9111    1.4405    6.3976 O   0  0  0  0  0  0  0  0  0  0  0  0
   -0.1881    0.6475    6.1812 C   0  0  0  0  0  0  0  0  0  0  0  0
   -0.8358    0.9210    4.8310 C   0  0  0  0  0  0  0  0  0  0  0  0
   -0.6345   -0.2165    6.9314 O   0  0  0  0  0  0  0  0  0  0  0  0
    3.5427    1.9440    7.8334 C   0  0  1  0  0  0  0  0  0  0  0  0
    4.4922    3.0183    7.4489 O   0  0  0  0  0  0  0  0  0  0  0  0
    5.9028    3.0155    7.4937 C   0  0  0  0  0  0  0  0  0  0  0  0
    6.5092    4.3157    6.9849 C   0  0  0  0  0  0  0  0  0  0  0  0
    6.6298    2.0946    7.8556 O   0  0  0  0  0  0  0  0  0  0  0  0
    3.6695    3.0197    9.1663 C   0  0  2  0  0  0  0  0  0  0  0  0
    4.5027    2.7321   10.2965 O   0  0  0  0  0  0  0  0  0  0  0  0
    3.1293    2.7322   10.6609 C   0  0  2  0  0  0  0  0  0  0  0  0
    2.0958    1.5539   10.8180 C   0  0  1  0  0  0  0  0  0  0  0  0
    2.1345    0.9185    9.5550 C   0  0  2  0  0  0  0  0  0  0  0  0
    3.5407   -0.2590    9.3005 C   0  0  1  0  0  0  0  0  0  0  0  0
    4.8210    0.2399   10.0074 C   0  0  0  0  0  0  0  0  0  0  0  0
    3.7220   -1.8908    9.7585 C   0  0  0  0  0  0  0  0  0  0  0  0
    5.0960   -2.7308    9.7056 C   0  0  0  0  0  0  0  0  0  0  0  0
    3.3248   -2.6516   11.0987 C   0  0  0  0  0  0  0  0  0  0  0  0
    2.7529   -1.9294    8.5991 C   0  0  1  0  0  0  0  0  0  0  0  0
    2.8154   -3.1136    7.9822 F   0  0  0  0  0  0  0  0  0  0  0  0
    1.2716   -1.8260    9.2844 C   0  0  0  0  0  0  0  0  0  0  0  0
    0.8929   -1.2443   10.8232 C   0  0  0  0  0  0  0  0  0  0  0  0
    2.0396   -0.0212   11.8250 S   0  0  0  0  0  0  0  0  0  0  0  0
    1.2684    0.3227   13.1116 O   0  0  0  0  0  0  0  0  0  0  0  0
    3.7116   -0.8233    7.7551 C   0  0  1  0  0  0  0  0  0  0  0  0
    5.1140   -1.2651    7.3383 C   0  0  0  0  0  0  0  0  0  0  0  0
    6.1581   -0.6157    7.4499 O   0  0  0  0  0  0  0  0  0  0  0  0
    3.2861   -3.1104   -0.4789 H   0  0  0  0  0  0  0  0  0  0  0  0
    4.5374   -2.0012    0.0340 H   0  0  0  0  0  0  0  0  0  0  0  0
    3.0161   -1.3847   -0.6435 H   0  0  0  0  0  0  0  0  0  0  0  0
    1.2412   -0.0309    1.5525 H   0  0  0  0  0  0  0  0  0  0  0  0
    2.6604    0.3118    0.5688 H   0  0  0  0  0  0  0  0  0  0  0  0
    2.5284    1.0508    2.1384 H   0  0  0  0  0  0  0  0  0  0  0  0
    2.2169    0.5415    4.1592 H   0  0  0  0  0  0  0  0  0  0  0  0
    4.1788   -1.6293    4.9832 H   0  0  0  0  0  0  0  0  0  0  0  0
    4.4501    1.0783    3.5925 H   0  0  0  0  0  0  0  0  0  0  0  0
    6.6808    0.3976    3.3902 H   0  0  0  0  0  0  0  0  0  0  0  0
    4.9672   -0.2267    1.6216 H   0  0  0  0  0  0  0  0  0  0  0  0
    4.9611   -2.5342    3.2330 H   0  0  0  0  0  0  0  0  0  0  0  0
    4.6084    1.6794    5.8383 H   0  0  0  0  0  0  0  0  0  0  0  0
    3.5678    3.5269    5.1345 H   0  0  0  0  0  0  0  0  0  0  0  0
    2.2393    2.5522    4.7589 H   0  0  0  0  0  0  0  0  0  0  0  0
    2.6883    5.7443    5.7713 H   0  0  0  0  0  0  0  0  0  0  0  0
    3.6147    5.2105    7.1354 H   0  0  0  0  0  0  0  0  0  0  0  0
    2.0381    5.9104    7.3925 H   0  0  0  0  0  0  0  0  0  0  0  0
    0.7348    4.5734    4.8714 H   0  0  0  0  0  0  0  0  0  0  0  0
    0.0948    5.1008    6.4210 H   0  0  0  0  0  0  0  0  0  0  0  0
   -0.1828    3.4802    5.8841 H   0  0  0  0  0  0  0  0  0  0  0  0
   -0.7052    1.1787    9.1004 H   0  0  0  0  0  0  0  0  0  0  0  0
   -0.7706    2.5896    8.0375 H   0  0  0  0  0  0  0  0  0  0  0  0
   -0.4124    2.7973    9.7169 H   0  0  0  0  0  0  0  0  0  0  0  0
    1.6952    0.3656    7.6431 H   0  0  0  0  0  0  0  0  0  0  0  0
   -0.1445    1.4458    4.1686 H   0  0  0  0  0  0  0  0  0  0  0  0
   -1.7307    1.5302    4.9573 H   0  0  0  0  0  0  0  0  0  0  0  0
   -1.1154   -0.0179    4.3540 H   0  0  0  0  0  0  0  0  0  0  0  0
    6.3614    5.1054    7.7213 H   0  0  0  0  0  0  0  0  0  0  0  0
    6.0781    4.6109    6.0246 H   0  0  0  0  0  0  0  0  0  0  0  0
    7.5789    4.1704    6.8505 H   0  0  0  0  0  0  0  0  0  0  0  0
    3.5457    4.0965    8.9936 H   0  0  0  0  0  0  0  0  0  0  0  0
    2.8917    3.5771   11.3067 H   0  0  0  0  0  0  0  0  0  0  0  0
    1.1344    2.0229   11.0278 H   0  0  0  0  0  0  0  0  0  0  0  0
    1.2104    0.4283    9.4953 H   0  0  0  0  0  0  0  0  0  0  0  0
    5.6092   -0.4804   10.1669 H   0  0  0  0  0  0  0  0  0  0  0  0
    4.6397    0.5727   11.0260 H   0  0  0  0  0  0  0  0  0  0  0  0
    5.3708    0.9397    9.4044 H   0  0  0  0  0  0  0  0  0  0  0  0
    4.9663   -3.7058    9.2363 H   0  0  0  0  0  0  0  0  0  0  0  0
    5.5590   -2.8992   10.6800 H   0  0  0  0  0  0  0  0  0  0  0  0
    5.9903   -2.2968    9.2833 H   0  0  0  0  0  0  0  0  0  0  0  0
    3.8042   -3.6185   11.2843 H   0  0  0  0  0  0  0  0  0  0  0  0
    2.3393   -3.0931   11.1226 H   0  0  0  0  0  0  0  0  0  0  0  0
    3.5521   -2.0915   12.0048 H   0  0  0  0  0  0  0  0  0  0  0  0
    0.5862   -1.3835    8.5725 H   0  0  0  0  0  0  0  0  0  0  0  0
    0.8870   -2.8464    9.3151 H   0  0  0  0  0  0  0  0  0  0  0  0
   -0.0741   -0.7402   10.7373 H   0  0  0  0  0  0  0  0  0  0  0  0
    0.6303   -2.0632   11.4930 H   0  0  0  0  0  0  0  0  0  0  0  0
    5.1687   -2.2631    6.8849 H   0  0  0  0  0  0  0  0  0  0  0  0
  1  2  1  0
  1 51  1  0
  1 52  1  0
  1 53  1  0
  3  2  1  6
  3 12  1  0
  3  4  1  0
  3  5  1  0
  4 54  1  0
  4 55  1  0
  4 56  1  0
  5  6  1  0
  6  9  1  0
  6  7  1  0
  6 57  1  6
  8  7  1  6
  8 48  1  0
  8  9  1  0
  8 14  1  0
  9 10  1  0
  9 58  1  1
 10 11  1  0
 10 12  1  0
 10 59  1  6
 11 60  1  0
 12 13  1  0
 12 61  1  6
 13 62  1  0
 14 27  1  0
 14 15  1  0
 14 63  1  6
 15 16  1  0
 15 64  1  0
 15 65  1  0
 16 17  1  0
 16 18  1  0
 16 19  1  0
 17 66  1  0
 17 67  1  0
 17 68  1  0
 18 69  1  0
 18 70  1  0
 18 71  1  0
 19 20  1  0
 20 36  1  0
 20 21  1  6
 20 22  1  0
 21 72  1  0
 21 73  1  0
 21 74  1  0
 22 23  1  0
 22 27  1  0
 22 75  1  1
 23 24  1  0
 24 25  1  0
 24 26  2  0
 25 76  1  0
 25 77  1  0
 25 78  1  0
 27 28  1  6
 27 32  1  0
 28 29  1  0
 29 30  1  0
 29 31  2  0
 30 79  1  0
 30 80  1  0
 30 81  1  0
 32 34  1  0
 32 33  1  0
 32 82  1  6
 33 34  1  0
 34 35  1  0
 34 83  1  1
 35 46  1  0
 35 36  1  0
 35 84  1  6
 36 37  1  0
 36 85  1  1
 37 48  1  0
 37 38  1  1
 37 39  1  0
 38 86  1  0
 38 87  1  0
 38 88  1  0
 39 40  1  0
 39 41  1  0
 39 42  1  0
 40 89  1  0
 40 90  1  0
 40 91  1  0
 41 92  1  0
 41 93  1  0
 41 94  1  0
 42 43  1  6
 42 44  1  0
 42 48  1  0
 44 45  1  0
 44 95  1  0
 44 96  1  0
 46 45  1  6
 45 97  1  0
 45 98  1  0
 46 47  2  0
 48 49  1  6
 49 50  2  0
 49 99  1  0
M  END
>  <i_m_ct_stereo_status>  (90) 
1

>  <s_m_source_file>  (90) 
/var/tmp/pbs.5075288.sched01/tmp_km6m70o/128goojv9vu.sdf

>  <i_m_source_file_index>  (90) 
49

>  <i_lp_mmshare_version>  (90) 
48012

>  <i_f3d_flags>  (90) 
0

>  <s_epik_input>  (90) 
W09IXVtDQEhdMVtDQEBIXShbT0hdKVtDQEBdKFtDSDNdKShPW0NIM10pT1tDQEBIXShPMilbQ0BASF0xW0NAQF0yM1tDQEBIXTRbQ0BdNShPQyg9TylbQ0gzXSlbQ0BIXTZbQ0BIXShPNilbQ0BIXTdbQ0hdKFtDQF0oW0NIM10pKE9DKFtDSDJdNCkoW0NIM10pW0NIM10pW0NASF01T0MoPU8pW0NIM10pW0NAXTgoW0NIM10pQzMoW0NIXT1PKVtDQEBdKEYpKEM4KFtDSDNdKVtDSDNdKVtDSDJdW0NIMl1bUytdN1tPLV0=

>  <s_epik_cmdline>  (90) 
J2VwaWtfcHl0aG9uJywgJy1waHQnLCAnMi4wJywgJy1waCcsICc3LjAnLCAnLXRuJywgJzgnLCAnLW1hJywgJzIwMCcsICctaW1hZScsICc8aW5maWxlLm1hZT4nLCAnLW9tYWUnLCAnPG91dGZpbGUubWFlPic=

>  <r_lp_tautomer_probability>  (90) 
1

>  <r_epik_Ionization_Penalty>  (90) 
4.0619e-06

>  <r_epik_Ionization_Penalty_Charging>  (90) 
0

>  <r_epik_Ionization_Penalty_Neutral>  (90) 
4.0619e-06

>  <r_epik_State_Penalty>  (90) 
-0

>  <r_epik_Charging_Adjusted_Penalty>  (90) 
0

>  <i_epik_Tot_Q>  (90) 
0

>  <i_epik_Tot_abs_Q>  (90) 
2

>  <s_epik_Chemistry_Notes>  (90) 
This compound has an ester and may undergo hydrolysis at high or low pH. This compound contains an acetal/aminal-like group ( X-CH(R)-Y where X, Y are N, S, or O) that may be acid/base labile, releasing an aldehyde.

>  <s_lp_Force_Field>  (90) 
OPLS3e

>  <r_lp_Energy>  (90) 
749.68

>  <b_lp_Chiralities_Consistent>  (90) 
1

>  <s_lp_Variant>  (90) 
61:0-1

>  <s_i_glide_gridfile>  (90) 
pfpi4k_grid

>  <i_i_glide_lignum>  (90) 
49

>  <i_i_glide_rotatable_bonds>  (90) 
8

>  <r_i_docking_score>  (90) 
-1.48471

>  <r_i_glide_ligand_efficiency>  (90) 
-0.0296943

>  <r_i_glide_ligand_efficiency_sa>  (90) 
-0.109395

>  <r_i_glide_ligand_efficiency_ln>  (90) 
-0.302261

>  <r_i_glide_gscore>  (90) 
-1.48471

>  <r_i_glide_lipo>  (90) 
-0.160041

>  <r_i_glide_hbond>  (90) 
-0.0559618

>  <r_i_glide_metal>  (90) 
-0

>  <r_i_glide_rewards>  (90) 
0

>  <r_i_glide_evdw>  (90) 
-18.7444

>  <r_i_glide_ecoul>  (90) 
-2.54213

>  <r_i_glide_erotb>  (90) 
0.0811177

>  <r_i_glide_esite>  (90) 
-0.0312891

>  <r_i_glide_emodel>  (90) 
-21.2741

>  <r_i_glide_energy>  (90) 
-21.2865

>  <r_i_glide_einternal>  (90) 
3.94015

>  <r_i_glide_intrahb_reward>  (90) 
-0

>  <i_i_glide_confnum>  (90) 
1

>  <i_i_glide_posenum>  (90) 
5

>  <r_i_glide_eff_state_penalty>  (90) 
0

>  <ligand_id>  (90) 
61

>  <original_smiles>  (90) 
COC1(C)OC2OC3(C2C(O)C1O)C1CC(C)(C)OC2(C)C(OC(C)=O)C1(OC(C)=O)C1OC1C1C2C2(C)C(C)(C)C(F)(CC[S+]1[O-])C32C=O

>  <smiles>  (90) 
[H]OC1([H])C([H])(O[H])C2([H])C([H])(OC1(OC([H])([H])[H])C([H])([H])[H])OC21C2([H])C([H])([H])C(C([H])([H])[H])(C([H])([H])[H])OC3(C([H])([H])[H])C([H])(OC(=O)C([H])([H])[H])C2(OC(=O)C([H])([H])[H])C2([H])OC2([H])C2([H])S(=O)C([H])([H])C([H])([H])C4(F)C1(C([H])=O)C(C([H])([H])[H])(C23[H])C4(C([H])([H])[H])C([H])([H])[H]

$$$$
61:0:2
     RDKit          3D

 99106  0  0  1  0  0  0  0  0999 V2000
    4.0770   -3.8934    2.9410 C   0  0  0  0  0  0  0  0  0  0  0  0
    3.0774   -3.1124    3.6120 O   0  0  0  0  0  0  0  0  0  0  0  0
    3.2995   -1.7515    3.9149 C   0  0  1  0  0  0  0  0  0  0  0  0
    3.5067   -1.0048    2.5614 C   0  0  0  0  0  0  0  0  0  0  0  0
    2.1166   -1.2368    4.5373 O   0  0  0  0  0  0  0  0  0  0  0  0
    2.2379    0.1106    4.9857 C   0  0  1  0  0  0  0  0  0  0  0  0
    1.2712    0.6949    5.8667 O   0  0  0  0  0  0  0  0  0  0  0  0
    2.3681    1.3413    6.6239 C   0  0  1  0  0  0  0  0  0  0  0  0
    3.1506    0.0449    6.1539 C   0  0  2  0  0  0  0  0  0  0  0  0
    4.5431   -0.1768    5.5980 C   0  0  1  0  0  0  0  0  0  0  0  0
    5.5194   -0.1004    6.6113 O   0  0  0  0  0  0  0  0  0  0  0  0
    4.5536   -1.5729    4.8737 C   0  0  1  0  0  0  0  0  0  0  0  0
    4.6054   -2.6128    5.8349 O   0  0  0  0  0  0  0  0  0  0  0  0
    3.2175    2.7161    6.1214 C   0  0  1  0  0  0  0  0  0  0  0  0
    3.3889    3.4380    4.6511 C   0  0  0  0  0  0  0  0  0  0  0  0
    2.6591    4.9167    4.4426 C   0  0  0  0  0  0  0  0  0  0  0  0
    3.7511    6.0220    4.4087 C   0  0  0  0  0  0  0  0  0  0  0  0
    2.0422    5.0388    3.0209 C   0  0  0  0  0  0  0  0  0  0  0  0
    1.5970    5.4189    5.4246 O   0  0  0  0  0  0  0  0  0  0  0  0
    0.5877    4.6270    6.2369 C   0  0  1  0  0  0  0  0  0  0  0  0
   -0.7261    5.0478    5.5073 C   0  0  0  0  0  0  0  0  0  0  0  0
    1.2116    3.4479    6.0537 C   0  0  1  0  0  0  0  0  0  0  0  0
    0.9128    2.9544    4.6788 O   0  0  0  0  0  0  0  0  0  0  0  0
   -0.2079    2.2992    4.2102 C   0  0  0  0  0  0  0  0  0  0  0  0
   -0.0568    1.9065    2.7452 C   0  0  0  0  0  0  0  0  0  0  0  0
   -1.1991    1.9841    4.8517 O   0  0  0  0  0  0  0  0  0  0  0  0
    2.6431    3.8058    7.0285 C   0  0  1  0  0  0  0  0  0  0  0  0
    4.0219    4.3353    6.8888 O   0  0  0  0  0  0  0  0  0  0  0  0
    5.1293    4.1113    7.7230 C   0  0  0  0  0  0  0  0  0  0  0  0
    6.3818    4.8291    7.2337 C   0  0  0  0  0  0  0  0  0  0  0  0
    5.1761    3.3497    8.6922 O   0  0  0  0  0  0  0  0  0  0  0  0
    2.6570    5.4166    7.6315 C   0  0  2  0  0  0  0  0  0  0  0  0
    2.7395    5.6934    9.0399 O   0  0  0  0  0  0  0  0  0  0  0  0
    1.4783    6.0925    8.5056 C   0  0  2  0  0  0  0  0  0  0  0  0
    0.0848    5.3635    8.4857 C   0  0  1  0  0  0  0  0  0  0  0  0
    0.3682    4.1301    7.8573 C   0  0  2  0  0  0  0  0  0  0  0  0
    1.1032    2.8253    8.9481 C   0  0  1  0  0  0  0  0  0  0  0  0
    2.0653    3.4475    9.9879 C   0  0  0  0  0  0  0  0  0  0  0  0
    0.3591    1.7367   10.0291 C   0  0  0  0  0  0  0  0  0  0  0  0
    1.1344    0.8495   11.1222 C   0  0  0  0  0  0  0  0  0  0  0  0
   -0.8397    1.9391   11.0535 C   0  0  0  0  0  0  0  0  0  0  0  0
    0.0404    1.1772    8.6563 C   0  0  1  0  0  0  0  0  0  0  0  0
   -0.1807   -0.1441    8.7056 F   0  0  0  0  0  0  0  0  0  0  0  0
   -1.3830    1.8760    8.2463 C   0  0  0  0  0  0  0  0  0  0  0  0
   -2.0777    3.2607    8.8988 C   0  0  0  0  0  0  0  0  0  0  0  0
   -1.0655    4.6780    9.7962 S   0  0  0  0  0  0  0  0  0  0  0  0
   -2.0795    5.7846   10.0872 O   0  0  0  0  0  0  0  0  0  0  0  0
    1.6304    1.4700    8.1653 C   0  0  1  0  0  0  0  0  0  0  0  0
    2.7716    0.7261    8.8527 C   0  0  0  0  0  0  0  0  0  0  0  0
    2.7989   -0.4701    9.1631 O   0  0  0  0  0  0  0  0  0  0  0  0
    3.7384   -4.9357    2.9077 H   0  0  0  0  0  0  0  0  0  0  0  0
    5.0101   -3.9057    3.5017 H   0  0  0  0  0  0  0  0  0  0  0  0
    4.2662   -3.5438    1.9287 H   0  0  0  0  0  0  0  0  0  0  0  0
    2.5770   -0.9993    1.9830 H   0  0  0  0  0  0  0  0  0  0  0  0
    4.2735   -1.4829    1.9669 H   0  0  0  0  0  0  0  0  0  0  0  0
    3.7996    0.0400    2.7258 H   0  0  0  0  0  0  0  0  0  0  0  0
    2.4988    0.7954    4.1891 H   0  0  0  0  0  0  0  0  0  0  0  0
    2.8401   -0.8211    6.7529 H   0  0  0  0  0  0  0  0  0  0  0  0
    4.7975    0.5850    4.8559 H   0  0  0  0  0  0  0  0  0  0  0  0
    5.4682    0.7423    7.0340 H   0  0  0  0  0  0  0  0  0  0  0  0
    5.4556   -1.6594    4.2591 H   0  0  0  0  0  0  0  0  0  0  0  0
    3.8109   -2.6023    6.3488 H   0  0  0  0  0  0  0  0  0  0  0  0
    4.2223    2.3165    6.2981 H   0  0  0  0  0  0  0  0  0  0  0  0
    4.4567    3.5897    4.4938 H   0  0  0  0  0  0  0  0  0  0  0  0
    3.1358    2.7636    3.8319 H   0  0  0  0  0  0  0  0  0  0  0  0
    4.4226    5.8840    3.5604 H   0  0  0  0  0  0  0  0  0  0  0  0
    4.3910    6.0699    5.2851 H   0  0  0  0  0  0  0  0  0  0  0  0
    3.3026    7.0115    4.2947 H   0  0  0  0  0  0  0  0  0  0  0  0
    2.7388    4.6886    2.2523 H   0  0  0  0  0  0  0  0  0  0  0  0
    1.7953    6.0780    2.7936 H   0  0  0  0  0  0  0  0  0  0  0  0
    1.1168    4.4911    2.8832 H   0  0  0  0  0  0  0  0  0  0  0  0
   -1.6029    4.4509    5.7709 H   0  0  0  0  0  0  0  0  0  0  0  0
   -0.6078    5.0266    4.4181 H   0  0  0  0  0  0  0  0  0  0  0  0
   -0.9240    6.0918    5.7572 H   0  0  0  0  0  0  0  0  0  0  0  0
    0.5728    2.6655    6.4519 H   0  0  0  0  0  0  0  0  0  0  0  0
    0.9798    1.9990    2.4137 H   0  0  0  0  0  0  0  0  0  0  0  0
   -0.6779    2.5490    2.1189 H   0  0  0  0  0  0  0  0  0  0  0  0
   -0.3721    0.8734    2.5991 H   0  0  0  0  0  0  0  0  0  0  0  0
    6.2870    5.9102    7.3695 H   0  0  0  0  0  0  0  0  0  0  0  0
    6.5572    4.6178    6.1774 H   0  0  0  0  0  0  0  0  0  0  0  0
    7.2484    4.4858    7.8004 H   0  0  0  0  0  0  0  0  0  0  0  0
    3.0829    6.2222    7.0173 H   0  0  0  0  0  0  0  0  0  0  0  0
    1.3834    7.1790    8.4962 H   0  0  0  0  0  0  0  0  0  0  0  0
   -0.5729    6.0001    7.8953 H   0  0  0  0  0  0  0  0  0  0  0  0
   -0.5576    3.8304    7.4715 H   0  0  0  0  0  0  0  0  0  0  0  0
    2.3320    2.8496   10.8502 H   0  0  0  0  0  0  0  0  0  0  0  0
    1.6436    4.3191   10.4814 H   0  0  0  0  0  0  0  0  0  0  0  0
    3.0573    3.5990    9.5959 H   0  0  0  0  0  0  0  0  0  0  0  0
    0.8125   -0.1880   11.1002 H   0  0  0  0  0  0  0  0  0  0  0  0
    1.0160    1.1912   12.1511 H   0  0  0  0  0  0  0  0  0  0  0  0
    2.2190    0.8507   11.1641 H   0  0  0  0  0  0  0  0  0  0  0  0
   -0.9603    1.1825   11.8359 H   0  0  0  0  0  0  0  0  0  0  0  0
   -1.8384    1.7463   10.6802 H   0  0  0  0  0  0  0  0  0  0  0  0
   -0.7880    2.8704   11.6233 H   0  0  0  0  0  0  0  0  0  0  0  0
   -1.4576    1.9384    7.1691 H   0  0  0  0  0  0  0  0  0  0  0  0
   -2.1403    1.1266    8.4474 H   0  0  0  0  0  0  0  0  0  0  0  0
   -2.6048    3.7570    8.0791 H   0  0  0  0  0  0  0  0  0  0  0  0
   -2.9169    3.0074    9.5508 H   0  0  0  0  0  0  0  0  0  0  0  0
    3.6663    1.3477    9.0145 H   0  0  0  0  0  0  0  0  0  0  0  0
  1  2  1  0
  1 51  1  0
  1 52  1  0
  1 53  1  0
  3  2  1  6
  3 12  1  0
  3  4  1  0
  3  5  1  0
  4 54  1  0
  4 55  1  0
  4 56  1  0
  5  6  1  0
  6  9  1  0
  6  7  1  0
  6 57  1  6
  8  7  1  6
  8 48  1  0
  8  9  1  0
  8 14  1  0
  9 10  1  0
  9 58  1  1
 10 11  1  0
 10 12  1  0
 10 59  1  6
 11 60  1  0
 12 13  1  0
 12 61  1  6
 13 62  1  0
 14 27  1  0
 14 15  1  0
 14 63  1  1
 15 16  1  0
 15 64  1  0
 15 65  1  0
 16 17  1  0
 16 18  1  0
 16 19  1  0
 17 66  1  0
 17 67  1  0
 17 68  1  0
 18 69  1  0
 18 70  1  0
 18 71  1  0
 19 20  1  0
 20 36  1  0
 20 21  1  6
 20 22  1  0
 21 72  1  0
 21 73  1  0
 21 74  1  0
 22 23  1  0
 22 27  1  0
 22 75  1  1
 23 24  1  0
 24 25  1  0
 24 26  2  0
 25 76  1  0
 25 77  1  0
 25 78  1  0
 27 28  1  6
 27 32  1  0
 28 29  1  0
 29 30  1  0
 29 31  2  0
 30 79  1  0
 30 80  1  0
 30 81  1  0
 32 34  1  0
 32 33  1  0
 32 82  1  6
 33 34  1  0
 34 35  1  0
 34 83  1  6
 35 46  1  0
 35 36  1  0
 35 84  1  6
 36 37  1  0
 36 85  1  6
 37 48  1  0
 37 38  1  1
 37 39  1  0
 38 86  1  0
 38 87  1  0
 38 88  1  0
 39 40  1  0
 39 41  1  0
 39 42  1  0
 40 89  1  0
 40 90  1  0
 40 91  1  0
 41 92  1  0
 41 93  1  0
 41 94  1  0
 42 43  1  1
 42 44  1  0
 42 48  1  0
 44 45  1  0
 44 95  1  0
 44 96  1  0
 46 45  1  6
 45 97  1  0
 45 98  1  0
 46 47  2  0
 48 49  1  1
 49 50  2  0
 49 99  1  0
M  END
>  <i_m_ct_stereo_status>  (91) 
1

>  <s_m_source_file>  (91) 
/var/tmp/pbs.5075288.sched01/tmp_km6m70o/128goojv9vu.sdf

>  <i_m_source_file_index>  (91) 
49

>  <i_lp_mmshare_version>  (91) 
48012

>  <i_f3d_flags>  (91) 
0

>  <s_epik_input>  (91) 
W09IXVtDQEhdMVtDQEBIXShbT0hdKVtDQEBdKFtDSDNdKShPW0NIM10pT1tDQEBIXShPMilbQ0BASF0xW0NAQF0yM1tDQEBIXTRbQ0BdNShPQyg9TylbQ0gzXSlbQ0BIXTZbQ0BIXShPNilbQ0BIXTdbQ0hdKFtDQF0oW0NIM10pKE9DKFtDSDJdNCkoW0NIM10pW0NIM10pW0NASF01T0MoPU8pW0NIM10pW0NAXTgoW0NIM10pQzMoW0NIXT1PKVtDQEBdKEYpKEM4KFtDSDNdKVtDSDNdKVtDSDJdW0NIMl1bUytdN1tPLV0=

>  <s_epik_cmdline>  (91) 
J2VwaWtfcHl0aG9uJywgJy1waHQnLCAnMi4wJywgJy1waCcsICc3LjAnLCAnLXRuJywgJzgnLCAnLW1hJywgJzIwMCcsICctaW1hZScsICc8aW5maWxlLm1hZT4nLCAnLW9tYWUnLCAnPG91dGZpbGUubWFlPic=

>  <r_lp_tautomer_probability>  (91) 
1

>  <r_epik_Ionization_Penalty>  (91) 
4.0619e-06

>  <r_epik_Ionization_Penalty_Charging>  (91) 
0

>  <r_epik_Ionization_Penalty_Neutral>  (91) 
4.0619e-06

>  <r_epik_State_Penalty>  (91) 
-0

>  <r_epik_Charging_Adjusted_Penalty>  (91) 
0

>  <i_epik_Tot_Q>  (91) 
0

>  <i_epik_Tot_abs_Q>  (91) 
2

>  <s_epik_Chemistry_Notes>  (91) 
This compound has an ester and may undergo hydrolysis at high or low pH. This compound contains an acetal/aminal-like group ( X-CH(R)-Y where X, Y are N, S, or O) that may be acid/base labile, releasing an aldehyde.

>  <s_lp_Force_Field>  (91) 
OPLS3e

>  <r_lp_Energy>  (91) 
749.68

>  <b_lp_Chiralities_Consistent>  (91) 
1

>  <s_lp_Variant>  (91) 
61:0-1

>  <s_i_glide_gridfile>  (91) 
pfpi4k_grid

>  <i_i_glide_lignum>  (91) 
49

>  <i_i_glide_rotatable_bonds>  (91) 
8

>  <r_i_docking_score>  (91) 
-1.42759

>  <r_i_glide_ligand_efficiency>  (91) 
-0.0285519

>  <r_i_glide_ligand_efficiency_sa>  (91) 
-0.105186

>  <r_i_glide_ligand_efficiency_ln>  (91) 
-0.290633

>  <r_i_glide_gscore>  (91) 
-1.42759

>  <r_i_glide_lipo>  (91) 
-0.0372413

>  <r_i_glide_hbond>  (91) 
0

>  <r_i_glide_metal>  (91) 
-0

>  <r_i_glide_rewards>  (91) 
-5.78219e-05

>  <r_i_glide_evdw>  (91) 
-23.4368

>  <r_i_glide_ecoul>  (91) 
-1.45918

>  <r_i_glide_erotb>  (91) 
0.0811177

>  <r_i_glide_esite>  (91) 
-0.0806937

>  <r_i_glide_emodel>  (91) 
-25.0971

>  <r_i_glide_energy>  (91) 
-24.896

>  <r_i_glide_einternal>  (91) 
3.62669

>  <r_i_glide_intrahb_reward>  (91) 
-0

>  <i_i_glide_confnum>  (91) 
3

>  <i_i_glide_posenum>  (91) 
29

>  <r_i_glide_eff_state_penalty>  (91) 
0

>  <ligand_id>  (91) 
61

>  <original_smiles>  (91) 
COC1(C)OC2OC3(C2C(O)C1O)C1CC(C)(C)OC2(C)C(OC(C)=O)C1(OC(C)=O)C1OC1C1C2C2(C)C(C)(C)C(F)(CC[S+]1[O-])C32C=O

>  <smiles>  (91) 
[H]OC1([H])C([H])(O[H])C2([H])C([H])(OC1(OC([H])([H])[H])C([H])([H])[H])OC21C2([H])C([H])([H])C(C([H])([H])[H])(C([H])([H])[H])OC3(C([H])([H])[H])C([H])(OC(=O)C([H])([H])[H])C2(OC(=O)C([H])([H])[H])C2([H])OC2([H])C2([H])S(=O)C([H])([H])C([H])([H])C4(F)C1(C([H])=O)C(C([H])([H])[H])(C23[H])C4(C([H])([H])[H])C([H])([H])[H]

$$$$
64:0:0
     RDKit          3D

110118  0  0  1  0  0  0  0  0999 V2000
    9.5837   -7.5953    6.2800 C   0  0  0  0  0  0  0  0  0  0  0  0
    8.2789   -7.7555    6.5374 C   0  0  0  0  0  0  0  0  0  0  0  0
    7.5526   -6.6745    7.3705 C   0  0  0  0  0  0  0  0  0  0  0  0
    5.7128   -6.8337    7.7186 S   0  0  0  0  0  0  0  0  0  0  0  0
    5.4436   -6.0744    9.0156 O   0  0  0  0  0  0  0  0  0  0  0  0
    4.7726   -6.1044    6.2524 C   0  0  2  0  0  0  0  0  0  0  0  0
    4.0408   -4.8160    6.7943 C   0  0  0  0  0  0  0  0  0  0  0  0
    4.4365   -3.5829    6.0658 C   0  0  2  0  0  0  0  0  0  0  0  0
    5.5948   -2.7885    6.6300 C   0  0  0  0  0  0  0  0  0  0  0  0
    3.3674   -2.8714    5.4299 O   0  0  0  0  0  0  0  0  0  0  0  0
    4.2196   -3.6984    4.6276 C   0  0  2  0  0  0  0  0  0  0  0  0
    3.6636   -5.0143    4.0736 C   0  0  2  0  0  0  0  0  0  0  0  0
    2.3025   -5.5610    4.4609 O   0  0  0  0  0  0  0  0  0  0  0  0
    1.5668   -6.6679    3.7161 C   0  0  2  0  0  0  0  0  0  0  0  0
    1.0281   -8.0426    4.3978 C   0  0  1  0  0  0  0  0  0  0  0  0
    1.4105   -9.3873    3.8696 O   0  0  0  0  0  0  0  0  0  0  0  0
    1.8880  -10.6275    4.5445 C   0  0  1  0  0  0  0  0  0  0  0  0
    0.8511  -11.6240    4.0055 C   0  0  0  0  0  0  0  0  0  0  0  0
    3.3777  -11.2557    4.3182 C   0  0  0  0  0  0  0  0  0  0  0  0
    4.7203  -10.7966    5.1543 C   0  0  2  0  0  0  0  0  0  0  0  0
    5.2493  -12.0927    5.3780 O   0  0  0  0  0  0  0  0  0  0  0  0
    4.1833  -10.3882    6.5486 C   0  0  0  0  0  0  0  0  0  0  0  0
    3.2722   -9.1630    6.9883 C   0  0  1  0  0  0  0  0  0  0  0  0
    3.7168   -9.0620    8.3611 O   0  0  0  0  0  0  0  0  0  0  0  0
    3.0255   -9.4755    9.4759 C   0  0  0  0  0  0  0  0  0  0  0  0
    1.5783   -9.9528    9.3138 C   0  0  0  0  0  0  0  0  0  0  0  0
    3.5421   -9.4059   10.5860 O   0  0  0  0  0  0  0  0  0  0  0  0
    2.7686   -7.7560    6.2787 C   0  0  2  0  0  0  0  0  0  0  0  0
    2.4544   -6.9508    7.6303 C   0  0  0  0  0  0  0  0  0  0  0  0
    1.1967   -7.8400    5.8479 C   0  0  1  0  0  0  0  0  0  0  0  0
    0.1782   -6.6699    6.1947 C   0  0  0  0  0  0  0  0  0  0  0  0
    0.4137   -8.8091    6.5117 O   0  0  0  0  0  0  0  0  0  0  0  0
    3.9854   -7.2677    5.1582 C   0  0  2  0  0  0  0  0  0  0  0  0
    3.6940   -7.6653    3.4516 C   0  0  2  0  0  0  0  0  0  0  0  0
    3.7187   -8.9635    3.2560 O   0  0  0  0  0  0  0  0  0  0  0  0
    4.6712   -7.4138    2.5276 O   0  0  0  0  0  0  0  0  0  0  0  0
    5.0379   -6.1586    2.6893 C   0  0  0  0  0  0  0  0  0  0  0  0
    4.7206   -6.2530    4.2201 C   0  0  1  0  0  0  0  0  0  0  0  0
    6.2718   -7.0169    4.3516 C   0  0  1  0  0  0  0  0  0  0  0  0
    7.3119   -6.0601    4.4950 O   0  0  0  0  0  0  0  0  0  0  0  0
    6.3192   -8.5081    5.1503 C   0  0  2  0  0  0  0  0  0  0  0  0
    7.4030   -8.9659    6.1601 C   0  0  2  0  0  0  0  0  0  0  0  0
    6.9523   -9.5536    7.4139 O   0  0  0  0  0  0  0  0  0  0  0  0
    7.7925  -10.0003    8.3868 C   0  0  0  0  0  0  0  0  0  0  0  0
    7.0439  -10.5560    9.5783 C   0  0  0  0  0  0  0  0  0  0  0  0
    9.0218   -9.9957    8.3460 O   0  0  0  0  0  0  0  0  0  0  0  0
    7.6544  -10.1235    5.1366 C   0  0  0  0  0  0  0  0  0  0  0  0
    8.8097   -9.8084    4.1401 C   0  0  0  0  0  0  0  0  0  0  0  0
    8.0919  -11.5041    5.6812 C   0  0  0  0  0  0  0  0  0  0  0  0
    6.1166   -9.9938    4.5593 C   0  0  1  0  0  0  0  0  0  0  0  0
    6.2331  -10.2828    3.0288 C   0  0  0  0  0  0  0  0  0  0  0  0
    6.2874   -9.4442    2.1301 O   0  0  0  0  0  0  0  0  0  0  0  0
    6.5010  -11.7410    2.6014 C   0  0  0  0  0  0  0  0  0  0  0  0
    6.6078  -11.8485    1.1801 O   0  0  0  0  0  0  0  0  0  0  0  0
    2.4531   -7.1255    2.6559 C   0  0  1  0  0  0  0  0  0  0  0  0
    1.8717   -8.0220    1.7121 O   0  0  0  0  0  0  0  0  0  0  0  0
   10.2068   -8.3002    5.7678 H   0  0  0  0  0  0  0  0  0  0  0  0
   10.0945   -6.7109    6.6341 H   0  0  0  0  0  0  0  0  0  0  0  0
    8.0253   -6.7092    8.3541 H   0  0  0  0  0  0  0  0  0  0  0  0
    7.7697   -5.6702    7.0043 H   0  0  0  0  0  0  0  0  0  0  0  0
    5.6647   -5.5149    5.9805 H   0  0  0  0  0  0  0  0  0  0  0  0
    2.9844   -4.7967    6.5962 H   0  0  0  0  0  0  0  0  0  0  0  0
    4.1320   -4.6283    7.8689 H   0  0  0  0  0  0  0  0  0  0  0  0
    6.5018   -3.3903    6.6214 H   0  0  0  0  0  0  0  0  0  0  0  0
    5.3834   -2.4711    7.6578 H   0  0  0  0  0  0  0  0  0  0  0  0
    5.7611   -1.9074    6.0180 H   0  0  0  0  0  0  0  0  0  0  0  0
    4.9105   -3.1722    3.9798 H   0  0  0  0  0  0  0  0  0  0  0  0
    3.3724   -4.6221    3.0992 H   0  0  0  0  0  0  0  0  0  0  0  0
    0.7094   -6.1921    3.2443 H   0  0  0  0  0  0  0  0  0  0  0  0
   -0.0434   -8.0689    4.1713 H   0  0  0  0  0  0  0  0  0  0  0  0
    1.6261  -10.6849    5.5907 H   0  0  0  0  0  0  0  0  0  0  0  0
    0.9551  -12.6085    4.4663 H   0  0  0  0  0  0  0  0  0  0  0  0
    0.9325  -11.7315    2.9245 H   0  0  0  0  0  0  0  0  0  0  0  0
   -0.1598  -11.2807    4.2267 H   0  0  0  0  0  0  0  0  0  0  0  0
    3.1946  -12.2921    4.5880 H   0  0  0  0  0  0  0  0  0  0  0  0
    3.5975  -11.3612    3.2528 H   0  0  0  0  0  0  0  0  0  0  0  0
    4.5780  -12.6377    5.7693 H   0  0  0  0  0  0  0  0  0  0  0  0
    3.5682  -11.2251    6.8805 H   0  0  0  0  0  0  0  0  0  0  0  0
    4.9767  -10.5531    7.2584 H   0  0  0  0  0  0  0  0  0  0  0  0
    2.3786   -9.6752    7.0716 H   0  0  0  0  0  0  0  0  0  0  0  0
    1.3387  -10.2557    8.3285 H   0  0  0  0  0  0  0  0  0  0  0  0
    0.9039   -9.1304    9.5477 H   0  0  0  0  0  0  0  0  0  0  0  0
    1.3530  -10.7354   10.0658 H   0  0  0  0  0  0  0  0  0  0  0  0
    1.9301   -6.0066    7.6112 H   0  0  0  0  0  0  0  0  0  0  0  0
    3.2542   -6.7783    8.3316 H   0  0  0  0  0  0  0  0  0  0  0  0
    1.7276   -7.5065    8.2094 H   0  0  0  0  0  0  0  0  0  0  0  0
    0.5284   -5.6645    5.9638 H   0  0  0  0  0  0  0  0  0  0  0  0
   -0.1235   -6.6575    7.2444 H   0  0  0  0  0  0  0  0  0  0  0  0
   -0.7702   -6.7733    5.6721 H   0  0  0  0  0  0  0  0  0  0  0  0
    0.7201   -9.6744    6.2852 H   0  0  0  0  0  0  0  0  0  0  0  0
    3.5204   -9.1053    2.3377 H   0  0  0  0  0  0  0  0  0  0  0  0
    6.0468   -5.9456    2.3304 H   0  0  0  0  0  0  0  0  0  0  0  0
    4.5197   -5.5736    1.9522 H   0  0  0  0  0  0  0  0  0  0  0  0
    6.6909   -7.4168    3.4376 H   0  0  0  0  0  0  0  0  0  0  0  0
    8.1266   -6.5104    4.3333 H   0  0  0  0  0  0  0  0  0  0  0  0
    5.5994   -8.5474    5.9066 H   0  0  0  0  0  0  0  0  0  0  0  0
    6.1929  -11.1423    9.2255 H   0  0  0  0  0  0  0  0  0  0  0  0
    6.6664   -9.7386   10.2006 H   0  0  0  0  0  0  0  0  0  0  0  0
    7.6847  -11.2097   10.1842 H   0  0  0  0  0  0  0  0  0  0  0  0
    8.8513  -10.4971    3.3068 H   0  0  0  0  0  0  0  0  0  0  0  0
    9.7856   -9.9205    4.5970 H   0  0  0  0  0  0  0  0  0  0  0  0
    8.7340   -8.8137    3.7208 H   0  0  0  0  0  0  0  0  0  0  0  0
    8.0692  -12.2878    4.9260 H   0  0  0  0  0  0  0  0  0  0  0  0
    7.4459  -11.8581    6.4683 H   0  0  0  0  0  0  0  0  0  0  0  0
    9.1052  -11.4910    6.0938 H   0  0  0  0  0  0  0  0  0  0  0  0
    7.4700  -12.0762    2.9765 H   0  0  0  0  0  0  0  0  0  0  0  0
    5.7322  -12.4360    2.9563 H   0  0  0  0  0  0  0  0  0  0  0  0
    5.6879  -11.8406    0.8371 H   0  0  0  0  0  0  0  0  0  0  0  0
    2.6353   -6.2646    2.0197 H   0  0  0  0  0  0  0  0  0  0  0  0
    1.5837   -8.7939    2.1978 H   0  0  0  0  0  0  0  0  0  0  0  0
  1  2  2  0
  1 57  1  0
  1 58  1  0
  2 42  1  0
  2  3  1  0
  4  3  1  6
  3 59  1  0
  3 60  1  0
  4  5  2  0
  4  6  1  0
  6 33  1  0
  6  7  1  0
  6 61  1  6
  7  8  1  0
  7 62  1  0
  7 63  1  0
  8 11  1  0
  8  9  1  6
  8 10  1  0
  9 64  1  0
  9 65  1  0
  9 66  1  0
 10 11  1  0
 11 12  1  0
 11 67  1  6
 12 38  1  0
 12 13  1  0
 12 68  1  6
 13 14  1  0
 14 55  1  0
 14 15  1  0
 14 69  1  6
 15 30  1  0
 15 16  1  0
 15 70  1  1
 16 17  1  0
 17 18  1  0
 17 19  1  0
 17 71  1  1
 18 72  1  0
 18 73  1  0
 18 74  1  0
 19 20  1  0
 19 75  1  0
 19 76  1  0
 20 50  1  0
 20 21  1  1
 20 22  1  0
 21 77  1  0
 22 23  1  0
 22 78  1  0
 22 79  1  0
 23 24  1  0
 23 28  1  0
 23 80  1  1
 24 25  1  0
 25 26  1  0
 25 27  2  0
 26 81  1  0
 26 82  1  0
 26 83  1  0
 28 29  1  1
 28 30  1  0
 28 33  1  0
 29 84  1  0
 29 85  1  0
 29 86  1  0
 30 31  1  0
 30 32  1  1
 31 87  1  0
 31 88  1  0
 31 89  1  0
 32 90  1  0
 33 38  1  0
 33 34  1  1
 34 35  1  1
 34 36  1  0
 34 55  1  0
 35 91  1  0
 36 37  1  0
 38 37  1  6
 37 92  1  0
 37 93  1  0
 38 39  1  0
 39 40  1  0
 39 41  1  0
 39 94  1  6
 40 95  1  0
 41 50  1  0
 41 42  1  0
 41 96  1  1
 42 43  1  1
 42 47  1  0
 43 44  1  0
 44 45  1  0
 44 46  2  0
 45 97  1  0
 45 98  1  0
 45 99  1  0
 47 48  1  0
 47 49  1  0
 47 50  1  0
 48100  1  0
 48101  1  0
 48102  1  0
 49103  1  0
 49104  1  0
 49105  1  0
 50 51  1  6
 51 52  2  0
 51 53  1  0
 53 54  1  0
 53106  1  0
 53107  1  0
 54108  1  0
 55 56  1  0
 55109  1  6
 56110  1  0
M  END
>  <i_m_ct_stereo_status>  (92) 
1

>  <s_m_source_file>  (92) 
/var/tmp/pbs.5075288.sched01/tmp_km6m70o/128goojv9vu.sdf

>  <i_m_source_file_index>  (92) 
52

>  <i_lp_mmshare_version>  (92) 
48012

>  <i_f3d_flags>  (92) 
0

>  <s_epik_input>  (92) 
W0NAQF0xMjNbQ0BdNDVbQ0BASF02W0NAQEhdN1tDQF0oTzcpKFtDSDNdKVtDSDJdW0NASF0xW1MrXShbTy1dKVtDSDJdQyg9W0NIMl0pW0NAQF04KE9DKD1PKVtDSDNdKVtDQEBIXShbQ0BASF01W09IXSlbQ0BdKEM4KFtDSDNdKVtDSDNdKShDKD1PKVtDSDJdW09IXSlbQ0BdOShbT0hdKVtDSDJdW0NASF0oW0NIM10pT1tDQEhdKFtDQEBIXShPNilbQ0BIXShbT0hdKVtDQEBdMyhbT0hdKU9bQ0gyXTQpW0NAQF0oW0NIM10pKFtPSF0pW0NAQF0yKFtDSDNdKVtDQEBIXShbQ0gyXTkpT0MoPU8pW0NIM10=

>  <s_epik_cmdline>  (92) 
J2VwaWtfcHl0aG9uJywgJy1waHQnLCAnMi4wJywgJy1waCcsICc3LjAnLCAnLXRuJywgJzgnLCAnLW1hJywgJzIwMCcsICctaW1hZScsICc8aW5maWxlLm1hZT4nLCAnLW9tYWUnLCAnPG91dGZpbGUubWFlPic=

>  <r_lp_tautomer_probability>  (92) 
1

>  <r_epik_Ionization_Penalty>  (92) 
8.49e-06

>  <r_epik_Ionization_Penalty_Charging>  (92) 
0

>  <r_epik_Ionization_Penalty_Neutral>  (92) 
8.49e-06

>  <r_epik_State_Penalty>  (92) 
-0

>  <r_epik_Charging_Adjusted_Penalty>  (92) 
0

>  <i_epik_Tot_Q>  (92) 
0

>  <i_epik_Tot_abs_Q>  (92) 
2

>  <s_epik_Chemistry_Notes>  (92) 
This compound has an ester and may undergo hydrolysis at high or low pH.

>  <s_lp_Force_Field>  (92) 
OPLS3e

>  <r_lp_Energy>  (92) 
666.877

>  <b_lp_Chiralities_Consistent>  (92) 
1

>  <s_lp_Variant>  (92) 
64:0-1

>  <s_i_glide_gridfile>  (92) 
pfpi4k_grid

>  <i_i_glide_lignum>  (92) 
52

>  <i_i_glide_rotatable_bonds>  (92) 
12

>  <r_i_docking_score>  (92) 
-3.44742

>  <r_i_glide_ligand_efficiency>  (92) 
-0.061561

>  <r_i_glide_ligand_efficiency_sa>  (92) 
-0.235524

>  <r_i_glide_ligand_efficiency_ln>  (92) 
-0.686005

>  <r_i_glide_gscore>  (92) 
-3.44742

>  <r_i_glide_lipo>  (92) 
-0.0790902

>  <r_i_glide_hbond>  (92) 
0

>  <r_i_glide_metal>  (92) 
-0

>  <r_i_glide_rewards>  (92) 
-0.5

>  <r_i_glide_evdw>  (92) 
-25.7554

>  <r_i_glide_ecoul>  (92) 
-11.1861

>  <r_i_glide_erotb>  (92) 
0.132674

>  <r_i_glide_esite>  (92) 
-0.0353137

>  <r_i_glide_emodel>  (92) 
-44.9855

>  <r_i_glide_energy>  (92) 
-36.9415

>  <r_i_glide_einternal>  (92) 
6.90221

>  <r_i_glide_intrahb_reward>  (92) 
-0.5

>  <i_i_glide_confnum>  (92) 
1

>  <i_i_glide_posenum>  (92) 
26

>  <r_i_glide_eff_state_penalty>  (92) 
0

>  <ligand_id>  (92) 
64

>  <original_smiles>  (92) 
C=C1C[S+]([O-])C2CC3(C)OC3C3OC4C5OC(C)CC6(O)CC(OC(C)=O)C(C)(C5(C)O)C25C(O)(OCC35C(O)C2C1(OC(C)=O)C(C)(C)C26C(=O)CO)C4O

>  <smiles>  (92) 
[H]OC([H])([H])C(=O)C12C3([H])C([H])(O[H])C45C([H])([H])OC6(O[H])C([H])(O[H])C7([H])OC4([H])C4([H])OC4(C([H])([H])[H])C([H])([H])C([H])(S(=O)C([H])([H])C(=C([H])[H])C3(OC(=O)C([H])([H])[H])C1(C([H])([H])[H])C([H])([H])[H])C65C1(C([H])([H])[H])C([H])(OC(=O)C([H])([H])[H])C([H])([H])C2(O[H])C([H])([H])C([H])(C([H])([H])[H])OC7([H])C1(O[H])C([H])([H])[H]

$$$$
64:0:1
     RDKit          3D

110118  0  0  1  0  0  0  0  0999 V2000
    8.5541   -7.5372    7.1211 C   0  0  0  0  0  0  0  0  0  0  0  0
    7.2081   -7.6295    7.0840 C   0  0  0  0  0  0  0  0  0  0  0  0
    6.3941   -6.5884    7.8832 C   0  0  0  0  0  0  0  0  0  0  0  0
    4.5225   -6.6558    7.8532 S   0  0  0  0  0  0  0  0  0  0  0  0
    4.0322   -6.0016    9.1493 O   0  0  0  0  0  0  0  0  0  0  0  0
    3.9402   -5.7005    6.3212 C   0  0  2  0  0  0  0  0  0  0  0  0
    3.1927   -4.4160    6.8755 C   0  0  0  0  0  0  0  0  0  0  0  0
    3.7823   -3.1557    6.3811 C   0  0  2  0  0  0  0  0  0  0  0  0
    4.8217   -2.5092    7.2625 C   0  0  0  0  0  0  0  0  0  0  0  0
    2.8959   -2.2961    5.6423 O   0  0  0  0  0  0  0  0  0  0  0  0
    3.8484   -3.0964    4.9178 C   0  0  2  0  0  0  0  0  0  0  0  0
    3.3557   -4.2907    4.1276 C   0  0  2  0  0  0  0  0  0  0  0  0
    1.9301   -4.7788    4.1983 O   0  0  0  0  0  0  0  0  0  0  0  0
    1.2973   -5.7331    3.2001 C   0  0  2  0  0  0  0  0  0  0  0  0
    0.5743   -7.1412    3.5626 C   0  0  1  0  0  0  0  0  0  0  0  0
    0.9600   -8.4532    2.9703 O   0  0  0  0  0  0  0  0  0  0  0  0
    1.2432   -9.7692    3.5808 C   0  0  1  0  0  0  0  0  0  0  0  0
    0.2826  -10.6279    2.7486 C   0  0  0  0  0  0  0  0  0  0  0  0
    2.7162  -10.4691    3.5554 C   0  0  0  0  0  0  0  0  0  0  0  0
    3.8551  -10.2113    4.6974 C   0  0  2  0  0  0  0  0  0  0  0  0
    4.2785  -11.5527    4.8854 O   0  0  0  0  0  0  0  0  0  0  0  0
    3.0311   -9.9483    6.0078 C   0  0  0  0  0  0  0  0  0  0  0  0
    2.0995   -8.7257    6.4401 C   0  0  1  0  0  0  0  0  0  0  0  0
    2.3641   -8.7677    7.8662 O   0  0  0  0  0  0  0  0  0  0  0  0
    1.4253   -9.1576    8.7782 C   0  0  0  0  0  0  0  0  0  0  0  0
    2.0057   -9.3040   10.1848 C   0  0  0  0  0  0  0  0  0  0  0  0
    0.2404   -9.3485    8.5659 O   0  0  0  0  0  0  0  0  0  0  0  0
    1.8710   -7.2165    5.7752 C   0  0  2  0  0  0  0  0  0  0  0  0
    1.3350   -6.4970    7.0963 C   0  0  0  0  0  0  0  0  0  0  0  0
    0.4392   -7.1197    5.0201 C   0  0  1  0  0  0  0  0  0  0  0  0
   -0.5424   -5.9156    5.2982 C   0  0  0  0  0  0  0  0  0  0  0  0
   -0.5383   -8.1029    5.3090 O   0  0  0  0  0  0  0  0  0  0  0  0
    3.3169   -6.6949    4.9682 C   0  0  2  0  0  0  0  0  0  0  0  0
    3.3469   -6.8433    3.1901 C   0  0  2  0  0  0  0  0  0  0  0  0
    3.3511   -8.1165    2.8067 O   0  0  0  0  0  0  0  0  0  0  0  0
    4.5183   -6.5841    2.5387 O   0  0  0  0  0  0  0  0  0  0  0  0
    4.9016   -5.3850    2.9206 C   0  0  0  0  0  0  0  0  0  0  0  0
    4.2841   -5.6259    4.3363 C   0  0  1  0  0  0  0  0  0  0  0  0
    5.7433   -6.5056    4.6678 C   0  0  1  0  0  0  0  0  0  0  0  0
    6.7710   -5.6379    5.1472 O   0  0  0  0  0  0  0  0  0  0  0  0
    5.5531   -8.0697    5.2556 C   0  0  2  0  0  0  0  0  0  0  0  0
    6.3687   -8.7294    6.4112 C   0  0  2  0  0  0  0  0  0  0  0  0
    5.6411   -9.4042    7.4537 O   0  0  0  0  0  0  0  0  0  0  0  0
    6.2526  -10.0043    8.5160 C   0  0  0  0  0  0  0  0  0  0  0  0
    5.2640  -10.6176    9.4958 C   0  0  0  0  0  0  0  0  0  0  0  0
    7.4659  -10.0911    8.7007 O   0  0  0  0  0  0  0  0  0  0  0  0
    6.7869   -9.7664    5.3239 C   0  0  0  0  0  0  0  0  0  0  0  0
    8.1507   -9.3971    4.6505 C   0  0  0  0  0  0  0  0  0  0  0  0
    7.0544  -11.2237    5.7384 C   0  0  0  0  0  0  0  0  0  0  0  0
    5.3951   -9.4680    4.4812 C   0  0  1  0  0  0  0  0  0  0  0  0
    5.8380   -9.6214    3.0057 C   0  0  0  0  0  0  0  0  0  0  0  0
    6.1403   -8.6987    2.2443 O   0  0  0  0  0  0  0  0  0  0  0  0
    6.1480  -11.0546    2.4724 C   0  0  0  0  0  0  0  0  0  0  0  0
    6.2383  -11.0704    1.0677 O   0  0  0  0  0  0  0  0  0  0  0  0
    2.3235   -6.1025    2.2662 C   0  0  1  0  0  0  0  0  0  0  0  0
    1.7958   -6.8263    1.1763 O   0  0  0  0  0  0  0  0  0  0  0  0
    9.2339   -8.2245    6.6637 H   0  0  0  0  0  0  0  0  0  0  0  0
    9.0117   -6.7231    7.6566 H   0  0  0  0  0  0  0  0  0  0  0  0
    6.6511   -6.7719    8.9311 H   0  0  0  0  0  0  0  0  0  0  0  0
    6.7445   -5.5727    7.6836 H   0  0  0  0  0  0  0  0  0  0  0  0
    4.8744   -5.1365    6.3147 H   0  0  0  0  0  0  0  0  0  0  0  0
    2.2145   -4.2742    6.4577 H   0  0  0  0  0  0  0  0  0  0  0  0
    3.0780   -4.3500    7.9530 H   0  0  0  0  0  0  0  0  0  0  0  0
    5.6905   -3.1696    7.3655 H   0  0  0  0  0  0  0  0  0  0  0  0
    4.4129   -2.2897    8.2492 H   0  0  0  0  0  0  0  0  0  0  0  0
    5.1470   -1.5822    6.7992 H   0  0  0  0  0  0  0  0  0  0  0  0
    4.6815   -2.5539    4.4895 H   0  0  0  0  0  0  0  0  0  0  0  0
    3.2580   -3.7809    3.1659 H   0  0  0  0  0  0  0  0  0  0  0  0
    0.5965   -5.1356    2.6275 H   0  0  0  0  0  0  0  0  0  0  0  0
   -0.4177   -7.0622    3.1138 H   0  0  0  0  0  0  0  0  0  0  0  0
    0.8187   -9.9015    4.5563 H   0  0  0  0  0  0  0  0  0  0  0  0
    0.2514  -11.6647    3.0877 H   0  0  0  0  0  0  0  0  0  0  0  0
    0.5851  -10.6290    1.7078 H   0  0  0  0  0  0  0  0  0  0  0  0
   -0.7358  -10.2311    2.7994 H   0  0  0  0  0  0  0  0  0  0  0  0
    2.4233  -11.5141    3.6673 H   0  0  0  0  0  0  0  0  0  0  0  0
    3.1529  -10.5054    2.5531 H   0  0  0  0  0  0  0  0  0  0  0  0
    3.5471  -12.0898    5.1637 H   0  0  0  0  0  0  0  0  0  0  0  0
    2.3436  -10.7943    6.0896 H   0  0  0  0  0  0  0  0  0  0  0  0
    3.6593  -10.2176    6.8328 H   0  0  0  0  0  0  0  0  0  0  0  0
    1.1210   -9.1897    6.4077 H   0  0  0  0  0  0  0  0  0  0  0  0
    2.9974   -8.8585   10.2464 H   0  0  0  0  0  0  0  0  0  0  0  0
    2.0512  -10.3643   10.4492 H   0  0  0  0  0  0  0  0  0  0  0  0
    1.3590   -8.7959   10.8972 H   0  0  0  0  0  0  0  0  0  0  0  0
    0.9459   -5.4935    7.0711 H   0  0  0  0  0  0  0  0  0  0  0  0
    1.9769   -6.4932    7.9616 H   0  0  0  0  0  0  0  0  0  0  0  0
    0.4294   -6.9926    7.4250 H   0  0  0  0  0  0  0  0  0  0  0  0
   -0.1057   -4.9176    5.2538 H   0  0  0  0  0  0  0  0  0  0  0  0
   -1.0467   -5.9804    6.2593 H   0  0  0  0  0  0  0  0  0  0  0  0
   -1.3564   -5.9385    4.5823 H   0  0  0  0  0  0  0  0  0  0  0  0
   -0.2252   -8.9606    5.0646 H   0  0  0  0  0  0  0  0  0  0  0  0
    4.0544   -8.5179    3.2685 H   0  0  0  0  0  0  0  0  0  0  0  0
    5.9649   -5.1696    2.8036 H   0  0  0  0  0  0  0  0  0  0  0  0
    4.5611   -4.7011    2.1574 H   0  0  0  0  0  0  0  0  0  0  0  0
    6.3473   -6.8208    3.8068 H   0  0  0  0  0  0  0  0  0  0  0  0
    7.0230   -5.0501    4.4508 H   0  0  0  0  0  0  0  0  0  0  0  0
    4.6841   -8.1543    5.8637 H   0  0  0  0  0  0  0  0  0  0  0  0
    4.4385  -11.0581    8.9385 H   0  0  0  0  0  0  0  0  0  0  0  0
    4.8829   -9.8350   10.1503 H   0  0  0  0  0  0  0  0  0  0  0  0
    5.7349  -11.3945   10.1005 H   0  0  0  0  0  0  0  0  0  0  0  0
    8.3972   -9.9701    3.7656 H   0  0  0  0  0  0  0  0  0  0  0  0
    8.9886   -9.6298    5.3018 H   0  0  0  0  0  0  0  0  0  0  0  0
    8.1951   -8.3405    4.3644 H   0  0  0  0  0  0  0  0  0  0  0  0
    7.1429  -11.8895    4.8854 H   0  0  0  0  0  0  0  0  0  0  0  0
    6.2402  -11.6277    6.3397 H   0  0  0  0  0  0  0  0  0  0  0  0
    7.9571  -11.3331    6.3367 H   0  0  0  0  0  0  0  0  0  0  0  0
    7.1623  -11.3499    2.7458 H   0  0  0  0  0  0  0  0  0  0  0  0
    5.4613  -11.8372    2.8587 H   0  0  0  0  0  0  0  0  0  0  0  0
    5.3437  -11.3260    0.7419 H   0  0  0  0  0  0  0  0  0  0  0  0
    2.6894   -5.2109    1.7730 H   0  0  0  0  0  0  0  0  0  0  0  0
    1.7144   -7.7205    1.5063 H   0  0  0  0  0  0  0  0  0  0  0  0
  1  2  2  0
  1 57  1  0
  1 58  1  0
  2 42  1  0
  2  3  1  0
  4  3  1  1
  3 59  1  0
  3 60  1  0
  4  5  2  0
  4  6  1  0
  6 33  1  0
  6  7  1  0
  6 61  1  6
  7  8  1  0
  7 62  1  0
  7 63  1  0
  8 11  1  0
  8  9  1  1
  8 10  1  0
  9 64  1  0
  9 65  1  0
  9 66  1  0
 10 11  1  0
 11 12  1  0
 11 67  1  1
 12 38  1  0
 12 13  1  0
 12 68  1  6
 13 14  1  0
 14 55  1  0
 14 15  1  0
 14 69  1  6
 15 30  1  0
 15 16  1  0
 15 70  1  6
 16 17  1  0
 17 18  1  0
 17 19  1  0
 17 71  1  1
 18 72  1  0
 18 73  1  0
 18 74  1  0
 19 20  1  0
 19 75  1  0
 19 76  1  0
 20 50  1  0
 20 21  1  1
 20 22  1  0
 21 77  1  0
 22 23  1  0
 22 78  1  0
 22 79  1  0
 23 24  1  0
 23 28  1  0
 23 80  1  1
 24 25  1  0
 25 26  1  0
 25 27  2  0
 26 81  1  0
 26 82  1  0
 26 83  1  0
 28 29  1  1
 28 30  1  0
 28 33  1  0
 29 84  1  0
 29 85  1  0
 29 86  1  0
 30 31  1  0
 30 32  1  1
 31 87  1  0
 31 88  1  0
 31 89  1  0
 32 90  1  0
 33 38  1  0
 33 34  1  1
 34 35  1  1
 34 36  1  0
 34 55  1  0
 35 91  1  0
 36 37  1  0
 38 37  1  6
 37 92  1  0
 37 93  1  0
 38 39  1  0
 39 40  1  0
 39 41  1  0
 39 94  1  6
 40 95  1  0
 41 50  1  0
 41 42  1  0
 41 96  1  1
 42 43  1  1
 42 47  1  0
 43 44  1  0
 44 45  1  0
 44 46  2  0
 45 97  1  0
 45 98  1  0
 45 99  1  0
 47 48  1  0
 47 49  1  0
 47 50  1  0
 48100  1  0
 48101  1  0
 48102  1  0
 49103  1  0
 49104  1  0
 49105  1  0
 50 51  1  6
 51 52  2  0
 51 53  1  0
 53 54  1  0
 53106  1  0
 53107  1  0
 54108  1  0
 55 56  1  0
 55109  1  6
 56110  1  0
M  END
>  <i_m_ct_stereo_status>  (93) 
1

>  <s_m_source_file>  (93) 
/var/tmp/pbs.5075288.sched01/tmp_km6m70o/128goojv9vu.sdf

>  <i_m_source_file_index>  (93) 
52

>  <i_lp_mmshare_version>  (93) 
48012

>  <i_f3d_flags>  (93) 
0

>  <s_epik_input>  (93) 
W0NAQF0xMjNbQ0BdNDVbQ0BASF02W0NAQEhdN1tDQF0oTzcpKFtDSDNdKVtDSDJdW0NASF0xW1MrXShbTy1dKVtDSDJdQyg9W0NIMl0pW0NAQF04KE9DKD1PKVtDSDNdKVtDQEBIXShbQ0BASF01W09IXSlbQ0BdKEM4KFtDSDNdKVtDSDNdKShDKD1PKVtDSDJdW09IXSlbQ0BdOShbT0hdKVtDSDJdW0NASF0oW0NIM10pT1tDQEhdKFtDQEBIXShPNilbQ0BIXShbT0hdKVtDQEBdMyhbT0hdKU9bQ0gyXTQpW0NAQF0oW0NIM10pKFtPSF0pW0NAQF0yKFtDSDNdKVtDQEBIXShbQ0gyXTkpT0MoPU8pW0NIM10=

>  <s_epik_cmdline>  (93) 
J2VwaWtfcHl0aG9uJywgJy1waHQnLCAnMi4wJywgJy1waCcsICc3LjAnLCAnLXRuJywgJzgnLCAnLW1hJywgJzIwMCcsICctaW1hZScsICc8aW5maWxlLm1hZT4nLCAnLW9tYWUnLCAnPG91dGZpbGUubWFlPic=

>  <r_lp_tautomer_probability>  (93) 
1

>  <r_epik_Ionization_Penalty>  (93) 
8.49e-06

>  <r_epik_Ionization_Penalty_Charging>  (93) 
0

>  <r_epik_Ionization_Penalty_Neutral>  (93) 
8.49e-06

>  <r_epik_State_Penalty>  (93) 
-0

>  <r_epik_Charging_Adjusted_Penalty>  (93) 
0

>  <i_epik_Tot_Q>  (93) 
0

>  <i_epik_Tot_abs_Q>  (93) 
2

>  <s_epik_Chemistry_Notes>  (93) 
This compound has an ester and may undergo hydrolysis at high or low pH.

>  <s_lp_Force_Field>  (93) 
OPLS3e

>  <r_lp_Energy>  (93) 
666.877

>  <b_lp_Chiralities_Consistent>  (93) 
1

>  <s_lp_Variant>  (93) 
64:0-1

>  <s_i_glide_gridfile>  (93) 
pfpi4k_grid

>  <i_i_glide_lignum>  (93) 
52

>  <i_i_glide_rotatable_bonds>  (93) 
12

>  <r_i_docking_score>  (93) 
-3.43372

>  <r_i_glide_ligand_efficiency>  (93) 
-0.0613165

>  <r_i_glide_ligand_efficiency_sa>  (93) 
-0.234588

>  <r_i_glide_ligand_efficiency_ln>  (93) 
-0.68328

>  <r_i_glide_gscore>  (93) 
-3.43372

>  <r_i_glide_lipo>  (93) 
-0.116666

>  <r_i_glide_hbond>  (93) 
0

>  <r_i_glide_metal>  (93) 
-0

>  <r_i_glide_rewards>  (93) 
-0.5

>  <r_i_glide_evdw>  (93) 
-22.299

>  <r_i_glide_ecoul>  (93) 
-11.7945

>  <r_i_glide_erotb>  (93) 
0.132674

>  <r_i_glide_esite>  (93) 
-0.0655988

>  <r_i_glide_emodel>  (93) 
-43.6268

>  <r_i_glide_energy>  (93) 
-34.0935

>  <r_i_glide_einternal>  (93) 
3.73611

>  <r_i_glide_intrahb_reward>  (93) 
-0.5

>  <i_i_glide_confnum>  (93) 
2

>  <i_i_glide_posenum>  (93) 
1

>  <r_i_glide_eff_state_penalty>  (93) 
0

>  <ligand_id>  (93) 
64

>  <original_smiles>  (93) 
C=C1C[S+]([O-])C2CC3(C)OC3C3OC4C5OC(C)CC6(O)CC(OC(C)=O)C(C)(C5(C)O)C25C(O)(OCC35C(O)C2C1(OC(C)=O)C(C)(C)C26C(=O)CO)C4O

>  <smiles>  (93) 
[H]OC([H])([H])C(=O)C12C3([H])C([H])(O[H])C45C([H])([H])OC6(O[H])C([H])(O[H])C7([H])OC4([H])C4([H])OC4(C([H])([H])[H])C([H])([H])C([H])(S(=O)C([H])([H])C(=C([H])[H])C3(OC(=O)C([H])([H])[H])C1(C([H])([H])[H])C([H])([H])[H])C65C1(C([H])([H])[H])C([H])(OC(=O)C([H])([H])[H])C([H])([H])C2(O[H])C([H])([H])C([H])(C([H])([H])[H])OC7([H])C1(O[H])C([H])([H])[H]

$$$$
64:0:2
     RDKit          3D

110118  0  0  1  0  0  0  0  0999 V2000
    9.1169   -8.3333    7.1536 C   0  0  0  0  0  0  0  0  0  0  0  0
    7.7726   -8.3051    7.1553 C   0  0  0  0  0  0  0  0  0  0  0  0
    7.0760   -7.1686    7.9432 C   0  0  0  0  0  0  0  0  0  0  0  0
    5.1993   -7.0857    7.9859 S   0  0  0  0  0  0  0  0  0  0  0  0
    4.8145   -6.3418    9.2595 O   0  0  0  0  0  0  0  0  0  0  0  0
    4.6370   -6.1412    6.4347 C   0  0  2  0  0  0  0  0  0  0  0  0
    4.0256   -4.7675    6.9536 C   0  0  0  0  0  0  0  0  0  0  0  0
    4.7108   -3.5743    6.3904 C   0  0  2  0  0  0  0  0  0  0  0  0
    5.8473   -2.9978    7.2027 C   0  0  0  0  0  0  0  0  0  0  0  0
    3.8890   -2.6666    5.6374 O   0  0  0  0  0  0  0  0  0  0  0  0
    4.7342   -3.5792    4.9199 C   0  0  2  0  0  0  0  0  0  0  0  0
    4.1067   -4.7571    4.1958 C   0  0  2  0  0  0  0  0  0  0  0  0
    2.6377   -5.1079    4.2942 O   0  0  0  0  0  0  0  0  0  0  0  0
    1.8907   -6.0548    3.3678 C   0  0  2  0  0  0  0  0  0  0  0  0
    1.0553   -7.3623    3.8295 C   0  0  1  0  0  0  0  0  0  0  0  0
    1.3259   -8.7208    3.2724 O   0  0  0  0  0  0  0  0  0  0  0  0
    1.4986  -10.0446    3.9234 C   0  0  1  0  0  0  0  0  0  0  0  0
    0.4425  -10.8406    3.1466 C   0  0  0  0  0  0  0  0  0  0  0  0
    2.9041  -10.8860    3.8969 C   0  0  0  0  0  0  0  0  0  0  0  0
    4.1275  -10.6768    4.9760 C   0  0  2  0  0  0  0  0  0  0  0  0
    4.4348  -12.0471    5.2037 O   0  0  0  0  0  0  0  0  0  0  0  0
    3.3809  -10.2834    6.3029 C   0  0  0  0  0  0  0  0  0  0  0  0
    2.5625   -8.9713    6.7094 C   0  0  1  0  0  0  0  0  0  0  0  0
    2.8600   -8.9840    8.1278 O   0  0  0  0  0  0  0  0  0  0  0  0
    1.9308   -9.2689    9.0912 C   0  0  0  0  0  0  0  0  0  0  0  0
    2.5420   -9.3587   10.4831 C   0  0  0  0  0  0  0  0  0  0  0  0
    0.7228   -9.4125    8.9216 O   0  0  0  0  0  0  0  0  0  0  0  0
    2.4233   -7.4687    6.0046 C   0  0  2  0  0  0  0  0  0  0  0  0
    2.0003   -6.6823    7.3301 C   0  0  0  0  0  0  0  0  0  0  0  0
    0.9709   -7.2712    5.2995 C   0  0  1  0  0  0  0  0  0  0  0  0
    0.0928   -5.9767    5.5628 C   0  0  0  0  0  0  0  0  0  0  0  0
   -0.0525   -8.1582    5.7210 O   0  0  0  0  0  0  0  0  0  0  0  0
    3.8934   -7.1066    5.1387 C   0  0  2  0  0  0  0  0  0  0  0  0
    3.8654   -7.3539    3.3777 C   0  0  2  0  0  0  0  0  0  0  0  0
    3.7447   -8.6334    3.0775 O   0  0  0  0  0  0  0  0  0  0  0  0
    5.0112   -7.2097    2.6458 O   0  0  0  0  0  0  0  0  0  0  0  0
    5.5147   -6.0374    2.9645 C   0  0  0  0  0  0  0  0  0  0  0  0
    4.9253   -6.1615    4.4111 C   0  0  1  0  0  0  0  0  0  0  0  0
    6.3126   -7.1574    4.7476 C   0  0  1  0  0  0  0  0  0  0  0  0
    7.4397   -6.3735    5.1465 O   0  0  0  0  0  0  0  0  0  0  0  0
    6.0087   -8.6734    5.3998 C   0  0  2  0  0  0  0  0  0  0  0  0
    6.8191   -9.3532    6.5451 C   0  0  2  0  0  0  0  0  0  0  0  0
    6.0785   -9.9202    7.6355 O   0  0  0  0  0  0  0  0  0  0  0  0
    6.6599  -10.5347    8.7176 C   0  0  0  0  0  0  0  0  0  0  0  0
    5.6436  -11.0520    9.7291 C   0  0  0  0  0  0  0  0  0  0  0  0
    7.8662  -10.7085    8.8912 O   0  0  0  0  0  0  0  0  0  0  0  0
    7.1016  -10.4684    5.4933 C   0  0  0  0  0  0  0  0  0  0  0  0
    8.4615  -10.2416    4.7600 C   0  0  0  0  0  0  0  0  0  0  0  0
    7.2353  -11.9252    5.9813 C   0  0  0  0  0  0  0  0  0  0  0  0
    5.7182  -10.0833    4.6684 C   0  0  1  0  0  0  0  0  0  0  0  0
    6.0853  -10.3324    3.1742 C   0  0  0  0  0  0  0  0  0  0  0  0
    6.3381   -9.4327    2.3477 O   0  0  0  0  0  0  0  0  0  0  0  0
    6.3328  -11.7930    2.6992 C   0  0  0  0  0  0  0  0  0  0  0  0
    6.6116  -11.8725    1.3120 O   0  0  0  0  0  0  0  0  0  0  0  0
    2.8745   -6.5841    2.4385 C   0  0  1  0  0  0  0  0  0  0  0  0
    2.3410   -7.3355    1.3559 O   0  0  0  0  0  0  0  0  0  0  0  0
    9.7128   -9.0953    6.6985 H   0  0  0  0  0  0  0  0  0  0  0  0
    9.6669   -7.5461    7.6429 H   0  0  0  0  0  0  0  0  0  0  0  0
    7.3548   -7.3371    8.9893 H   0  0  0  0  0  0  0  0  0  0  0  0
    7.5009   -6.1920    7.6909 H   0  0  0  0  0  0  0  0  0  0  0  0
    5.6198   -5.6774    6.3785 H   0  0  0  0  0  0  0  0  0  0  0  0
    3.0428   -4.5707    6.5694 H   0  0  0  0  0  0  0  0  0  0  0  0
    3.9598   -4.6530    8.0301 H   0  0  0  0  0  0  0  0  0  0  0  0
    6.6556   -3.7293    7.3082 H   0  0  0  0  0  0  0  0  0  0  0  0
    5.5023   -2.7098    8.1945 H   0  0  0  0  0  0  0  0  0  0  0  0
    6.2474   -2.1187    6.6983 H   0  0  0  0  0  0  0  0  0  0  0  0
    5.6042   -3.1312    4.4457 H   0  0  0  0  0  0  0  0  0  0  0  0
    4.0284   -4.2717    3.2244 H   0  0  0  0  0  0  0  0  0  0  0  0
    1.2136   -5.4155    2.8046 H   0  0  0  0  0  0  0  0  0  0  0  0
    0.0533   -7.2065    3.4240 H   0  0  0  0  0  0  0  0  0  0  0  0
    1.0971  -10.0936    4.9182 H   0  0  0  0  0  0  0  0  0  0  0  0
    0.3466  -11.8629    3.5202 H   0  0  0  0  0  0  0  0  0  0  0  0
    0.6720  -10.8807    2.0819 H   0  0  0  0  0  0  0  0  0  0  0  0
   -0.5371  -10.3684    3.2440 H   0  0  0  0  0  0  0  0  0  0  0  0
    2.5275  -11.9012    4.0500 H   0  0  0  0  0  0  0  0  0  0  0  0
    3.2982  -10.9812    2.8810 H   0  0  0  0  0  0  0  0  0  0  0  0
    3.6688  -12.4765    5.5649 H   0  0  0  0  0  0  0  0  0  0  0  0
    2.6161  -11.0507    6.4400 H   0  0  0  0  0  0  0  0  0  0  0  0
    4.0103  -10.5828    7.1199 H   0  0  0  0  0  0  0  0  0  0  0  0
    1.5506   -9.3584    6.7175 H   0  0  0  0  0  0  0  0  0  0  0  0
    3.5499   -8.9434   10.4936 H   0  0  0  0  0  0  0  0  0  0  0  0
    2.5765  -10.4003   10.8090 H   0  0  0  0  0  0  0  0  0  0  0  0
    1.9348   -8.7934   11.1888 H   0  0  0  0  0  0  0  0  0  0  0  0
    1.6781   -5.6552    7.2759 H   0  0  0  0  0  0  0  0  0  0  0  0
    2.6862   -6.6793    8.1603 H   0  0  0  0  0  0  0  0  0  0  0  0
    1.0994   -7.1322    7.7434 H   0  0  0  0  0  0  0  0  0  0  0  0
    0.6222   -5.0305    5.4707 H   0  0  0  0  0  0  0  0  0  0  0  0
   -0.3723   -5.9739    6.5500 H   0  0  0  0  0  0  0  0  0  0  0  0
   -0.7575   -5.9128    4.8835 H   0  0  0  0  0  0  0  0  0  0  0  0
    0.1819   -9.0424    5.4849 H   0  0  0  0  0  0  0  0  0  0  0  0
    3.7206   -8.6689    2.1314 H   0  0  0  0  0  0  0  0  0  0  0  0
    6.5913   -5.9276    2.8189 H   0  0  0  0  0  0  0  0  0  0  0  0
    5.2176   -5.3314    2.1968 H   0  0  0  0  0  0  0  0  0  0  0  0
    6.8487   -7.5755    3.8884 H   0  0  0  0  0  0  0  0  0  0  0  0
    7.7586   -5.8859    4.3999 H   0  0  0  0  0  0  0  0  0  0  0  0
    5.1525   -8.6416    6.0274 H   0  0  0  0  0  0  0  0  0  0  0  0
    4.7939  -11.4768    9.1965 H   0  0  0  0  0  0  0  0  0  0  0  0
    5.3014  -10.2253   10.3478 H   0  0  0  0  0  0  0  0  0  0  0  0
    6.0792  -11.8215   10.3686 H   0  0  0  0  0  0  0  0  0  0  0  0
    8.6116  -10.8577    3.8751 H   0  0  0  0  0  0  0  0  0  0  0  0
    9.2998  -10.5158    5.4005 H   0  0  0  0  0  0  0  0  0  0  0  0
    8.5988   -9.1937    4.4574 H   0  0  0  0  0  0  0  0  0  0  0  0
    7.2355  -12.6401    5.1648 H   0  0  0  0  0  0  0  0  0  0  0  0
    6.4101  -12.2225    6.6262 H   0  0  0  0  0  0  0  0  0  0  0  0
    8.1436  -12.0860    6.5554 H   0  0  0  0  0  0  0  0  0  0  0  0
    7.2443  -12.1844    3.1475 H   0  0  0  0  0  0  0  0  0  0  0  0
    5.4957  -12.4526    2.9806 H   0  0  0  0  0  0  0  0  0  0  0  0
    5.7415  -11.8543    0.8855 H   0  0  0  0  0  0  0  0  0  0  0  0
    3.2865   -5.7300    1.9059 H   0  0  0  0  0  0  0  0  0  0  0  0
    1.8930   -8.0844    1.7383 H   0  0  0  0  0  0  0  0  0  0  0  0
  1  2  2  0
  1 57  1  0
  1 58  1  0
  2 42  1  0
  2  3  1  0
  4  3  1  6
  3 59  1  0
  3 60  1  0
  4  5  2  0
  4  6  1  0
  6 33  1  0
  6  7  1  0
  6 61  1  6
  7  8  1  0
  7 62  1  0
  7 63  1  0
  8 11  1  0
  8  9  1  1
  8 10  1  0
  9 64  1  0
  9 65  1  0
  9 66  1  0
 10 11  1  0
 11 12  1  0
 11 67  1  1
 12 38  1  0
 12 13  1  0
 12 68  1  6
 13 14  1  0
 14 55  1  0
 14 15  1  0
 14 69  1  6
 15 30  1  0
 15 16  1  0
 15 70  1  6
 16 17  1  0
 17 18  1  0
 17 19  1  0
 17 71  1  1
 18 72  1  0
 18 73  1  0
 18 74  1  0
 19 20  1  0
 19 75  1  0
 19 76  1  0
 20 50  1  0
 20 21  1  1
 20 22  1  0
 21 77  1  0
 22 23  1  0
 22 78  1  0
 22 79  1  0
 23 24  1  0
 23 28  1  0
 23 80  1  1
 24 25  1  0
 25 26  1  0
 25 27  2  0
 26 81  1  0
 26 82  1  0
 26 83  1  0
 28 29  1  1
 28 30  1  0
 28 33  1  0
 29 84  1  0
 29 85  1  0
 29 86  1  0
 30 31  1  0
 30 32  1  1
 31 87  1  0
 31 88  1  0
 31 89  1  0
 32 90  1  0
 33 38  1  0
 33 34  1  1
 34 35  1  1
 34 36  1  0
 34 55  1  0
 35 91  1  0
 36 37  1  0
 38 37  1  6
 37 92  1  0
 37 93  1  0
 38 39  1  0
 39 40  1  0
 39 41  1  0
 39 94  1  6
 40 95  1  0
 41 50  1  0
 41 42  1  0
 41 96  1  1
 42 43  1  1
 42 47  1  0
 43 44  1  0
 44 45  1  0
 44 46  2  0
 45 97  1  0
 45 98  1  0
 45 99  1  0
 47 48  1  0
 47 49  1  0
 47 50  1  0
 48100  1  0
 48101  1  0
 48102  1  0
 49103  1  0
 49104  1  0
 49105  1  0
 50 51  1  6
 51 52  2  0
 51 53  1  0
 53 54  1  0
 53106  1  0
 53107  1  0
 54108  1  0
 55 56  1  0
 55109  1  6
 56110  1  0
M  END
>  <i_m_ct_stereo_status>  (94) 
1

>  <s_m_source_file>  (94) 
/var/tmp/pbs.5075288.sched01/tmp_km6m70o/128goojv9vu.sdf

>  <i_m_source_file_index>  (94) 
52

>  <i_lp_mmshare_version>  (94) 
48012

>  <i_f3d_flags>  (94) 
0

>  <s_epik_input>  (94) 
W0NAQF0xMjNbQ0BdNDVbQ0BASF02W0NAQEhdN1tDQF0oTzcpKFtDSDNdKVtDSDJdW0NASF0xW1MrXShbTy1dKVtDSDJdQyg9W0NIMl0pW0NAQF04KE9DKD1PKVtDSDNdKVtDQEBIXShbQ0BASF01W09IXSlbQ0BdKEM4KFtDSDNdKVtDSDNdKShDKD1PKVtDSDJdW09IXSlbQ0BdOShbT0hdKVtDSDJdW0NASF0oW0NIM10pT1tDQEhdKFtDQEBIXShPNilbQ0BIXShbT0hdKVtDQEBdMyhbT0hdKU9bQ0gyXTQpW0NAQF0oW0NIM10pKFtPSF0pW0NAQF0yKFtDSDNdKVtDQEBIXShbQ0gyXTkpT0MoPU8pW0NIM10=

>  <s_epik_cmdline>  (94) 
J2VwaWtfcHl0aG9uJywgJy1waHQnLCAnMi4wJywgJy1waCcsICc3LjAnLCAnLXRuJywgJzgnLCAnLW1hJywgJzIwMCcsICctaW1hZScsICc8aW5maWxlLm1hZT4nLCAnLW9tYWUnLCAnPG91dGZpbGUubWFlPic=

>  <r_lp_tautomer_probability>  (94) 
1

>  <r_epik_Ionization_Penalty>  (94) 
8.49e-06

>  <r_epik_Ionization_Penalty_Charging>  (94) 
0

>  <r_epik_Ionization_Penalty_Neutral>  (94) 
8.49e-06

>  <r_epik_State_Penalty>  (94) 
-0

>  <r_epik_Charging_Adjusted_Penalty>  (94) 
0

>  <i_epik_Tot_Q>  (94) 
0

>  <i_epik_Tot_abs_Q>  (94) 
2

>  <s_epik_Chemistry_Notes>  (94) 
This compound has an ester and may undergo hydrolysis at high or low pH.

>  <s_lp_Force_Field>  (94) 
OPLS3e

>  <r_lp_Energy>  (94) 
666.877

>  <b_lp_Chiralities_Consistent>  (94) 
1

>  <s_lp_Variant>  (94) 
64:0-1

>  <s_i_glide_gridfile>  (94) 
pfpi4k_grid

>  <i_i_glide_lignum>  (94) 
52

>  <i_i_glide_rotatable_bonds>  (94) 
12

>  <r_i_docking_score>  (94) 
-3.35983

>  <r_i_glide_ligand_efficiency>  (94) 
-0.059997

>  <r_i_glide_ligand_efficiency_sa>  (94) 
-0.22954

>  <r_i_glide_ligand_efficiency_ln>  (94) 
-0.668576

>  <r_i_glide_gscore>  (94) 
-3.35983

>  <r_i_glide_lipo>  (94) 
-0.0765103

>  <r_i_glide_hbond>  (94) 
0

>  <r_i_glide_metal>  (94) 
-0

>  <r_i_glide_rewards>  (94) 
-0.5

>  <r_i_glide_evdw>  (94) 
-25.2987

>  <r_i_glide_ecoul>  (94) 
-10.6262

>  <r_i_glide_erotb>  (94) 
0.132674

>  <r_i_glide_esite>  (94) 
-0.0571272

>  <r_i_glide_emodel>  (94) 
-46.2584

>  <r_i_glide_energy>  (94) 
-35.9249

>  <r_i_glide_einternal>  (94) 
3.26944

>  <r_i_glide_intrahb_reward>  (94) 
-0.5

>  <i_i_glide_confnum>  (94) 
1

>  <i_i_glide_posenum>  (94) 
27

>  <r_i_glide_eff_state_penalty>  (94) 
0

>  <ligand_id>  (94) 
64

>  <original_smiles>  (94) 
C=C1C[S+]([O-])C2CC3(C)OC3C3OC4C5OC(C)CC6(O)CC(OC(C)=O)C(C)(C5(C)O)C25C(O)(OCC35C(O)C2C1(OC(C)=O)C(C)(C)C26C(=O)CO)C4O

>  <smiles>  (94) 
[H]OC([H])([H])C(=O)C12C3([H])C([H])(O[H])C45C([H])([H])OC6(O[H])C([H])(O[H])C7([H])OC4([H])C4([H])OC4(C([H])([H])[H])C([H])([H])C([H])(S(=O)C([H])([H])C(=C([H])[H])C3(OC(=O)C([H])([H])[H])C1(C([H])([H])[H])C([H])([H])[H])C65C1(C([H])([H])[H])C([H])(OC(=O)C([H])([H])[H])C([H])([H])C2(O[H])C([H])([H])C([H])(C([H])([H])[H])OC7([H])C1(O[H])C([H])([H])[H]

$$$$
64:1:0
     RDKit          3D

110118  0  0  1  0  0  0  0  0999 V2000
    5.7804   -2.0367    9.2797 C   0  0  0  0  0  0  0  0  0  0  0  0
    5.2423   -1.1663    8.3948 C   0  0  0  0  0  0  0  0  0  0  0  0
    5.8038   -1.0845    6.9672 C   0  0  0  0  0  0  0  0  0  0  0  0
    5.0197    0.1283    5.7661 S   0  0  0  0  0  0  0  0  0  0  0  0
    6.1169    0.4929    4.7640 O   0  0  0  0  0  0  0  0  0  0  0  0
    3.5353   -0.6776    4.9347 C   0  0  2  0  0  0  0  0  0  0  0  0
    3.9031   -0.7837    3.3982 C   0  0  0  0  0  0  0  0  0  0  0  0
    3.8802   -2.1834    2.9111 C   0  0  2  0  0  0  0  0  0  0  0  0
    5.1722   -2.9741    2.9702 C   0  0  0  0  0  0  0  0  0  0  0  0
    2.9845   -2.4414    1.8190 O   0  0  0  0  0  0  0  0  0  0  0  0
    2.5794   -2.8197    3.1363 C   0  0  2  0  0  0  0  0  0  0  0  0
    1.4937   -2.0202    3.8311 C   0  0  2  0  0  0  0  0  0  0  0  0
    0.9333   -0.7281    3.2985 O   0  0  0  0  0  0  0  0  0  0  0  0
   -0.3617   -0.0888    3.7720 C   0  0  2  0  0  0  0  0  0  0  0  0
   -0.4868    1.4425    4.2430 C   0  0  1  0  0  0  0  0  0  0  0  0
   -0.9586    1.7042    5.6180 O   0  0  0  0  0  0  0  0  0  0  0  0
   -0.6442    2.7204    6.6209 C   0  0  1  0  0  0  0  0  0  0  0  0
   -1.9582    3.5145    6.7139 C   0  0  0  0  0  0  0  0  0  0  0  0
   -0.2072    2.2023    8.0988 C   0  0  0  0  0  0  0  0  0  0  0  0
    1.3134    1.7089    8.4764 C   0  0  2  0  0  0  0  0  0  0  0  0
    1.3515    2.4408    9.6899 O   0  0  0  0  0  0  0  0  0  0  0  0
    2.2375    2.5489    7.5711 C   0  0  0  0  0  0  0  0  0  0  0  0
    2.4822    2.4659    6.0208 C   0  0  1  0  0  0  0  0  0  0  0  0
    3.7832    3.0610    5.9702 O   0  0  0  0  0  0  0  0  0  0  0  0
    4.0372    4.3964    5.6840 C   0  0  0  0  0  0  0  0  0  0  0  0
    2.8755    5.2937    5.1723 C   0  0  0  0  0  0  0  0  0  0  0  0
    5.1691    4.8606    5.7880 O   0  0  0  0  0  0  0  0  0  0  0  0
    2.0304    1.4342    4.8407 C   0  0  2  0  0  0  0  0  0  0  0  0
    3.1641    1.8912    3.7985 C   0  0  0  0  0  0  0  0  0  0  0  0
    0.8216    2.0397    3.9095 C   0  0  1  0  0  0  0  0  0  0  0  0
    0.8860    2.0072    2.3279 C   0  0  0  0  0  0  0  0  0  0  0  0
    0.6210    3.4414    3.9528 O   0  0  0  0  0  0  0  0  0  0  0  0
    1.9592   -0.1706    5.5474 C   0  0  2  0  0  0  0  0  0  0  0  0
    0.3198   -0.7709    5.9669 C   0  0  2  0  0  0  0  0  0  0  0  0
   -0.1705   -0.0908    6.9913 O   0  0  0  0  0  0  0  0  0  0  0  0
    0.2030   -1.9754    6.5988 O   0  0  0  0  0  0  0  0  0  0  0  0
    0.8068   -2.8316    5.8112 C   0  0  0  0  0  0  0  0  0  0  0  0
    1.8495   -1.7357    5.3997 C   0  0  1  0  0  0  0  0  0  0  0  0
    2.6261   -2.0342    6.9069 C   0  0  1  0  0  0  0  0  0  0  0  0
    3.5922   -3.0646    6.8395 O   0  0  0  0  0  0  0  0  0  0  0  0
    2.8195   -0.8089    8.0633 C   0  0  0  0  0  0  0  0  0  0  0  0
    4.1200   -0.1519    8.6639 C   0  0  2  0  0  0  0  0  0  0  0  0
    4.6442    1.1481    8.3263 O   0  0  0  0  0  0  0  0  0  0  0  0
    5.8151    1.6648    8.8567 C   0  0  0  0  0  0  0  0  0  0  0  0
    6.1649    3.0376    8.3013 C   0  0  0  0  0  0  0  0  0  0  0  0
    6.5384    1.1321    9.6993 O   0  0  0  0  0  0  0  0  0  0  0  0
    3.2260    0.1111    9.9752 C   0  0  0  0  0  0  0  0  0  0  0  0
    3.2793   -0.9762   11.1002 C   0  0  0  0  0  0  0  0  0  0  0  0
    3.5822    1.3145   10.8954 C   0  0  0  0  0  0  0  0  0  0  0  0
    1.8736    0.1801    8.9997 C   0  0  1  0  0  0  0  0  0  0  0  0
    0.6943   -0.5718    9.6926 C   0  0  0  0  0  0  0  0  0  0  0  0
    0.2896   -1.6834    9.3284 O   0  0  0  0  0  0  0  0  0  0  0  0
   -0.0088    0.0251   10.9316 C   0  0  0  0  0  0  0  0  0  0  0  0
   -0.6134   -1.0213   11.6561 O   0  0  0  0  0  0  0  0  0  0  0  0
   -0.8563   -0.8770    4.9047 C   0  0  1  0  0  0  0  0  0  0  0  0
   -2.1767   -0.5907    5.3834 O   0  0  0  0  0  0  0  0  0  0  0  0
    5.4761   -2.1397   10.3018 H   0  0  0  0  0  0  0  0  0  0  0  0
    6.5912   -2.6703    8.9705 H   0  0  0  0  0  0  0  0  0  0  0  0
    6.8298   -0.7536    7.0827 H   0  0  0  0  0  0  0  0  0  0  0  0
    5.9125   -2.0548    6.5074 H   0  0  0  0  0  0  0  0  0  0  0  0
    3.9795   -1.6442    5.1283 H   0  0  0  0  0  0  0  0  0  0  0  0
    3.1571   -0.3546    2.7524 H   0  0  0  0  0  0  0  0  0  0  0  0
    4.8393   -0.3307    3.0923 H   0  0  0  0  0  0  0  0  0  0  0  0
    5.4911   -3.0898    4.0046 H   0  0  0  0  0  0  0  0  0  0  0  0
    5.9538   -2.4766    2.3988 H   0  0  0  0  0  0  0  0  0  0  0  0
    5.0118   -3.9685    2.5528 H   0  0  0  0  0  0  0  0  0  0  0  0
    2.5729   -3.8934    3.3151 H   0  0  0  0  0  0  0  0  0  0  0  0
    0.6591   -2.6533    3.5353 H   0  0  0  0  0  0  0  0  0  0  0  0
   -1.0784   -0.2101    2.9621 H   0  0  0  0  0  0  0  0  0  0  0  0
   -1.2703    1.8961    3.6245 H   0  0  0  0  0  0  0  0  0  0  0  0
    0.0170    3.4922    6.2699 H   0  0  0  0  0  0  0  0  0  0  0  0
   -1.8645    4.3605    7.3971 H   0  0  0  0  0  0  0  0  0  0  0  0
   -2.7800    2.8904    7.0622 H   0  0  0  0  0  0  0  0  0  0  0  0
   -2.2402    3.9171    5.7396 H   0  0  0  0  0  0  0  0  0  0  0  0
   -0.4181    3.1112    8.6631 H   0  0  0  0  0  0  0  0  0  0  0  0
   -0.9637    1.5362    8.5215 H   0  0  0  0  0  0  0  0  0  0  0  0
    0.6963    2.1187   10.2914 H   0  0  0  0  0  0  0  0  0  0  0  0
    1.8619    3.5693    7.6662 H   0  0  0  0  0  0  0  0  0  0  0  0
    3.1403    2.7625    8.1257 H   0  0  0  0  0  0  0  0  0  0  0  0
    1.8662    3.2569    5.7590 H   0  0  0  0  0  0  0  0  0  0  0  0
    1.8709    4.8943    5.4269 H   0  0  0  0  0  0  0  0  0  0  0  0
    2.9973    5.3908    4.0770 H   0  0  0  0  0  0  0  0  0  0  0  0
    3.0015    6.3128    5.5881 H   0  0  0  0  0  0  0  0  0  0  0  0
    3.1466    1.5587    2.7706 H   0  0  0  0  0  0  0  0  0  0  0  0
    4.2019    1.7778    4.0659 H   0  0  0  0  0  0  0  0  0  0  0  0
    3.0806    2.9605    3.6210 H   0  0  0  0  0  0  0  0  0  0  0  0
    1.1817    1.0617    1.8852 H   0  0  0  0  0  0  0  0  0  0  0  0
    1.5557    2.7608    1.9084 H   0  0  0  0  0  0  0  0  0  0  0  0
   -0.0799    2.2320    1.8730 H   0  0  0  0  0  0  0  0  0  0  0  0
    0.3997    3.7441    3.0795 H   0  0  0  0  0  0  0  0  0  0  0  0
   -0.1437    0.8176    6.7139 H   0  0  0  0  0  0  0  0  0  0  0  0
    1.1295   -3.7615    6.2677 H   0  0  0  0  0  0  0  0  0  0  0  0
    0.0530   -3.2866    5.1969 H   0  0  0  0  0  0  0  0  0  0  0  0
    2.0467   -2.6884    7.5614 H   0  0  0  0  0  0  0  0  0  0  0  0
    4.3575   -2.7209    6.4093 H   0  0  0  0  0  0  0  0  0  0  0  0
    2.8325   -1.6289    8.7714 H   0  0  0  0  0  0  0  0  0  0  0  0
    5.2910    3.6812    8.3374 H   0  0  0  0  0  0  0  0  0  0  0  0
    6.4945    2.9533    7.2653 H   0  0  0  0  0  0  0  0  0  0  0  0
    6.9546    3.5081    8.8910 H   0  0  0  0  0  0  0  0  0  0  0  0
    2.5372   -0.7966   11.8804 H   0  0  0  0  0  0  0  0  0  0  0  0
    4.2397   -0.9927   11.6233 H   0  0  0  0  0  0  0  0  0  0  0  0
    3.1158   -1.9972   10.7730 H   0  0  0  0  0  0  0  0  0  0  0  0
    2.8385    1.5043   11.6690 H   0  0  0  0  0  0  0  0  0  0  0  0
    3.6664    2.2480   10.3497 H   0  0  0  0  0  0  0  0  0  0  0  0
    4.5438    1.2095   11.4077 H   0  0  0  0  0  0  0  0  0  0  0  0
    0.6536    0.6243   11.5620 H   0  0  0  0  0  0  0  0  0  0  0  0
   -0.8478    0.6327   10.6255 H   0  0  0  0  0  0  0  0  0  0  0  0
   -1.2644   -0.6949   12.2816 H   0  0  0  0  0  0  0  0  0  0  0  0
   -1.0481   -1.8557    4.4858 H   0  0  0  0  0  0  0  0  0  0  0  0
   -2.6743   -0.2008    4.6761 H   0  0  0  0  0  0  0  0  0  0  0  0
  1  2  2  0
  1 57  1  0
  1 58  1  0
  2 42  1  0
  2  3  1  0
  4  3  1  1
  3 59  1  0
  3 60  1  0
  4  5  2  0
  4  6  1  0
  6 33  1  0
  6  7  1  0
  6 61  1  1
  7  8  1  0
  7 62  1  0
  7 63  1  0
  8 11  1  0
  8  9  1  6
  8 10  1  0
  9 64  1  0
  9 65  1  0
  9 66  1  0
 10 11  1  0
 11 12  1  0
 11 67  1  6
 12 38  1  0
 12 13  1  0
 12 68  1  1
 13 14  1  0
 14 55  1  0
 14 15  1  0
 14 69  1  6
 15 30  1  0
 15 16  1  0
 15 70  1  6
 16 17  1  0
 17 18  1  0
 17 19  1  0
 17 71  1  6
 18 72  1  0
 18 73  1  0
 18 74  1  0
 19 20  1  0
 19 75  1  0
 19 76  1  0
 20 50  1  0
 20 21  1  1
 20 22  1  0
 21 77  1  0
 22 23  1  0
 22 78  1  0
 22 79  1  0
 23 24  1  0
 23 28  1  0
 23 80  1  6
 24 25  1  0
 25 26  1  0
 25 27  2  0
 26 81  1  0
 26 82  1  0
 26 83  1  0
 28 29  1  6
 28 30  1  0
 28 33  1  0
 29 84  1  0
 29 85  1  0
 29 86  1  0
 30 31  1  0
 30 32  1  6
 31 87  1  0
 31 88  1  0
 31 89  1  0
 32 90  1  0
 33 38  1  0
 33 34  1  1
 34 35  1  1
 34 36  1  0
 34 55  1  0
 35 91  1  0
 36 37  1  0
 38 37  1  1
 37 92  1  0
 37 93  1  0
 38 39  1  0
 39 40  1  0
 39 41  1  0
 39 94  1  1
 40 95  1  0
 41 50  1  0
 41 42  1  0
 41 96  1  0
 42 43  1  6
 42 47  1  0
 43 44  1  0
 44 45  1  0
 44 46  2  0
 45 97  1  0
 45 98  1  0
 45 99  1  0
 47 48  1  0
 47 49  1  0
 47 50  1  0
 48100  1  0
 48101  1  0
 48102  1  0
 49103  1  0
 49104  1  0
 49105  1  0
 50 51  1  1
 51 52  2  0
 51 53  1  0
 53 54  1  0
 53106  1  0
 53107  1  0
 54108  1  0
 55 56  1  0
 55109  1  6
 56110  1  0
M  END
>  <i_m_ct_stereo_status>  (95) 
1

>  <s_m_source_file>  (95) 
/var/tmp/pbs.5075288.sched01/tmp_km6m70o/128goojv9vu.sdf

>  <i_m_source_file_index>  (95) 
53

>  <i_lp_mmshare_version>  (95) 
48012

>  <i_f3d_flags>  (95) 
0

>  <s_epik_input>  (95) 
W0NAQF0xMjNbQ0BdNDVbQ0BASF02W0NAQEhdN1tDQF0oTzcpKFtDSDNdKVtDSDJdW0NASF0xW1MrXShbTy1dKVtDSDJdQyg9W0NIMl0pW0NAQF04KE9DKD1PKVtDSDNdKVtDQEBIXShbQ0BASF01W09IXSlbQ0BdKEM4KFtDSDNdKVtDSDNdKShDKD1PKVtDSDJdW09IXSlbQ0BdOShbT0hdKVtDSDJdW0NASF0oW0NIM10pT1tDQEhdKFtDQEBIXShPNilbQ0BIXShbT0hdKVtDQEBdMyhbT0hdKU9bQ0gyXTQpW0NAQF0oW0NIM10pKFtPSF0pW0NAQF0yKFtDSDNdKVtDQEBIXShbQ0gyXTkpT0MoPU8pW0NIM10=

>  <s_epik_cmdline>  (95) 
J2VwaWtfcHl0aG9uJywgJy1waHQnLCAnMi4wJywgJy1waCcsICc3LjAnLCAnLXRuJywgJzgnLCAnLW1hJywgJzIwMCcsICctaW1hZScsICc8aW5maWxlLm1hZT4nLCAnLW9tYWUnLCAnPG91dGZpbGUubWFlPic=

>  <r_lp_tautomer_probability>  (95) 
1

>  <r_epik_Ionization_Penalty>  (95) 
8.49e-06

>  <r_epik_Ionization_Penalty_Charging>  (95) 
0

>  <r_epik_Ionization_Penalty_Neutral>  (95) 
8.49e-06

>  <r_epik_State_Penalty>  (95) 
-0

>  <r_epik_Charging_Adjusted_Penalty>  (95) 
0

>  <i_epik_Tot_Q>  (95) 
0

>  <i_epik_Tot_abs_Q>  (95) 
2

>  <s_epik_Chemistry_Notes>  (95) 
This compound has an ester and may undergo hydrolysis at high or low pH.

>  <s_lp_Force_Field>  (95) 
OPLS3e

>  <r_lp_Energy>  (95) 
760.575

>  <b_lp_Chiralities_Consistent>  (95) 
1

>  <s_lp_Variant>  (95) 
64:0-2

>  <s_i_glide_gridfile>  (95) 
pfpi4k_grid

>  <i_i_glide_lignum>  (95) 
53

>  <i_i_glide_rotatable_bonds>  (95) 
12

>  <r_i_docking_score>  (95) 
-3.82402

>  <r_i_glide_ligand_efficiency>  (95) 
-0.0682861

>  <r_i_glide_ligand_efficiency_sa>  (95) 
-0.261253

>  <r_i_glide_ligand_efficiency_ln>  (95) 
-0.760946

>  <r_i_glide_gscore>  (95) 
-3.82402

>  <r_i_glide_lipo>  (95) 
-0.163089

>  <r_i_glide_hbond>  (95) 
-0.0802681

>  <r_i_glide_metal>  (95) 
-0

>  <r_i_glide_rewards>  (95) 
-0.0320064

>  <r_i_glide_evdw>  (95) 
-27.245

>  <r_i_glide_ecoul>  (95) 
-15.198

>  <r_i_glide_erotb>  (95) 
0.132674

>  <r_i_glide_esite>  (95) 
-0.03938

>  <r_i_glide_emodel>  (95) 
-47.0269

>  <r_i_glide_energy>  (95) 
-42.443

>  <r_i_glide_einternal>  (95) 
10.4841

>  <r_i_glide_intrahb_reward>  (95) 
-0

>  <i_i_glide_confnum>  (95) 
3

>  <i_i_glide_posenum>  (95) 
39

>  <r_i_glide_eff_state_penalty>  (95) 
0

>  <ligand_id>  (95) 
64

>  <original_smiles>  (95) 
C=C1C[S+]([O-])C2CC3(C)OC3C3OC4C5OC(C)CC6(O)CC(OC(C)=O)C(C)(C5(C)O)C25C(O)(OCC35C(O)C2C1(OC(C)=O)C(C)(C)C26C(=O)CO)C4O

>  <smiles>  (95) 
[H]OC([H])([H])C(=O)C12C3([H])C([H])(O[H])C45C([H])([H])OC6(O[H])C([H])(O[H])C7([H])OC4([H])C4([H])OC4(C([H])([H])[H])C([H])([H])C([H])(S(=O)C([H])([H])C(=C([H])[H])C3(OC(=O)C([H])([H])[H])C1(C([H])([H])[H])C([H])([H])[H])C65C1(C([H])([H])[H])C([H])(OC(=O)C([H])([H])[H])C([H])([H])C2(O[H])C([H])([H])C([H])(C([H])([H])[H])OC7([H])C1(O[H])C([H])([H])[H]

$$$$
64:1:1
     RDKit          3D

110118  0  0  1  0  0  0  0  0999 V2000
    5.9105   -2.0821    9.0192 C   0  0  0  0  0  0  0  0  0  0  0  0
    5.3440   -1.2142    8.1754 C   0  0  0  0  0  0  0  0  0  0  0  0
    5.8569   -1.1021    6.7229 C   0  0  0  0  0  0  0  0  0  0  0  0
    5.0324    0.1217    5.5657 S   0  0  0  0  0  0  0  0  0  0  0  0
    6.0936    0.5074    4.5364 O   0  0  0  0  0  0  0  0  0  0  0  0
    3.5260   -0.6733    4.7685 C   0  0  2  0  0  0  0  0  0  0  0  0
    3.8441   -0.7636    3.2209 C   0  0  0  0  0  0  0  0  0  0  0  0
    3.8176   -2.1619    2.7090 C   0  0  2  0  0  0  0  0  0  0  0  0
    5.1147   -2.9431    2.7235 C   0  0  0  0  0  0  0  0  0  0  0  0
    2.8916   -2.4135    1.6453 O   0  0  0  0  0  0  0  0  0  0  0  0
    2.5298   -2.8145    2.9687 C   0  0  2  0  0  0  0  0  0  0  0  0
    1.4625   -2.0291    3.7115 C   0  0  2  0  0  0  0  0  0  0  0  0
    0.8656   -0.7377    3.2099 O   0  0  0  0  0  0  0  0  0  0  0  0
   -0.4144   -0.1124    3.7350 C   0  0  2  0  0  0  0  0  0  0  0  0
   -0.5349    1.4117    4.2307 C   0  0  1  0  0  0  0  0  0  0  0  0
   -1.0128    1.6671    5.6034 O   0  0  0  0  0  0  0  0  0  0  0  0
   -0.6271    2.6452    6.6219 C   0  0  1  0  0  0  0  0  0  0  0  0
   -1.9383    3.4379    6.7744 C   0  0  0  0  0  0  0  0  0  0  0  0
   -0.1429    2.1180    8.0777 C   0  0  0  0  0  0  0  0  0  0  0  0
    1.3925    1.6344    8.4032 C   0  0  2  0  0  0  0  0  0  0  0  0
    1.4410    2.3249    9.6435 O   0  0  0  0  0  0  0  0  0  0  0  0
    2.2755    2.4973    7.4899 C   0  0  0  0  0  0  0  0  0  0  0  0
    2.4855    2.4270    5.9354 C   0  0  1  0  0  0  0  0  0  0  0  0
    3.7954    3.0338    5.8388 O   0  0  0  0  0  0  0  0  0  0  0  0
    4.0124    4.3925    5.7053 C   0  0  0  0  0  0  0  0  0  0  0  0
    2.7991    5.3464    5.5631 C   0  0  0  0  0  0  0  0  0  0  0  0
    5.1514    4.8481    5.6830 O   0  0  0  0  0  0  0  0  0  0  0  0
    1.9982    1.4087    4.7421 C   0  0  2  0  0  0  0  0  0  0  0  0
    3.0988    1.9054    3.6797 C   0  0  0  0  0  0  0  0  0  0  0  0
    0.7551    2.0346    3.8684 C   0  0  1  0  0  0  0  0  0  0  0  0
    0.7727    2.0153    2.2820 C   0  0  0  0  0  0  0  0  0  0  0  0
    0.5551    3.4450    3.9249 O   0  0  0  0  0  0  0  0  0  0  0  0
    1.9583   -0.1963    5.4327 C   0  0  2  0  0  0  0  0  0  0  0  0
    0.3352   -0.8099    5.8879 C   0  0  2  0  0  0  0  0  0  0  0  0
   -0.1281   -0.1621    6.9354 O   0  0  0  0  0  0  0  0  0  0  0  0
    0.2486   -2.0288    6.5115 O   0  0  0  0  0  0  0  0  0  0  0  0
    0.8386   -2.8778    5.6925 C   0  0  0  0  0  0  0  0  0  0  0  0
    1.8579   -1.7599    5.2727 C   0  0  1  0  0  0  0  0  0  0  0  0
    2.6838   -2.0723    6.7519 C   0  0  1  0  0  0  0  0  0  0  0  0
    3.6617   -3.0972    6.6398 O   0  0  0  0  0  0  0  0  0  0  0  0
    2.9051   -0.8639    7.9213 C   0  0  0  0  0  0  0  0  0  0  0  0
    4.2195   -0.2056    8.4890 C   0  0  2  0  0  0  0  0  0  0  0  0
    4.7223    1.1010    8.1520 O   0  0  0  0  0  0  0  0  0  0  0  0
    5.9075    1.6212    8.6512 C   0  0  0  0  0  0  0  0  0  0  0  0
    6.2335    2.9976    8.1042 C   0  0  0  0  0  0  0  0  0  0  0  0
    6.6547    1.0812    9.4688 O   0  0  0  0  0  0  0  0  0  0  0  0
    3.3679    0.0325    9.8310 C   0  0  0  0  0  0  0  0  0  0  0  0
    3.4622   -1.0749   10.9346 C   0  0  0  0  0  0  0  0  0  0  0  0
    3.7416    1.2337   10.7506 C   0  0  0  0  0  0  0  0  0  0  0  0
    1.9837    0.1097    8.8996 C   0  0  1  0  0  0  0  0  0  0  0  0
    0.8306   -0.6565    9.6272 C   0  0  0  0  0  0  0  0  0  0  0  0
    0.4297   -1.7548    9.2399 O   0  0  0  0  0  0  0  0  0  0  0  0
    0.1480   -0.0921   10.9061 C   0  0  0  0  0  0  0  0  0  0  0  0
   -0.6150   -1.1089   11.5389 O   0  0  0  0  0  0  0  0  0  0  0  0
   -0.8669   -0.9166    4.8704 C   0  0  1  0  0  0  0  0  0  0  0  0
   -2.1738   -0.6677    5.3880 O   0  0  0  0  0  0  0  0  0  0  0  0
    5.6387   -2.2057   10.0536 H   0  0  0  0  0  0  0  0  0  0  0  0
    6.7196   -2.7125    8.6804 H   0  0  0  0  0  0  0  0  0  0  0  0
    6.8878   -0.7639    6.8139 H   0  0  0  0  0  0  0  0  0  0  0  0
    5.9579   -2.0713    6.2469 H   0  0  0  0  0  0  0  0  0  0  0  0
    3.9846   -1.6449    4.9364 H   0  0  0  0  0  0  0  0  0  0  0  0
    3.0768   -0.3287    2.6050 H   0  0  0  0  0  0  0  0  0  0  0  0
    4.7701   -0.3007    2.8917 H   0  0  0  0  0  0  0  0  0  0  0  0
    5.4701   -3.0699    3.7468 H   0  0  0  0  0  0  0  0  0  0  0  0
    5.8805   -2.4321    2.1366 H   0  0  0  0  0  0  0  0  0  0  0  0
    4.9539   -3.9328    2.2976 H   0  0  0  0  0  0  0  0  0  0  0  0
    2.5359   -3.8874    3.1358 H   0  0  0  0  0  0  0  0  0  0  0  0
    0.6223   -2.6628    3.4260 H   0  0  0  0  0  0  0  0  0  0  0  0
   -1.1530   -0.2245    2.9481 H   0  0  0  0  0  0  0  0  0  0  0  0
   -1.3353    1.8635    3.6364 H   0  0  0  0  0  0  0  0  0  0  0  0
    0.0372    3.4125    6.2617 H   0  0  0  0  0  0  0  0  0  0  0  0
   -1.8323    4.2750    7.4659 H   0  0  0  0  0  0  0  0  0  0  0  0
   -2.7457    2.8035    7.1388 H   0  0  0  0  0  0  0  0  0  0  0  0
   -2.2568    3.8511    5.8165 H   0  0  0  0  0  0  0  0  0  0  0  0
   -0.3586    3.0114    8.6667 H   0  0  0  0  0  0  0  0  0  0  0  0
   -0.8760    1.4355    8.5126 H   0  0  0  0  0  0  0  0  0  0  0  0
    1.2283    3.2376    9.5056 H   0  0  0  0  0  0  0  0  0  0  0  0
    1.8916    3.5153    7.5969 H   0  0  0  0  0  0  0  0  0  0  0  0
    3.1963    2.7051    8.0042 H   0  0  0  0  0  0  0  0  0  0  0  0
    1.8837    3.2223    5.6908 H   0  0  0  0  0  0  0  0  0  0  0  0
    1.8609    4.9412    5.9304 H   0  0  0  0  0  0  0  0  0  0  0  0
    2.6856    5.5922    4.4961 H   0  0  0  0  0  0  0  0  0  0  0  0
    3.0369    6.2977    6.0796 H   0  0  0  0  0  0  0  0  0  0  0  0
    3.0525    1.5884    2.6505 H   0  0  0  0  0  0  0  0  0  0  0  0
    4.1425    1.7819    3.9108 H   0  0  0  0  0  0  0  0  0  0  0  0
    3.0145    2.9852    3.5419 H   0  0  0  0  0  0  0  0  0  0  0  0
    1.0655    1.0753    1.8214 H   0  0  0  0  0  0  0  0  0  0  0  0
    1.4296    2.7746    1.8534 H   0  0  0  0  0  0  0  0  0  0  0  0
   -0.2054    2.2385    1.8590 H   0  0  0  0  0  0  0  0  0  0  0  0
    0.2603    3.7423    3.0687 H   0  0  0  0  0  0  0  0  0  0  0  0
    0.5994   -0.1061    7.5269 H   0  0  0  0  0  0  0  0  0  0  0  0
    1.1858   -3.8098    6.1345 H   0  0  0  0  0  0  0  0  0  0  0  0
    0.0657   -3.3315    5.0980 H   0  0  0  0  0  0  0  0  0  0  0  0
    2.1361   -2.7493    7.4119 H   0  0  0  0  0  0  0  0  0  0  0  0
    4.4031   -2.7480    6.1729 H   0  0  0  0  0  0  0  0  0  0  0  0
    2.9482   -1.6960    8.6130 H   0  0  0  0  0  0  0  0  0  0  0  0
    5.3571    3.6386    8.1739 H   0  0  0  0  0  0  0  0  0  0  0  0
    6.5332    2.9265    7.0573 H   0  0  0  0  0  0  0  0  0  0  0  0
    7.0386    3.4681    8.6727 H   0  0  0  0  0  0  0  0  0  0  0  0
    2.7463   -0.9120   11.7401 H   0  0  0  0  0  0  0  0  0  0  0  0
    4.4367   -1.0879   11.4259 H   0  0  0  0  0  0  0  0  0  0  0  0
    3.2946   -2.0907   10.5956 H   0  0  0  0  0  0  0  0  0  0  0  0
    3.0166    1.3983   11.5496 H   0  0  0  0  0  0  0  0  0  0  0  0
    3.8001    2.1707   10.2164 H   0  0  0  0  0  0  0  0  0  0  0  0
    4.7164    1.1196   11.2342 H   0  0  0  0  0  0  0  0  0  0  0  0
    0.8800    0.3581   11.5828 H   0  0  0  0  0  0  0  0  0  0  0  0
   -0.5711    0.6705   10.6274 H   0  0  0  0  0  0  0  0  0  0  0  0
   -1.2308   -0.7415   12.1942 H   0  0  0  0  0  0  0  0  0  0  0  0
   -1.0605   -1.8931    4.4485 H   0  0  0  0  0  0  0  0  0  0  0  0
   -2.7068   -0.3012    4.6963 H   0  0  0  0  0  0  0  0  0  0  0  0
  1  2  2  0
  1 57  1  0
  1 58  1  0
  2 42  1  0
  2  3  1  0
  4  3  1  1
  3 59  1  0
  3 60  1  0
  4  5  2  0
  4  6  1  0
  6 33  1  0
  6  7  1  0
  6 61  1  1
  7  8  1  0
  7 62  1  0
  7 63  1  0
  8 11  1  0
  8  9  1  6
  8 10  1  0
  9 64  1  0
  9 65  1  0
  9 66  1  0
 10 11  1  0
 11 12  1  0
 11 67  1  6
 12 38  1  0
 12 13  1  0
 12 68  1  1
 13 14  1  0
 14 55  1  0
 14 15  1  0
 14 69  1  6
 15 30  1  0
 15 16  1  0
 15 70  1  6
 16 17  1  0
 17 18  1  0
 17 19  1  0
 17 71  1  6
 18 72  1  0
 18 73  1  0
 18 74  1  0
 19 20  1  0
 19 75  1  0
 19 76  1  0
 20 50  1  0
 20 21  1  1
 20 22  1  0
 21 77  1  0
 22 23  1  0
 22 78  1  0
 22 79  1  0
 23 24  1  0
 23 28  1  0
 23 80  1  6
 24 25  1  0
 25 26  1  0
 25 27  2  0
 26 81  1  0
 26 82  1  0
 26 83  1  0
 28 29  1  6
 28 30  1  0
 28 33  1  0
 29 84  1  0
 29 85  1  0
 29 86  1  0
 30 31  1  0
 30 32  1  6
 31 87  1  0
 31 88  1  0
 31 89  1  0
 32 90  1  0
 33 38  1  0
 33 34  1  1
 34 35  1  1
 34 36  1  0
 34 55  1  0
 35 91  1  0
 36 37  1  0
 38 37  1  1
 37 92  1  0
 37 93  1  0
 38 39  1  0
 39 40  1  0
 39 41  1  0
 39 94  1  1
 40 95  1  0
 41 50  1  0
 41 42  1  0
 41 96  1  0
 42 43  1  6
 42 47  1  0
 43 44  1  0
 44 45  1  0
 44 46  2  0
 45 97  1  0
 45 98  1  0
 45 99  1  0
 47 48  1  0
 47 49  1  0
 47 50  1  0
 48100  1  0
 48101  1  0
 48102  1  0
 49103  1  0
 49104  1  0
 49105  1  0
 50 51  1  1
 51 52  2  0
 51 53  1  0
 53 54  1  0
 53106  1  0
 53107  1  0
 54108  1  0
 55 56  1  0
 55109  1  6
 56110  1  0
M  END
>  <i_m_ct_stereo_status>  (96) 
1

>  <s_m_source_file>  (96) 
/var/tmp/pbs.5075288.sched01/tmp_km6m70o/128goojv9vu.sdf

>  <i_m_source_file_index>  (96) 
53

>  <i_lp_mmshare_version>  (96) 
48012

>  <i_f3d_flags>  (96) 
0

>  <s_epik_input>  (96) 
W0NAQF0xMjNbQ0BdNDVbQ0BASF02W0NAQEhdN1tDQF0oTzcpKFtDSDNdKVtDSDJdW0NASF0xW1MrXShbTy1dKVtDSDJdQyg9W0NIMl0pW0NAQF04KE9DKD1PKVtDSDNdKVtDQEBIXShbQ0BASF01W09IXSlbQ0BdKEM4KFtDSDNdKVtDSDNdKShDKD1PKVtDSDJdW09IXSlbQ0BdOShbT0hdKVtDSDJdW0NASF0oW0NIM10pT1tDQEhdKFtDQEBIXShPNilbQ0BIXShbT0hdKVtDQEBdMyhbT0hdKU9bQ0gyXTQpW0NAQF0oW0NIM10pKFtPSF0pW0NAQF0yKFtDSDNdKVtDQEBIXShbQ0gyXTkpT0MoPU8pW0NIM10=

>  <s_epik_cmdline>  (96) 
J2VwaWtfcHl0aG9uJywgJy1waHQnLCAnMi4wJywgJy1waCcsICc3LjAnLCAnLXRuJywgJzgnLCAnLW1hJywgJzIwMCcsICctaW1hZScsICc8aW5maWxlLm1hZT4nLCAnLW9tYWUnLCAnPG91dGZpbGUubWFlPic=

>  <r_lp_tautomer_probability>  (96) 
1

>  <r_epik_Ionization_Penalty>  (96) 
8.49e-06

>  <r_epik_Ionization_Penalty_Charging>  (96) 
0

>  <r_epik_Ionization_Penalty_Neutral>  (96) 
8.49e-06

>  <r_epik_State_Penalty>  (96) 
-0

>  <r_epik_Charging_Adjusted_Penalty>  (96) 
0

>  <i_epik_Tot_Q>  (96) 
0

>  <i_epik_Tot_abs_Q>  (96) 
2

>  <s_epik_Chemistry_Notes>  (96) 
This compound has an ester and may undergo hydrolysis at high or low pH.

>  <s_lp_Force_Field>  (96) 
OPLS3e

>  <r_lp_Energy>  (96) 
760.575

>  <b_lp_Chiralities_Consistent>  (96) 
1

>  <s_lp_Variant>  (96) 
64:0-2

>  <s_i_glide_gridfile>  (96) 
pfpi4k_grid

>  <i_i_glide_lignum>  (96) 
53

>  <i_i_glide_rotatable_bonds>  (96) 
12

>  <r_i_docking_score>  (96) 
-3.70131

>  <r_i_glide_ligand_efficiency>  (96) 
-0.0660949

>  <r_i_glide_ligand_efficiency_sa>  (96) 
-0.25287

>  <r_i_glide_ligand_efficiency_ln>  (96) 
-0.736529

>  <r_i_glide_gscore>  (96) 
-3.70131

>  <r_i_glide_lipo>  (96) 
-0.178571

>  <r_i_glide_hbond>  (96) 
-0.0327152

>  <r_i_glide_metal>  (96) 
-0

>  <r_i_glide_rewards>  (96) 
-0.042958

>  <r_i_glide_evdw>  (96) 
-28.2727

>  <r_i_glide_ecoul>  (96) 
-14.2192

>  <r_i_glide_erotb>  (96) 
0.132674

>  <r_i_glide_esite>  (96) 
-0.0332231

>  <r_i_glide_emodel>  (96) 
-48.2928

>  <r_i_glide_energy>  (96) 
-42.4919

>  <r_i_glide_einternal>  (96) 
7.92283

>  <r_i_glide_intrahb_reward>  (96) 
-0

>  <i_i_glide_confnum>  (96) 
3

>  <i_i_glide_posenum>  (96) 
1

>  <r_i_glide_eff_state_penalty>  (96) 
0

>  <ligand_id>  (96) 
64

>  <original_smiles>  (96) 
C=C1C[S+]([O-])C2CC3(C)OC3C3OC4C5OC(C)CC6(O)CC(OC(C)=O)C(C)(C5(C)O)C25C(O)(OCC35C(O)C2C1(OC(C)=O)C(C)(C)C26C(=O)CO)C4O

>  <smiles>  (96) 
[H]OC([H])([H])C(=O)C12C3([H])C([H])(O[H])C45C([H])([H])OC6(O[H])C([H])(O[H])C7([H])OC4([H])C4([H])OC4(C([H])([H])[H])C([H])([H])C([H])(S(=O)C([H])([H])C(=C([H])[H])C3(OC(=O)C([H])([H])[H])C1(C([H])([H])[H])C([H])([H])[H])C65C1(C([H])([H])[H])C([H])(OC(=O)C([H])([H])[H])C([H])([H])C2(O[H])C([H])([H])C([H])(C([H])([H])[H])OC7([H])C1(O[H])C([H])([H])[H]

$$$$
64:1:2
     RDKit          3D

110118  0  0  1  0  0  0  0  0999 V2000
    5.5726   -1.7946    9.6496 C   0  0  0  0  0  0  0  0  0  0  0  0
    5.0553   -0.9801    8.7485 C   0  0  0  0  0  0  0  0  0  0  0  0
    5.6222   -0.9482    7.3042 C   0  0  0  0  0  0  0  0  0  0  0  0
    4.8600    0.2138    6.0486 S   0  0  0  0  0  0  0  0  0  0  0  0
    5.9659    0.5158    5.0416 O   0  0  0  0  0  0  0  0  0  0  0  0
    3.3753   -0.6093    5.2405 C   0  0  2  0  0  0  0  0  0  0  0  0
    3.7514   -0.7966    3.7135 C   0  0  0  0  0  0  0  0  0  0  0  0
    3.7278   -2.2214    3.2793 C   0  0  2  0  0  0  0  0  0  0  0  0
    5.0113   -3.0096    3.3927 C   0  0  0  0  0  0  0  0  0  0  0  0
    2.8434   -2.5215    2.1959 O   0  0  0  0  0  0  0  0  0  0  0  0
    2.4215   -2.8462    3.5224 C   0  0  2  0  0  0  0  0  0  0  0  0
    1.3381   -2.0092    4.1800 C   0  0  2  0  0  0  0  0  0  0  0  0
    0.7717   -0.7474    3.5764 O   0  0  0  0  0  0  0  0  0  0  0  0
   -0.5191   -0.0807    4.0132 C   0  0  2  0  0  0  0  0  0  0  0  0
   -0.6377    1.4700    4.4193 C   0  0  1  0  0  0  0  0  0  0  0  0
   -1.1608    1.8136    5.7521 O   0  0  0  0  0  0  0  0  0  0  0  0
   -0.8080    2.8593    6.7113 C   0  0  1  0  0  0  0  0  0  0  0  0
   -2.1191    3.6560    6.7850 C   0  0  0  0  0  0  0  0  0  0  0  0
   -0.3695    2.4195    8.1979 C   0  0  0  0  0  0  0  0  0  0  0  0
    1.1469    1.9365    8.6250 C   0  0  2  0  0  0  0  0  0  0  0  0
    1.2368    2.7414    9.7969 O   0  0  0  0  0  0  0  0  0  0  0  0
    2.0754    2.7286    7.7074 C   0  0  0  0  0  0  0  0  0  0  0  0
    2.3196    2.5776    6.1686 C   0  0  1  0  0  0  0  0  0  0  0  0
    3.6484    3.1519    6.0933 O   0  0  0  0  0  0  0  0  0  0  0  0
    3.9033    4.4618    5.7480 C   0  0  0  0  0  0  0  0  0  0  0  0
    2.7190    5.3753    5.3458 C   0  0  0  0  0  0  0  0  0  0  0  0
    5.0527    4.8941    5.7213 O   0  0  0  0  0  0  0  0  0  0  0  0
    1.8759    1.4753    5.0299 C   0  0  2  0  0  0  0  0  0  0  0  0
    3.0199    1.8923    3.9811 C   0  0  0  0  0  0  0  0  0  0  0  0
    0.6726    2.0602    4.0761 C   0  0  1  0  0  0  0  0  0  0  0  0
    0.7499    1.9591    2.4935 C   0  0  0  0  0  0  0  0  0  0  0  0
    0.4880    3.4742    4.0518 O   0  0  0  0  0  0  0  0  0  0  0  0
    1.7901   -0.0855    5.8137 C   0  0  2  0  0  0  0  0  0  0  0  0
    0.1470   -0.6581    6.2385 C   0  0  2  0  0  0  0  0  0  0  0  0
   -0.3483    0.0558    7.2271 O   0  0  0  0  0  0  0  0  0  0  0  0
    0.0140   -1.8365    6.9308 O   0  0  0  0  0  0  0  0  0  0  0  0
    0.6270   -2.7387    6.1806 C   0  0  0  0  0  0  0  0  0  0  0  0
    1.6735   -1.6543    5.7389 C   0  0  1  0  0  0  0  0  0  0  0  0
    2.4367   -1.8867    7.2678 C   0  0  1  0  0  0  0  0  0  0  0  0
    3.4095   -2.9284    7.2520 O   0  0  0  0  0  0  0  0  0  0  0  0
    2.6256   -0.6158    8.3750 C   0  0  0  0  0  0  0  0  0  0  0  0
    3.9239    0.0625    8.9527 C   0  0  2  0  0  0  0  0  0  0  0  0
    4.4576    1.3403    8.5665 O   0  0  0  0  0  0  0  0  0  0  0  0
    5.6332    1.8799    9.0753 C   0  0  0  0  0  0  0  0  0  0  0  0
    5.9785    3.2285    8.4776 C   0  0  0  0  0  0  0  0  0  0  0  0
    6.3526    1.3749    9.9423 O   0  0  0  0  0  0  0  0  0  0  0  0
    3.0269    0.3835   10.2433 C   0  0  0  0  0  0  0  0  0  0  0  0
    3.0677   -0.6647   11.4067 C   0  0  0  0  0  0  0  0  0  0  0  0
    3.3886    1.6311   11.1116 C   0  0  0  0  0  0  0  0  0  0  0  0
    1.6805    0.4342    9.2494 C   0  0  1  0  0  0  0  0  0  0  0  0
    0.4795   -0.2607    9.9896 C   0  0  0  0  0  0  0  0  0  0  0  0
    0.0727   -1.3846    9.6942 O   0  0  0  0  0  0  0  0  0  0  0  0
   -0.2017    0.3623   11.2254 C   0  0  0  0  0  0  0  0  0  0  0  0
   -1.0322    1.4703   10.9424 O   0  0  0  0  0  0  0  0  0  0  0  0
   -1.0104   -0.8137    5.1773 C   0  0  1  0  0  0  0  0  0  0  0  0
   -2.3216   -0.5174    5.6312 O   0  0  0  0  0  0  0  0  0  0  0  0
    5.2611   -1.8609   10.6831 H   0  0  0  0  0  0  0  0  0  0  0  0
    6.3924   -2.4560    9.3845 H   0  0  0  0  0  0  0  0  0  0  0  0
    6.6539   -0.6142    7.4194 H   0  0  0  0  0  0  0  0  0  0  0  0
    5.7313   -1.9465    6.8909 H   0  0  0  0  0  0  0  0  0  0  0  0
    3.8153   -1.5774    5.4839 H   0  0  0  0  0  0  0  0  0  0  0  0
    3.0106   -0.3922    3.0469 H   0  0  0  0  0  0  0  0  0  0  0  0
    4.6936   -0.3613    3.3935 H   0  0  0  0  0  0  0  0  0  0  0  0
    5.3309   -3.0830    4.4337 H   0  0  0  0  0  0  0  0  0  0  0  0
    5.8051   -2.5415    2.8035 H   0  0  0  0  0  0  0  0  0  0  0  0
    4.8612   -4.0209    3.0132 H   0  0  0  0  0  0  0  0  0  0  0  0
    2.4102   -3.9056    3.7517 H   0  0  0  0  0  0  0  0  0  0  0  0
    0.5029   -2.6524    3.8963 H   0  0  0  0  0  0  0  0  0  0  0  0
   -1.2403   -0.2459    3.2177 H   0  0  0  0  0  0  0  0  0  0  0  0
   -1.4139    1.8979    3.7723 H   0  0  0  0  0  0  0  0  0  0  0  0
   -0.1312    3.6091    6.3397 H   0  0  0  0  0  0  0  0  0  0  0  0
   -2.0268    4.5281    7.4378 H   0  0  0  0  0  0  0  0  0  0  0  0
   -2.9419    3.0509    7.1608 H   0  0  0  0  0  0  0  0  0  0  0  0
   -2.3971    4.0196    5.7947 H   0  0  0  0  0  0  0  0  0  0  0  0
   -0.6060    3.3181    8.7683 H   0  0  0  0  0  0  0  0  0  0  0  0
   -1.1555    1.7587    8.5627 H   0  0  0  0  0  0  0  0  0  0  0  0
    0.8828    3.6033    9.6344 H   0  0  0  0  0  0  0  0  0  0  0  0
    1.7001    3.7547    7.7393 H   0  0  0  0  0  0  0  0  0  0  0  0
    2.9781    2.9560    8.2496 H   0  0  0  0  0  0  0  0  0  0  0  0
    1.7210    3.3450    5.8788 H   0  0  0  0  0  0  0  0  0  0  0  0
    1.7575    5.0602    5.7216 H   0  0  0  0  0  0  0  0  0  0  0  0
    2.6878    5.4225    4.2464 H   0  0  0  0  0  0  0  0  0  0  0  0
    2.9365    6.4093    5.6840 H   0  0  0  0  0  0  0  0  0  0  0  0
    3.0073    1.5168    2.9688 H   0  0  0  0  0  0  0  0  0  0  0  0
    4.0547    1.7891    4.2599 H   0  0  0  0  0  0  0  0  0  0  0  0
    2.9431    2.9581    3.7594 H   0  0  0  0  0  0  0  0  0  0  0  0
    1.0472    0.9911    2.1032 H   0  0  0  0  0  0  0  0  0  0  0  0
    1.4296    2.6921    2.0482 H   0  0  0  0  0  0  0  0  0  0  0  0
   -0.2048    2.1747    2.0177 H   0  0  0  0  0  0  0  0  0  0  0  0
    0.2131    3.7266    3.1770 H   0  0  0  0  0  0  0  0  0  0  0  0
    0.3599    0.1721    7.8358 H   0  0  0  0  0  0  0  0  0  0  0  0
    0.9491   -3.6470    6.6921 H   0  0  0  0  0  0  0  0  0  0  0  0
   -0.1280   -3.2215    5.5820 H   0  0  0  0  0  0  0  0  0  0  0  0
    1.8577   -2.5214    7.9426 H   0  0  0  0  0  0  0  0  0  0  0  0
    4.1739   -2.6131    6.7967 H   0  0  0  0  0  0  0  0  0  0  0  0
    2.6324   -1.4073    9.1143 H   0  0  0  0  0  0  0  0  0  0  0  0
    5.1025    3.8801    8.4894 H   0  0  0  0  0  0  0  0  0  0  0  0
    6.3105    3.1122    7.4447 H   0  0  0  0  0  0  0  0  0  0  0  0
    6.7664    3.7206    9.0493 H   0  0  0  0  0  0  0  0  0  0  0  0
    2.3341   -0.4489   12.1846 H   0  0  0  0  0  0  0  0  0  0  0  0
    4.0225   -0.6568   11.9352 H   0  0  0  0  0  0  0  0  0  0  0  0
    2.8961   -1.6937   11.1211 H   0  0  0  0  0  0  0  0  0  0  0  0
    2.6281    1.8478   11.8663 H   0  0  0  0  0  0  0  0  0  0  0  0
    3.4904    2.5313   10.5331 H   0  0  0  0  0  0  0  0  0  0  0  0
    4.3396    1.5313   11.6377 H   0  0  0  0  0  0  0  0  0  0  0  0
   -0.8784   -0.3933   11.6085 H   0  0  0  0  0  0  0  0  0  0  0  0
    0.5037    0.5977   12.0291 H   0  0  0  0  0  0  0  0  0  0  0  0
   -1.5582    1.6556   11.7195 H   0  0  0  0  0  0  0  0  0  0  0  0
   -1.2081   -1.8112    4.8051 H   0  0  0  0  0  0  0  0  0  0  0  0
   -2.8444   -0.2499    4.8894 H   0  0  0  0  0  0  0  0  0  0  0  0
  1  2  2  0
  1 57  1  0
  1 58  1  0
  2 42  1  0
  2  3  1  0
  4  3  1  1
  3 59  1  0
  3 60  1  0
  4  5  2  0
  4  6  1  0
  6 33  1  0
  6  7  1  0
  6 61  1  1
  7  8  1  0
  7 62  1  0
  7 63  1  0
  8 11  1  0
  8  9  1  6
  8 10  1  0
  9 64  1  0
  9 65  1  0
  9 66  1  0
 10 11  1  0
 11 12  1  0
 11 67  1  6
 12 38  1  0
 12 13  1  0
 12 68  1  1
 13 14  1  0
 14 55  1  0
 14 15  1  0
 14 69  1  6
 15 30  1  0
 15 16  1  0
 15 70  1  6
 16 17  1  0
 17 18  1  0
 17 19  1  0
 17 71  1  6
 18 72  1  0
 18 73  1  0
 18 74  1  0
 19 20  1  0
 19 75  1  0
 19 76  1  0
 20 50  1  0
 20 21  1  1
 20 22  1  0
 21 77  1  0
 22 23  1  0
 22 78  1  0
 22 79  1  0
 23 24  1  0
 23 28  1  0
 23 80  1  6
 24 25  1  0
 25 26  1  0
 25 27  2  0
 26 81  1  0
 26 82  1  0
 26 83  1  0
 28 29  1  6
 28 30  1  0
 28 33  1  0
 29 84  1  0
 29 85  1  0
 29 86  1  0
 30 31  1  0
 30 32  1  6
 31 87  1  0
 31 88  1  0
 31 89  1  0
 32 90  1  0
 33 38  1  0
 33 34  1  1
 34 35  1  1
 34 36  1  0
 34 55  1  0
 35 91  1  0
 36 37  1  0
 38 37  1  1
 37 92  1  0
 37 93  1  0
 38 39  1  0
 39 40  1  0
 39 41  1  0
 39 94  1  1
 40 95  1  0
 41 50  1  0
 41 42  1  0
 41 96  1  0
 42 43  1  6
 42 47  1  0
 43 44  1  0
 44 45  1  0
 44 46  2  0
 45 97  1  0
 45 98  1  0
 45 99  1  0
 47 48  1  0
 47 49  1  0
 47 50  1  0
 48100  1  0
 48101  1  0
 48102  1  0
 49103  1  0
 49104  1  0
 49105  1  0
 50 51  1  1
 51 52  2  0
 51 53  1  0
 53 54  1  0
 53106  1  0
 53107  1  0
 54108  1  0
 55 56  1  0
 55109  1  6
 56110  1  0
M  END
>  <i_m_ct_stereo_status>  (97) 
1

>  <s_m_source_file>  (97) 
/var/tmp/pbs.5075288.sched01/tmp_km6m70o/128goojv9vu.sdf

>  <i_m_source_file_index>  (97) 
53

>  <i_lp_mmshare_version>  (97) 
48012

>  <i_f3d_flags>  (97) 
0

>  <s_epik_input>  (97) 
W0NAQF0xMjNbQ0BdNDVbQ0BASF02W0NAQEhdN1tDQF0oTzcpKFtDSDNdKVtDSDJdW0NASF0xW1MrXShbTy1dKVtDSDJdQyg9W0NIMl0pW0NAQF04KE9DKD1PKVtDSDNdKVtDQEBIXShbQ0BASF01W09IXSlbQ0BdKEM4KFtDSDNdKVtDSDNdKShDKD1PKVtDSDJdW09IXSlbQ0BdOShbT0hdKVtDSDJdW0NASF0oW0NIM10pT1tDQEhdKFtDQEBIXShPNilbQ0BIXShbT0hdKVtDQEBdMyhbT0hdKU9bQ0gyXTQpW0NAQF0oW0NIM10pKFtPSF0pW0NAQF0yKFtDSDNdKVtDQEBIXShbQ0gyXTkpT0MoPU8pW0NIM10=

>  <s_epik_cmdline>  (97) 
J2VwaWtfcHl0aG9uJywgJy1waHQnLCAnMi4wJywgJy1waCcsICc3LjAnLCAnLXRuJywgJzgnLCAnLW1hJywgJzIwMCcsICctaW1hZScsICc8aW5maWxlLm1hZT4nLCAnLW9tYWUnLCAnPG91dGZpbGUubWFlPic=

>  <r_lp_tautomer_probability>  (97) 
1

>  <r_epik_Ionization_Penalty>  (97) 
8.49e-06

>  <r_epik_Ionization_Penalty_Charging>  (97) 
0

>  <r_epik_Ionization_Penalty_Neutral>  (97) 
8.49e-06

>  <r_epik_State_Penalty>  (97) 
-0

>  <r_epik_Charging_Adjusted_Penalty>  (97) 
0

>  <i_epik_Tot_Q>  (97) 
0

>  <i_epik_Tot_abs_Q>  (97) 
2

>  <s_epik_Chemistry_Notes>  (97) 
This compound has an ester and may undergo hydrolysis at high or low pH.

>  <s_lp_Force_Field>  (97) 
OPLS3e

>  <r_lp_Energy>  (97) 
760.575

>  <b_lp_Chiralities_Consistent>  (97) 
1

>  <s_lp_Variant>  (97) 
64:0-2

>  <s_i_glide_gridfile>  (97) 
pfpi4k_grid

>  <i_i_glide_lignum>  (97) 
53

>  <i_i_glide_rotatable_bonds>  (97) 
12

>  <r_i_docking_score>  (97) 
-3.66118

>  <r_i_glide_ligand_efficiency>  (97) 
-0.0653782

>  <r_i_glide_ligand_efficiency_sa>  (97) 
-0.250128

>  <r_i_glide_ligand_efficiency_ln>  (97) 
-0.728542

>  <r_i_glide_gscore>  (97) 
-3.66118

>  <r_i_glide_lipo>  (97) 
-0.143323

>  <r_i_glide_hbond>  (97) 
-0.0947572

>  <r_i_glide_metal>  (97) 
-0

>  <r_i_glide_rewards>  (97) 
-0.0146672

>  <r_i_glide_evdw>  (97) 
-26.2821

>  <r_i_glide_ecoul>  (97) 
-14.5131

>  <r_i_glide_erotb>  (97) 
0.132674

>  <r_i_glide_esite>  (97) 
-0.0500436

>  <r_i_glide_emodel>  (97) 
-44.2667

>  <r_i_glide_energy>  (97) 
-40.7951

>  <r_i_glide_einternal>  (97) 
9.42277

>  <r_i_glide_intrahb_reward>  (97) 
-0

>  <i_i_glide_confnum>  (97) 
1

>  <i_i_glide_posenum>  (97) 
11

>  <r_i_glide_eff_state_penalty>  (97) 
0

>  <ligand_id>  (97) 
64

>  <original_smiles>  (97) 
C=C1C[S+]([O-])C2CC3(C)OC3C3OC4C5OC(C)CC6(O)CC(OC(C)=O)C(C)(C5(C)O)C25C(O)(OCC35C(O)C2C1(OC(C)=O)C(C)(C)C26C(=O)CO)C4O

>  <smiles>  (97) 
[H]OC([H])([H])C(=O)C12C3([H])C([H])(O[H])C45C([H])([H])OC6(O[H])C([H])(O[H])C7([H])OC4([H])C4([H])OC4(C([H])([H])[H])C([H])([H])C([H])(S(=O)C([H])([H])C(=C([H])[H])C3(OC(=O)C([H])([H])[H])C1(C([H])([H])[H])C([H])([H])[H])C65C1(C([H])([H])[H])C([H])(OC(=O)C([H])([H])[H])C([H])([H])C2(O[H])C([H])([H])C([H])(C([H])([H])[H])OC7([H])C1(O[H])C([H])([H])[H]

$$$$
66:0:0
     RDKit          3D

 96102  0  0  1  0  0  0  0  0999 V2000
    2.9670   -1.2064   -3.4074 C   0  0  0  0  0  0  0  0  0  0  0  0
    3.7129   -2.3097   -2.6743 C   0  0  0  0  0  0  0  0  0  0  0  0
    3.7415   -3.4521   -3.1331 O   0  0  0  0  0  0  0  0  0  0  0  0
    4.2642   -1.8873   -1.5357 O   0  0  0  0  0  0  0  0  0  0  0  0
    4.7584   -2.7598   -0.5090 C   0  0  2  0  0  0  0  0  0  0  0  0
    5.6892   -3.8860   -0.9697 C   0  0  0  0  0  0  0  0  0  0  0  0
    6.3009   -4.6419    0.2134 C   0  0  1  0  0  0  0  0  0  0  0  0
    7.1999   -3.8591    1.0116 O   0  0  0  0  0  0  0  0  0  0  0  0
    8.2182   -3.1652    0.4541 C   0  0  0  0  0  0  0  0  0  0  0  0
    9.5636   -3.6031    1.0150 C   0  0  0  0  0  0  0  0  0  0  0  0
    8.1331   -2.2827   -0.3964 O   0  0  0  0  0  0  0  0  0  0  0  0
    5.2223   -5.3386    1.1211 C   0  0  2  0  0  0  0  0  0  0  0  0
    4.4210   -6.3455    0.2466 C   0  0  0  0  0  0  0  0  0  0  0  0
    4.3067   -4.1297    1.6426 C   0  0  2  0  0  0  0  0  0  0  0  0
    3.2601   -4.5389    2.5297 O   0  0  0  0  0  0  0  0  0  0  0  0
    3.0519   -3.7783    3.7395 C   0  0  2  0  0  0  0  0  0  0  0  0
    4.2571   -3.5205    4.4897 O   0  0  0  0  0  0  0  0  0  0  0  0
    3.7206   -4.1292    5.6698 C   0  0  2  0  0  0  0  0  0  0  0  0
    4.8599   -4.8291    6.4982 C   0  0  0  0  0  0  0  0  0  0  0  0
    6.2472   -5.2419    5.8047 C   0  0  1  0  0  0  0  0  0  0  0  0
    7.2612   -4.7071    6.6492 O   0  0  0  0  0  0  0  0  0  0  0  0
    6.6067   -6.7705    5.6210 C   0  0  0  0  0  0  0  0  0  0  0  0
    6.4701   -7.6186    4.2670 C   0  0  2  0  0  0  0  0  0  0  0  0
    8.0686   -7.5505    3.3279 S   0  0  0  0  0  0  0  0  0  0  0  0
    8.9403   -6.4481    3.9680 O   0  0  0  0  0  0  0  0  0  0  0  0
    7.3486   -6.8027    1.8061 C   0  0  0  0  0  0  0  0  0  0  0  0
    5.9887   -6.2031    2.2530 C   0  0  2  0  0  0  0  0  0  0  0  0
    5.3397   -7.3329    3.2016 C   0  0  2  0  0  0  0  0  0  0  0  0
    4.2506   -6.7921    4.0065 C   0  0  0  0  0  0  0  0  0  0  0  0
    3.5076   -7.6982    5.0057 C   0  0  1  0  0  0  0  0  0  0  0  0
    3.7096   -7.5419    6.3803 O   0  0  0  0  0  0  0  0  0  0  0  0
    2.0666   -7.4730    4.6698 C   0  0  2  0  0  0  0  0  0  0  0  0
    1.1737   -8.3480    5.6039 C   0  0  0  0  0  0  0  0  0  0  0  0
    1.8636   -8.0372    3.2116 C   0  0  1  0  0  0  0  0  0  0  0  0
    1.1693   -6.8957    2.4458 C   0  0  0  0  0  0  0  0  0  0  0  0
    0.6284   -5.9099    3.4921 C   0  0  0  0  0  0  0  0  0  0  0  0
    1.5530   -5.9455    4.7327 C   0  0  2  0  0  0  0  0  0  0  0  0
    2.3664   -4.5308    4.9286 C   0  0  2  0  0  0  0  0  0  0  0  0
    1.2245   -3.6440    5.4904 C   0  0  0  0  0  0  0  0  0  0  0  0
    3.0437   -8.8578    2.4744 C   0  0  1  0  0  0  0  0  0  0  0  0
    2.6413   -9.0619    1.1513 O   0  0  0  0  0  0  0  0  0  0  0  0
    4.6563   -8.6276    2.5589 C   0  0  1  0  0  0  0  0  0  0  0  0
    5.2983   -9.0884    1.3774 O   0  0  0  0  0  0  0  0  0  0  0  0
    3.6722   -3.2010    0.5227 C   0  0  1  0  0  0  0  0  0  0  0  0
    2.9734   -1.9584    1.0957 C   0  0  0  0  0  0  0  0  0  0  0  0
    2.6856   -3.9463   -0.1714 O   0  0  0  0  0  0  0  0  0  0  0  0
    2.2413   -0.7451   -2.7403 H   0  0  0  0  0  0  0  0  0  0  0  0
    2.4192   -1.6552   -4.2270 H   0  0  0  0  0  0  0  0  0  0  0  0
    3.6251   -0.4341   -3.8089 H   0  0  0  0  0  0  0  0  0  0  0  0
    5.3954   -2.0896    0.0726 H   0  0  0  0  0  0  0  0  0  0  0  0
    5.2167   -4.6291   -1.6006 H   0  0  0  0  0  0  0  0  0  0  0  0
    6.4476   -3.4641   -1.6297 H   0  0  0  0  0  0  0  0  0  0  0  0
    6.9043   -5.4181   -0.2301 H   0  0  0  0  0  0  0  0  0  0  0  0
    9.6950   -4.6741    0.8092 H   0  0  0  0  0  0  0  0  0  0  0  0
    9.5906   -3.4726    2.0773 H   0  0  0  0  0  0  0  0  0  0  0  0
   10.3649   -3.0159    0.5432 H   0  0  0  0  0  0  0  0  0  0  0  0
    3.6292   -6.8026    0.8189 H   0  0  0  0  0  0  0  0  0  0  0  0
    5.0217   -7.1368   -0.1727 H   0  0  0  0  0  0  0  0  0  0  0  0
    3.9276   -5.9099   -0.6147 H   0  0  0  0  0  0  0  0  0  0  0  0
    4.9932   -3.4878    2.2070 H   0  0  0  0  0  0  0  0  0  0  0  0
    2.5349   -2.8441    3.5319 H   0  0  0  0  0  0  0  0  0  0  0  0
    3.4094   -3.3106    6.3324 H   0  0  0  0  0  0  0  0  0  0  0  0
    5.1426   -4.0668    7.2170 H   0  0  0  0  0  0  0  0  0  0  0  0
    4.4790   -5.5546    7.1926 H   0  0  0  0  0  0  0  0  0  0  0  0
    6.3769   -4.6960    4.8773 H   0  0  0  0  0  0  0  0  0  0  0  0
    7.2310   -5.1558    7.4687 H   0  0  0  0  0  0  0  0  0  0  0  0
    7.6493   -6.8941    5.9232 H   0  0  0  0  0  0  0  0  0  0  0  0
    6.1168   -7.3300    6.4160 H   0  0  0  0  0  0  0  0  0  0  0  0
    6.3774   -8.6496    4.6042 H   0  0  0  0  0  0  0  0  0  0  0  0
    8.0761   -6.0837    1.4458 H   0  0  0  0  0  0  0  0  0  0  0  0
    7.2487   -7.5502    1.0234 H   0  0  0  0  0  0  0  0  0  0  0  0
    6.2931   -5.4106    2.9300 H   0  0  0  0  0  0  0  0  0  0  0  0
    4.5361   -5.8590    4.3547 H   0  0  0  0  0  0  0  0  0  0  0  0
    3.6115   -6.5119    3.2098 H   0  0  0  0  0  0  0  0  0  0  0  0
    3.7451   -8.7545    4.8942 H   0  0  0  0  0  0  0  0  0  0  0  0
    3.2633   -8.2505    6.8094 H   0  0  0  0  0  0  0  0  0  0  0  0
    0.1180   -8.3059    5.3033 H   0  0  0  0  0  0  0  0  0  0  0  0
    1.2186   -8.0246    6.6502 H   0  0  0  0  0  0  0  0  0  0  0  0
    1.4783   -9.4030    5.5647 H   0  0  0  0  0  0  0  0  0  0  0  0
    1.0659   -8.7808    3.2801 H   0  0  0  0  0  0  0  0  0  0  0  0
    1.8485   -6.3665    1.7884 H   0  0  0  0  0  0  0  0  0  0  0  0
    0.3705   -7.2738    1.8093 H   0  0  0  0  0  0  0  0  0  0  0  0
    0.5299   -4.9113    3.0768 H   0  0  0  0  0  0  0  0  0  0  0  0
   -0.3719   -6.2325    3.8016 H   0  0  0  0  0  0  0  0  0  0  0  0
    0.8715   -5.9683    5.5762 H   0  0  0  0  0  0  0  0  0  0  0  0
    0.9431   -3.9315    6.5033 H   0  0  0  0  0  0  0  0  0  0  0  0
    0.3243   -3.6457    4.8817 H   0  0  0  0  0  0  0  0  0  0  0  0
    1.5185   -2.5909    5.5482 H   0  0  0  0  0  0  0  0  0  0  0  0
    2.9316   -9.8615    2.8851 H   0  0  0  0  0  0  0  0  0  0  0  0
    3.0615   -9.8308    0.8297 H   0  0  0  0  0  0  0  0  0  0  0  0
    4.9590   -9.4283    3.2321 H   0  0  0  0  0  0  0  0  0  0  0  0
    5.0341   -9.9775    1.2128 H   0  0  0  0  0  0  0  0  0  0  0  0
    3.5753   -1.4410    1.8440 H   0  0  0  0  0  0  0  0  0  0  0  0
    2.0118   -2.2098    1.5456 H   0  0  0  0  0  0  0  0  0  0  0  0
    2.7444   -1.2249    0.3289 H   0  0  0  0  0  0  0  0  0  0  0  0
    3.1070   -4.4170   -0.8703 H   0  0  0  0  0  0  0  0  0  0  0  0
  1  2  1  0
  1 47  1  0
  1 48  1  0
  1 49  1  0
  2  3  2  0
  2  4  1  0
  4  5  1  0
  5 44  1  0
  5  6  1  0
  5 50  1  1
  6  7  1  0
  6 51  1  0
  6 52  1  0
  7  8  1  0
  7 12  1  0
  7 53  1  6
  8  9  1  0
  9 10  1  0
  9 11  2  0
 10 54  1  0
 10 55  1  0
 10 56  1  0
 12 27  1  0
 12 13  1  6
 12 14  1  0
 13 57  1  0
 13 58  1  0
 13 59  1  0
 14 15  1  0
 14 44  1  0
 14 60  1  1
 15 16  1  0
 16 38  1  0
 16 17  1  0
 16 61  1  6
 17 18  1  0
 18 38  1  0
 18 19  1  0
 18 62  1  1
 19 20  1  0
 19 63  1  0
 19 64  1  0
 20 21  1  0
 20 22  1  0
 20 65  1  6
 21 66  1  0
 22 23  1  0
 22 67  1  0
 22 68  1  0
 23 28  1  0
 23 24  1  0
 23 69  1  1
 24 25  2  0
 24 26  1  6
 26 27  1  0
 26 70  1  0
 26 71  1  0
 27 28  1  0
 27 72  1  1
 28 42  1  0
 28 29  1  1
 29 30  1  0
 29 73  1  0
 29 74  1  0
 30 31  1  0
 30 32  1  0
 30 75  1  6
 31 76  1  0
 32 37  1  0
 32 33  1  1
 32 34  1  0
 33 77  1  0
 33 78  1  0
 33 79  1  0
 34 35  1  0
 34 40  1  0
 34 80  1  1
 35 36  1  0
 35 81  1  0
 35 82  1  0
 36 37  1  0
 36 83  1  0
 36 84  1  0
 37 38  1  0
 37 85  1  1
 38 39  1  1
 39 86  1  0
 39 87  1  0
 39 88  1  0
 40 41  1  0
 40 42  1  0
 40 89  1  1
 41 90  1  0
 42 43  1  0
 42 91  1  1
 43 92  1  0
 44 45  1  0
 44 46  1  6
 45 93  1  0
 45 94  1  0
 45 95  1  0
 46 96  1  0
M  END
>  <i_m_ct_stereo_status>  (98) 
1

>  <s_m_source_file>  (98) 
/var/tmp/pbs.5075288.sched01/tmp_km6m70o/128goojv9vu.sdf

>  <i_m_source_file_index>  (98) 
58

>  <i_lp_mmshare_version>  (98) 
48012

>  <i_f3d_flags>  (98) 
0

>  <s_epik_input>  (98) 
W0NIM11DKD1PKU9bQ0BASF0oW0NAQF0xKFtDSDNdKVtPSF0pW0NIMl1bQ0BASF0oT0MoPU8pW0NIM10pW0NAQF0oW0NIM10pKFtDQEBIXTJbQ0gyXVtTK10zW08tXSlbQ0BASF0xT1tDQEhdKE80KVtDQF0oW0NIM10pKFtDQEhdNFtDSDJdW0NAQEhdKFtPSF0pW0NIMl1bQ0BIXTNbQ0BdMjU2KVtDQEBIXTdbQ0BdKFtDSDNdKShbQ0BASF0oW0NIMl01KVtPSF0pW0NAQEhdKFtDSDJdW0NIMl03KVtDQEBIXShbT0hdKVtDQEhdNltPSF0=

>  <s_epik_cmdline>  (98) 
J2VwaWtfcHl0aG9uJywgJy1waHQnLCAnMi4wJywgJy1waCcsICc3LjAnLCAnLXRuJywgJzgnLCAnLW1hJywgJzIwMCcsICctaW1hZScsICc8aW5maWxlLm1hZT4nLCAnLW9tYWUnLCAnPG91dGZpbGUubWFlPic=

>  <r_lp_tautomer_probability>  (98) 
1

>  <r_epik_Ionization_Penalty>  (98) 
2.90293e-06

>  <r_epik_Ionization_Penalty_Charging>  (98) 
0

>  <r_epik_Ionization_Penalty_Neutral>  (98) 
2.90293e-06

>  <r_epik_State_Penalty>  (98) 
-0

>  <r_epik_Charging_Adjusted_Penalty>  (98) 
0

>  <i_epik_Tot_Q>  (98) 
0

>  <i_epik_Tot_abs_Q>  (98) 
2

>  <s_epik_Chemistry_Notes>  (98) 
This compound has an ester and may undergo hydrolysis at high or low pH. This compound contains an acetal/aminal-like group ( X-CH(R)-Y where X, Y are N, S, or O) that may be acid/base labile, releasing an aldehyde.

>  <s_lp_Force_Field>  (98) 
OPLS3e

>  <r_lp_Energy>  (98) 
196.75

>  <b_lp_Chiralities_Consistent>  (98) 
1

>  <s_lp_Variant>  (98) 
66:0-1

>  <s_i_glide_gridfile>  (98) 
pfpi4k_grid

>  <i_i_glide_lignum>  (98) 
58

>  <i_i_glide_rotatable_bonds>  (98) 
9

>  <r_i_docking_score>  (98) 
-3.06634

>  <r_i_glide_ligand_efficiency>  (98) 
-0.0666595

>  <r_i_glide_ligand_efficiency_sa>  (98) 
-0.238844

>  <r_i_glide_ligand_efficiency_ln>  (98) 
-0.635031

>  <r_i_glide_gscore>  (98) 
-3.06634

>  <r_i_glide_lipo>  (98) 
-0.492273

>  <r_i_glide_hbond>  (98) 
-0.112236

>  <r_i_glide_metal>  (98) 
-0

>  <r_i_glide_rewards>  (98) 
-0.327117

>  <r_i_glide_evdw>  (98) 
-33.366

>  <r_i_glide_ecoul>  (98) 
-3.64774

>  <r_i_glide_erotb>  (98) 
0.0947656

>  <r_i_glide_esite>  (98) 
-0.0140172

>  <r_i_glide_emodel>  (98) 
-33.8437

>  <r_i_glide_energy>  (98) 
-37.0137

>  <r_i_glide_einternal>  (98) 
19.7988

>  <r_i_glide_intrahb_reward>  (98) 
-0

>  <i_i_glide_confnum>  (98) 
3

>  <i_i_glide_posenum>  (98) 
34

>  <r_i_glide_eff_state_penalty>  (98) 
0

>  <ligand_id>  (98) 
66

>  <original_smiles>  (98) 
CC(=O)OC1CC(OC(C)=O)C2(C)C(OC3OC4CC(O)CC5[S+]([O-])CC2C52CC(O)C5(C)C(CCC5C43C)C(O)C2O)C1(C)O

>  <smiles>  (98) 
[H]OC1([H])C([H])([H])C2([H])OC3([H])OC4([H])C(O[H])(C([H])([H])[H])C([H])(OC(=O)C([H])([H])[H])C([H])([H])C([H])(OC(=O)C([H])([H])[H])C4(C([H])([H])[H])C4([H])C([H])([H])S(=O)C([H])(C1([H])[H])C41C([H])([H])C([H])(O[H])C4(C([H])([H])[H])C([H])(C([H])([H])C([H])([H])C4([H])C32C([H])([H])[H])C([H])(O[H])C1([H])O[H]

$$$$
66:0:1
     RDKit          3D

 96102  0  0  1  0  0  0  0  0999 V2000
    4.0932   -0.4282    0.5674 C   0  0  0  0  0  0  0  0  0  0  0  0
    4.0657   -1.9073    0.8899 C   0  0  0  0  0  0  0  0  0  0  0  0
    3.2739   -2.6624    0.3293 O   0  0  0  0  0  0  0  0  0  0  0  0
    4.9583   -2.2532    1.8522 O   0  0  0  0  0  0  0  0  0  0  0  0
    5.0829   -3.5922    2.3623 C   0  0  2  0  0  0  0  0  0  0  0  0
    5.3710   -4.6386    1.2682 C   0  0  0  0  0  0  0  0  0  0  0  0
    5.6614   -6.0248    1.8549 C   0  0  1  0  0  0  0  0  0  0  0  0
    6.8936   -5.9302    2.5728 O   0  0  0  0  0  0  0  0  0  0  0  0
    8.1256   -6.0430    1.9989 C   0  0  0  0  0  0  0  0  0  0  0  0
    8.1633   -6.4692    0.5353 C   0  0  0  0  0  0  0  0  0  0  0  0
    9.1723   -5.8638    2.6149 O   0  0  0  0  0  0  0  0  0  0  0  0
    4.5016   -6.6110    2.7370 C   0  0  2  0  0  0  0  0  0  0  0  0
    3.2876   -6.7543    1.7956 C   0  0  0  0  0  0  0  0  0  0  0  0
    4.2816   -5.5103    3.8977 C   0  0  2  0  0  0  0  0  0  0  0  0
    3.2615   -5.8751    4.8365 O   0  0  0  0  0  0  0  0  0  0  0  0
    3.5386   -5.7082    6.2212 C   0  0  2  0  0  0  0  0  0  0  0  0
    4.8186   -6.2463    6.6470 O   0  0  0  0  0  0  0  0  0  0  0  0
    4.1903   -7.0855    7.6494 C   0  0  2  0  0  0  0  0  0  0  0  0
    4.9899   -8.4351    7.7972 C   0  0  0  0  0  0  0  0  0  0  0  0
    5.9743   -8.9528    6.6532 C   0  0  1  0  0  0  0  0  0  0  0  0
    7.2026   -9.2357    7.2955 O   0  0  0  0  0  0  0  0  0  0  0  0
    5.6142  -10.2700    5.8352 C   0  0  0  0  0  0  0  0  0  0  0  0
    4.9694  -10.3142    4.3707 C   0  0  2  0  0  0  0  0  0  0  0  0
    6.3233  -10.4252    3.1048 S   0  0  0  0  0  0  0  0  0  0  0  0
    7.6606  -10.1153    3.7850 O   0  0  0  0  0  0  0  0  0  0  0  0
    5.8389   -8.8732    2.2394 C   0  0  0  0  0  0  0  0  0  0  0  0
    4.9404   -8.0840    3.2206 C   0  0  2  0  0  0  0  0  0  0  0  0
    3.9773   -9.2100    3.8420 C   0  0  2  0  0  0  0  0  0  0  0  0
    3.3226   -8.7405    5.0544 C   0  0  0  0  0  0  0  0  0  0  0  0
    2.3714   -9.6778    5.8268 C   0  0  1  0  0  0  0  0  0  0  0  0
    2.7853  -10.2554    7.0322 O   0  0  0  0  0  0  0  0  0  0  0  0
    1.1454   -8.8231    6.0087 C   0  0  2  0  0  0  0  0  0  0  0  0
    0.0661   -9.6505    6.7727 C   0  0  0  0  0  0  0  0  0  0  0  0
    0.5590   -8.5675    4.5568 C   0  0  1  0  0  0  0  0  0  0  0  0
    0.3626   -7.0426    4.4841 C   0  0  0  0  0  0  0  0  0  0  0  0
    0.4193   -6.5034    5.9227 C   0  0  0  0  0  0  0  0  0  0  0  0
    1.3654   -7.4088    6.7474 C   0  0  2  0  0  0  0  0  0  0  0  0
    2.7240   -6.6183    7.2149 C   0  0  2  0  0  0  0  0  0  0  0  0
    2.1562   -5.7247    8.3524 C   0  0  0  0  0  0  0  0  0  0  0  0
    1.1848   -9.3030    3.2513 C   0  0  1  0  0  0  0  0  0  0  0  0
    0.5966   -8.7056    2.0986 O   0  0  0  0  0  0  0  0  0  0  0  0
    2.7288   -9.7526    2.9853 C   0  0  1  0  0  0  0  0  0  0  0  0
    2.9942   -9.8483    1.5942 O   0  0  0  0  0  0  0  0  0  0  0  0
    4.0210   -4.0267    3.4181 C   0  0  1  0  0  0  0  0  0  0  0  0
    3.9986   -2.9915    4.5665 C   0  0  0  0  0  0  0  0  0  0  0  0
    2.7392   -3.9787    2.8428 O   0  0  0  0  0  0  0  0  0  0  0  0
    3.9203    0.1693    1.4640 H   0  0  0  0  0  0  0  0  0  0  0  0
    3.2795   -0.2414   -0.1255 H   0  0  0  0  0  0  0  0  0  0  0  0
    5.0310   -0.1381    0.0966 H   0  0  0  0  0  0  0  0  0  0  0  0
    6.0096   -3.5277    2.9247 H   0  0  0  0  0  0  0  0  0  0  0  0
    4.5623   -4.7343    0.5476 H   0  0  0  0  0  0  0  0  0  0  0  0
    6.2299   -4.2690    0.7094 H   0  0  0  0  0  0  0  0  0  0  0  0
    5.7378   -6.6967    1.0023 H   0  0  0  0  0  0  0  0  0  0  0  0
    7.5878   -5.7808   -0.0766 H   0  0  0  0  0  0  0  0  0  0  0  0
    7.7550   -7.4720    0.4636 H   0  0  0  0  0  0  0  0  0  0  0  0
    9.1774   -6.5147    0.1261 H   0  0  0  0  0  0  0  0  0  0  0  0
    2.4329   -7.1316    2.3316 H   0  0  0  0  0  0  0  0  0  0  0  0
    3.5036   -7.4339    0.9665 H   0  0  0  0  0  0  0  0  0  0  0  0
    2.9500   -5.8358    1.3283 H   0  0  0  0  0  0  0  0  0  0  0  0
    5.2318   -5.4819    4.4311 H   0  0  0  0  0  0  0  0  0  0  0  0
    3.4635   -4.6642    6.5208 H   0  0  0  0  0  0  0  0  0  0  0  0
    4.3429   -6.5913    8.6011 H   0  0  0  0  0  0  0  0  0  0  0  0
    5.6532   -8.2227    8.6401 H   0  0  0  0  0  0  0  0  0  0  0  0
    4.4007   -9.2043    8.2679 H   0  0  0  0  0  0  0  0  0  0  0  0
    6.2334   -8.1404    5.9806 H   0  0  0  0  0  0  0  0  0  0  0  0
    7.0686   -9.9764    7.8871 H   0  0  0  0  0  0  0  0  0  0  0  0
    6.5232  -10.8636    5.7688 H   0  0  0  0  0  0  0  0  0  0  0  0
    5.0189  -10.9076    6.4827 H   0  0  0  0  0  0  0  0  0  0  0  0
    4.4794  -11.2906    4.3221 H   0  0  0  0  0  0  0  0  0  0  0  0
    6.7844   -8.3921    2.0340 H   0  0  0  0  0  0  0  0  0  0  0  0
    5.3647   -9.0956    1.2867 H   0  0  0  0  0  0  0  0  0  0  0  0
    5.6367   -7.8351    4.0130 H   0  0  0  0  0  0  0  0  0  0  0  0
    4.0166   -8.2170    5.6176 H   0  0  0  0  0  0  0  0  0  0  0  0
    2.7878   -7.9346    4.6160 H   0  0  0  0  0  0  0  0  0  0  0  0
    2.1052  -10.5727    5.2683 H   0  0  0  0  0  0  0  0  0  0  0  0
    2.1710  -10.9625    7.2746 H   0  0  0  0  0  0  0  0  0  0  0  0
   -0.8894   -9.1244    6.8092 H   0  0  0  0  0  0  0  0  0  0  0  0
    0.3625   -9.8592    7.8038 H   0  0  0  0  0  0  0  0  0  0  0  0
   -0.1189  -10.6120    6.2801 H   0  0  0  0  0  0  0  0  0  0  0  0
   -0.4671   -8.9394    4.5724 H   0  0  0  0  0  0  0  0  0  0  0  0
    1.1313   -6.5616    3.8933 H   0  0  0  0  0  0  0  0  0  0  0  0
   -0.5864   -6.7872    4.0112 H   0  0  0  0  0  0  0  0  0  0  0  0
    0.7102   -5.4510    5.9316 H   0  0  0  0  0  0  0  0  0  0  0  0
   -0.5824   -6.5491    6.3573 H   0  0  0  0  0  0  0  0  0  0  0  0
    0.8338   -7.5689    7.6902 H   0  0  0  0  0  0  0  0  0  0  0  0
    1.8831   -6.3094    9.2280 H   0  0  0  0  0  0  0  0  0  0  0  0
    1.2862   -5.1418    8.0555 H   0  0  0  0  0  0  0  0  0  0  0  0
    2.8820   -4.9882    8.6932 H   0  0  0  0  0  0  0  0  0  0  0  0
    0.6832  -10.2694    3.2831 H   0  0  0  0  0  0  0  0  0  0  0  0
    0.5995   -9.3478    1.3956 H   0  0  0  0  0  0  0  0  0  0  0  0
    2.7054  -10.8139    3.2249 H   0  0  0  0  0  0  0  0  0  0  0  0
    3.4121  -10.6770    1.3893 H   0  0  0  0  0  0  0  0  0  0  0  0
    4.8425   -3.1109    5.2438 H   0  0  0  0  0  0  0  0  0  0  0  0
    3.0788   -3.0659    5.1397 H   0  0  0  0  0  0  0  0  0  0  0  0
    4.0299   -1.9720    4.1915 H   0  0  0  0  0  0  0  0  0  0  0  0
    2.6589   -3.1433    2.4022 H   0  0  0  0  0  0  0  0  0  0  0  0
  1  2  1  0
  1 47  1  0
  1 48  1  0
  1 49  1  0
  2  3  2  0
  2  4  1  0
  4  5  1  0
  5 44  1  0
  5  6  1  0
  5 50  1  1
  6  7  1  0
  6 51  1  0
  6 52  1  0
  7  8  1  0
  7 12  1  0
  7 53  1  6
  8  9  1  0
  9 10  1  0
  9 11  2  0
 10 54  1  0
 10 55  1  0
 10 56  1  0
 12 27  1  0
 12 13  1  6
 12 14  1  0
 13 57  1  0
 13 58  1  0
 13 59  1  0
 14 15  1  0
 14 44  1  0
 14 60  1  1
 15 16  1  0
 16 38  1  0
 16 17  1  0
 16 61  1  1
 17 18  1  0
 18 38  1  0
 18 19  1  0
 18 62  1  1
 19 20  1  0
 19 63  1  0
 19 64  1  0
 20 21  1  0
 20 22  1  0
 20 65  1  6
 21 66  1  0
 22 23  1  0
 22 67  1  0
 22 68  1  0
 23 28  1  0
 23 24  1  0
 23 69  1  1
 24 25  2  0
 24 26  1  6
 26 27  1  0
 26 70  1  0
 26 71  1  0
 27 28  1  0
 27 72  1  1
 28 42  1  0
 28 29  1  1
 29 30  1  0
 29 73  1  0
 29 74  1  0
 30 31  1  0
 30 32  1  0
 30 75  1  6
 31 76  1  0
 32 37  1  0
 32 33  1  1
 32 34  1  0
 33 77  1  0
 33 78  1  0
 33 79  1  0
 34 35  1  0
 34 40  1  0
 34 80  1  1
 35 36  1  0
 35 81  1  0
 35 82  1  0
 36 37  1  0
 36 83  1  0
 36 84  1  0
 37 38  1  0
 37 85  1  1
 38 39  1  1
 39 86  1  0
 39 87  1  0
 39 88  1  0
 40 41  1  0
 40 42  1  0
 40 89  1  1
 41 90  1  0
 42 43  1  0
 42 91  1  1
 43 92  1  0
 44 45  1  0
 44 46  1  6
 45 93  1  0
 45 94  1  0
 45 95  1  0
 46 96  1  0
M  END
>  <i_m_ct_stereo_status>  (99) 
1

>  <s_m_source_file>  (99) 
/var/tmp/pbs.5075288.sched01/tmp_km6m70o/128goojv9vu.sdf

>  <i_m_source_file_index>  (99) 
58

>  <i_lp_mmshare_version>  (99) 
48012

>  <i_f3d_flags>  (99) 
0

>  <s_epik_input>  (99) 
W0NIM11DKD1PKU9bQ0BASF0oW0NAQF0xKFtDSDNdKVtPSF0pW0NIMl1bQ0BASF0oT0MoPU8pW0NIM10pW0NAQF0oW0NIM10pKFtDQEBIXTJbQ0gyXVtTK10zW08tXSlbQ0BASF0xT1tDQEhdKE80KVtDQF0oW0NIM10pKFtDQEhdNFtDSDJdW0NAQEhdKFtPSF0pW0NIMl1bQ0BIXTNbQ0BdMjU2KVtDQEBIXTdbQ0BdKFtDSDNdKShbQ0BASF0oW0NIMl01KVtPSF0pW0NAQEhdKFtDSDJdW0NIMl03KVtDQEBIXShbT0hdKVtDQEhdNltPSF0=

>  <s_epik_cmdline>  (99) 
J2VwaWtfcHl0aG9uJywgJy1waHQnLCAnMi4wJywgJy1waCcsICc3LjAnLCAnLXRuJywgJzgnLCAnLW1hJywgJzIwMCcsICctaW1hZScsICc8aW5maWxlLm1hZT4nLCAnLW9tYWUnLCAnPG91dGZpbGUubWFlPic=

>  <r_lp_tautomer_probability>  (99) 
1

>  <r_epik_Ionization_Penalty>  (99) 
2.90293e-06

>  <r_epik_Ionization_Penalty_Charging>  (99) 
0

>  <r_epik_Ionization_Penalty_Neutral>  (99) 
2.90293e-06

>  <r_epik_State_Penalty>  (99) 
-0

>  <r_epik_Charging_Adjusted_Penalty>  (99) 
0

>  <i_epik_Tot_Q>  (99) 
0

>  <i_epik_Tot_abs_Q>  (99) 
2

>  <s_epik_Chemistry_Notes>  (99) 
This compound has an ester and may undergo hydrolysis at high or low pH. This compound contains an acetal/aminal-like group ( X-CH(R)-Y where X, Y are N, S, or O) that may be acid/base labile, releasing an aldehyde.

>  <s_lp_Force_Field>  (99) 
OPLS3e

>  <r_lp_Energy>  (99) 
196.75

>  <b_lp_Chiralities_Consistent>  (99) 
1

>  <s_lp_Variant>  (99) 
66:0-1

>  <s_i_glide_gridfile>  (99) 
pfpi4k_grid

>  <i_i_glide_lignum>  (99) 
58

>  <i_i_glide_rotatable_bonds>  (99) 
9

>  <r_i_docking_score>  (99) 
-3.06312

>  <r_i_glide_ligand_efficiency>  (99) 
-0.0665896

>  <r_i_glide_ligand_efficiency_sa>  (99) 
-0.238594

>  <r_i_glide_ligand_efficiency_ln>  (99) 
-0.634365

>  <r_i_glide_gscore>  (99) 
-3.06312

>  <r_i_glide_lipo>  (99) 
-0.2983

>  <r_i_glide_hbond>  (99) 
-0.144417

>  <r_i_glide_metal>  (99) 
-0

>  <r_i_glide_rewards>  (99) 
0

>  <r_i_glide_evdw>  (99) 
-25.5293

>  <r_i_glide_ecoul>  (99) 
-9.33629

>  <r_i_glide_erotb>  (99) 
0.0947656

>  <r_i_glide_esite>  (99) 
-0.0382616

>  <r_i_glide_emodel>  (99) 
-36.1999

>  <r_i_glide_energy>  (99) 
-34.8656

>  <r_i_glide_einternal>  (99) 
11.9571

>  <r_i_glide_intrahb_reward>  (99) 
-0

>  <i_i_glide_confnum>  (99) 
3

>  <i_i_glide_posenum>  (99) 
7

>  <r_i_glide_eff_state_penalty>  (99) 
0

>  <ligand_id>  (99) 
66

>  <original_smiles>  (99) 
CC(=O)OC1CC(OC(C)=O)C2(C)C(OC3OC4CC(O)CC5[S+]([O-])CC2C52CC(O)C5(C)C(CCC5C43C)C(O)C2O)C1(C)O

>  <smiles>  (99) 
[H]OC1([H])C([H])([H])C2([H])OC3([H])OC4([H])C(O[H])(C([H])([H])[H])C([H])(OC(=O)C([H])([H])[H])C([H])([H])C([H])(OC(=O)C([H])([H])[H])C4(C([H])([H])[H])C4([H])C([H])([H])S(=O)C([H])(C1([H])[H])C41C([H])([H])C([H])(O[H])C4(C([H])([H])[H])C([H])(C([H])([H])C([H])([H])C4([H])C32C([H])([H])[H])C([H])(O[H])C1([H])O[H]

$$$$
66:0:2
     RDKit          3D

 96102  0  0  1  0  0  0  0  0999 V2000
    3.5514   -1.3047   -0.9202 C   0  0  0  0  0  0  0  0  0  0  0  0
    3.5818   -2.6520   -0.2176 C   0  0  0  0  0  0  0  0  0  0  0  0
    2.9209   -3.6223   -0.6230 O   0  0  0  0  0  0  0  0  0  0  0  0
    4.3875   -2.6558    0.8654 O   0  0  0  0  0  0  0  0  0  0  0  0
    4.6082   -3.8239    1.6656 C   0  0  2  0  0  0  0  0  0  0  0  0
    5.1669   -5.0057    0.8596 C   0  0  0  0  0  0  0  0  0  0  0  0
    5.5421   -6.2103    1.7399 C   0  0  1  0  0  0  0  0  0  0  0  0
    6.6781   -5.8419    2.5381 O   0  0  0  0  0  0  0  0  0  0  0  0
    7.9627   -6.0553    2.1680 C   0  0  0  0  0  0  0  0  0  0  0  0
    8.2093   -6.6024    0.7690 C   0  0  0  0  0  0  0  0  0  0  0  0
    8.9228   -5.8660    2.9226 O   0  0  0  0  0  0  0  0  0  0  0  0
    4.3690   -6.7466    2.6374 C   0  0  2  0  0  0  0  0  0  0  0  0
    3.3071   -7.2553    1.6292 C   0  0  0  0  0  0  0  0  0  0  0  0
    3.8888   -5.4838    3.5179 C   0  0  2  0  0  0  0  0  0  0  0  0
    2.8050   -5.7914    4.3955 O   0  0  0  0  0  0  0  0  0  0  0  0
    2.8827   -5.3019    5.7389 C   0  0  2  0  0  0  0  0  0  0  0  0
    4.1437   -5.5531    6.3910 O   0  0  0  0  0  0  0  0  0  0  0  0
    3.5026   -6.2632    7.4793 C   0  0  2  0  0  0  0  0  0  0  0  0
    4.4437   -7.4198    7.9932 C   0  0  0  0  0  0  0  0  0  0  0  0
    5.6219   -8.0042    7.0804 C   0  0  1  0  0  0  0  0  0  0  0  0
    6.7897   -7.9864    7.8982 O   0  0  0  0  0  0  0  0  0  0  0  0
    5.5234   -9.4965    6.5500 C   0  0  0  0  0  0  0  0  0  0  0  0
    5.0676   -9.9363    5.0809 C   0  0  2  0  0  0  0  0  0  0  0  0
    6.5547  -10.1129    3.9919 S   0  0  0  0  0  0  0  0  0  0  0  0
    7.7642   -9.4726    4.7156 O   0  0  0  0  0  0  0  0  0  0  0  0
    6.0045   -8.8622    2.7607 C   0  0  0  0  0  0  0  0  0  0  0  0
    4.9155   -8.0177    3.4676 C   0  0  2  0  0  0  0  0  0  0  0  0
    4.0263   -9.1081    4.2344 C   0  0  2  0  0  0  0  0  0  0  0  0
    3.1822   -8.5040    5.2451 C   0  0  0  0  0  0  0  0  0  0  0  0
    2.2571   -9.3879    6.1055 C   0  0  1  0  0  0  0  0  0  0  0  0
    2.5787   -9.6741    7.4443 O   0  0  0  0  0  0  0  0  0  0  0  0
    0.9275   -8.7121    5.9785 C   0  0  2  0  0  0  0  0  0  0  0  0
   -0.1185   -9.5270    6.7907 C   0  0  0  0  0  0  0  0  0  0  0  0
    0.5007   -8.8482    4.4630 C   0  0  1  0  0  0  0  0  0  0  0  0
    0.1341   -7.4133    4.0287 C   0  0  0  0  0  0  0  0  0  0  0  0
   -0.0506   -6.5804    5.3065 C   0  0  0  0  0  0  0  0  0  0  0  0
    0.8754   -7.1599    6.4032 C   0  0  2  0  0  0  0  0  0  0  0  0
    2.0640   -6.1015    6.8204 C   0  0  2  0  0  0  0  0  0  0  0  0
    1.2499   -5.0949    7.6718 C   0  0  0  0  0  0  0  0  0  0  0  0
    1.3605   -9.7438    3.4436 C   0  0  1  0  0  0  0  0  0  0  0  0
    0.8732   -9.4357    2.1558 O   0  0  0  0  0  0  0  0  0  0  0  0
    2.9670   -9.9937    3.4263 C   0  0  1  0  0  0  0  0  0  0  0  0
    3.4064  -10.2137    2.0907 O   0  0  0  0  0  0  0  0  0  0  0  0
    3.4925   -4.1881    2.6996 C   0  0  1  0  0  0  0  0  0  0  0  0
    3.1943   -2.9567    3.5711 C   0  0  0  0  0  0  0  0  0  0  0  0
    2.2980   -4.5166    2.0073 O   0  0  0  0  0  0  0  0  0  0  0  0
    3.2493   -0.5246   -0.2202 H   0  0  0  0  0  0  0  0  0  0  0  0
    2.8215   -1.3286   -1.7239 H   0  0  0  0  0  0  0  0  0  0  0  0
    4.5167   -1.0335   -1.3525 H   0  0  0  0  0  0  0  0  0  0  0  0
    5.4381   -3.5001    2.2851 H   0  0  0  0  0  0  0  0  0  0  0  0
    4.4703   -5.3427    0.0865 H   0  0  0  0  0  0  0  0  0  0  0  0
    6.0554   -4.6448    0.3419 H   0  0  0  0  0  0  0  0  0  0  0  0
    5.7956   -7.0159    1.0633 H   0  0  0  0  0  0  0  0  0  0  0  0
    7.7494   -5.9676    0.0091 H   0  0  0  0  0  0  0  0  0  0  0  0
    7.7856   -7.6141    0.6808 H   0  0  0  0  0  0  0  0  0  0  0  0
    9.2671   -6.6264    0.5335 H   0  0  0  0  0  0  0  0  0  0  0  0
    2.4453   -7.6237    2.1539 H   0  0  0  0  0  0  0  0  0  0  0  0
    3.7167   -8.0441    1.0055 H   0  0  0  0  0  0  0  0  0  0  0  0
    2.9352   -6.5296    0.9131 H   0  0  0  0  0  0  0  0  0  0  0  0
    4.7626   -5.2003    4.1185 H   0  0  0  0  0  0  0  0  0  0  0  0
    2.6430   -4.2379    5.7833 H   0  0  0  0  0  0  0  0  0  0  0  0
    3.4905   -5.5595    8.3210 H   0  0  0  0  0  0  0  0  0  0  0  0
    4.9649   -6.9428    8.8203 H   0  0  0  0  0  0  0  0  0  0  0  0
    3.9001   -8.1555    8.5471 H   0  0  0  0  0  0  0  0  0  0  0  0
    5.8628   -7.3166    6.2791 H   0  0  0  0  0  0  0  0  0  0  0  0
    6.6888   -8.6268    8.5639 H   0  0  0  0  0  0  0  0  0  0  0  0
    6.5001   -9.9593    6.6920 H   0  0  0  0  0  0  0  0  0  0  0  0
    4.9361  -10.0704    7.2628 H   0  0  0  0  0  0  0  0  0  0  0  0
    4.7036  -10.9602    5.2041 H   0  0  0  0  0  0  0  0  0  0  0  0
    6.9107   -8.3387    2.5303 H   0  0  0  0  0  0  0  0  0  0  0  0
    5.6738   -9.3443    1.8397 H   0  0  0  0  0  0  0  0  0  0  0  0
    5.4834   -7.5164    4.2476 H   0  0  0  0  0  0  0  0  0  0  0  0
    3.7380   -7.7791    5.7405 H   0  0  0  0  0  0  0  0  0  0  0  0
    2.6119   -7.8922    4.5923 H   0  0  0  0  0  0  0  0  0  0  0  0
    2.1783  -10.4114    5.7331 H   0  0  0  0  0  0  0  0  0  0  0  0
    2.1522  -10.4904    7.6581 H   0  0  0  0  0  0  0  0  0  0  0  0
   -1.1222   -9.1550    6.5893 H   0  0  0  0  0  0  0  0  0  0  0  0
    0.0589   -9.4726    7.8702 H   0  0  0  0  0  0  0  0  0  0  0  0
   -0.1073  -10.5867    6.4937 H   0  0  0  0  0  0  0  0  0  0  0  0
   -0.4733   -9.3478    4.4544 H   0  0  0  0  0  0  0  0  0  0  0  0
    0.9061   -6.9538    3.4227 H   0  0  0  0  0  0  0  0  0  0  0  0
   -0.7680   -7.4031    3.4207 H   0  0  0  0  0  0  0  0  0  0  0  0
    0.1081   -5.5186    5.1123 H   0  0  0  0  0  0  0  0  0  0  0  0
   -1.0900   -6.6595    5.6397 H   0  0  0  0  0  0  0  0  0  0  0  0
    0.2559   -7.1972    7.2898 H   0  0  0  0  0  0  0  0  0  0  0  0
    0.9525   -5.5294    8.6172 H   0  0  0  0  0  0  0  0  0  0  0  0
    0.3651   -4.7227    7.1692 H   0  0  0  0  0  0  0  0  0  0  0  0
    1.8390   -4.2044    7.9077 H   0  0  0  0  0  0  0  0  0  0  0  0
    0.9755  -10.7500    3.6058 H   0  0  0  0  0  0  0  0  0  0  0  0
    1.1277  -10.1152    1.5687 H   0  0  0  0  0  0  0  0  0  0  0  0
    3.0731  -10.9959    3.8277 H   0  0  0  0  0  0  0  0  0  0  0  0
    3.4178  -11.1173    1.8349 H   0  0  0  0  0  0  0  0  0  0  0  0
    3.9597   -2.7997    4.3303 H   0  0  0  0  0  0  0  0  0  0  0  0
    2.2277   -3.0322    4.0651 H   0  0  0  0  0  0  0  0  0  0  0  0
    3.1529   -2.0477    2.9785 H   0  0  0  0  0  0  0  0  0  0  0  0
    2.5526   -4.8176    1.1626 H   0  0  0  0  0  0  0  0  0  0  0  0
  1  2  1  0
  1 47  1  0
  1 48  1  0
  1 49  1  0
  2  3  2  0
  2  4  1  0
  4  5  1  0
  5 44  1  0
  5  6  1  0
  5 50  1  1
  6  7  1  0
  6 51  1  0
  6 52  1  0
  7  8  1  0
  7 12  1  0
  7 53  1  6
  8  9  1  0
  9 10  1  0
  9 11  2  0
 10 54  1  0
 10 55  1  0
 10 56  1  0
 12 27  1  0
 12 13  1  6
 12 14  1  0
 13 57  1  0
 13 58  1  0
 13 59  1  0
 14 15  1  0
 14 44  1  0
 14 60  1  1
 15 16  1  0
 16 38  1  0
 16 17  1  0
 16 61  1  6
 17 18  1  0
 18 38  1  0
 18 19  1  0
 18 62  1  1
 19 20  1  0
 19 63  1  0
 19 64  1  0
 20 21  1  0
 20 22  1  0
 20 65  1  6
 21 66  1  0
 22 23  1  0
 22 67  1  0
 22 68  1  0
 23 28  1  0
 23 24  1  0
 23 69  1  1
 24 25  2  0
 24 26  1  6
 26 27  1  0
 26 70  1  0
 26 71  1  0
 27 28  1  0
 27 72  1  1
 28 42  1  0
 28 29  1  1
 29 30  1  0
 29 73  1  0
 29 74  1  0
 30 31  1  0
 30 32  1  0
 30 75  1  6
 31 76  1  0
 32 37  1  0
 32 33  1  1
 32 34  1  0
 33 77  1  0
 33 78  1  0
 33 79  1  0
 34 35  1  0
 34 40  1  0
 34 80  1  1
 35 36  1  0
 35 81  1  0
 35 82  1  0
 36 37  1  0
 36 83  1  0
 36 84  1  0
 37 38  1  0
 37 85  1  1
 38 39  1  1
 39 86  1  0
 39 87  1  0
 39 88  1  0
 40 41  1  0
 40 42  1  0
 40 89  1  1
 41 90  1  0
 42 43  1  0
 42 91  1  1
 43 92  1  0
 44 45  1  0
 44 46  1  6
 45 93  1  0
 45 94  1  0
 45 95  1  0
 46 96  1  0
M  END
>  <i_m_ct_stereo_status>  (100) 
1

>  <s_m_source_file>  (100) 
/var/tmp/pbs.5075288.sched01/tmp_km6m70o/128goojv9vu.sdf

>  <i_m_source_file_index>  (100) 
58

>  <i_lp_mmshare_version>  (100) 
48012

>  <i_f3d_flags>  (100) 
0

>  <s_epik_input>  (100) 
W0NIM11DKD1PKU9bQ0BASF0oW0NAQF0xKFtDSDNdKVtPSF0pW0NIMl1bQ0BASF0oT0MoPU8pW0NIM10pW0NAQF0oW0NIM10pKFtDQEBIXTJbQ0gyXVtTK10zW08tXSlbQ0BASF0xT1tDQEhdKE80KVtDQF0oW0NIM10pKFtDQEhdNFtDSDJdW0NAQEhdKFtPSF0pW0NIMl1bQ0BIXTNbQ0BdMjU2KVtDQEBIXTdbQ0BdKFtDSDNdKShbQ0BASF0oW0NIMl01KVtPSF0pW0NAQEhdKFtDSDJdW0NIMl03KVtDQEBIXShbT0hdKVtDQEhdNltPSF0=

>  <s_epik_cmdline>  (100) 
J2VwaWtfcHl0aG9uJywgJy1waHQnLCAnMi4wJywgJy1waCcsICc3LjAnLCAnLXRuJywgJzgnLCAnLW1hJywgJzIwMCcsICctaW1hZScsICc8aW5maWxlLm1hZT4nLCAnLW9tYWUnLCAnPG91dGZpbGUubWFlPic=

>  <r_lp_tautomer_probability>  (100) 
1

>  <r_epik_Ionization_Penalty>  (100) 
2.90293e-06

>  <r_epik_Ionization_Penalty_Charging>  (100) 
0

>  <r_epik_Ionization_Penalty_Neutral>  (100) 
2.90293e-06

>  <r_epik_State_Penalty>  (100) 
-0

>  <r_epik_Charging_Adjusted_Penalty>  (100) 
0

>  <i_epik_Tot_Q>  (100) 
0

>  <i_epik_Tot_abs_Q>  (100) 
2

>  <s_epik_Chemistry_Notes>  (100) 
This compound has an ester and may undergo hydrolysis at high or low pH. This compound contains an acetal/aminal-like group ( X-CH(R)-Y where X, Y are N, S, or O) that may be acid/base labile, releasing an aldehyde.

>  <s_lp_Force_Field>  (100) 
OPLS3e

>  <r_lp_Energy>  (100) 
196.75

>  <b_lp_Chiralities_Consistent>  (100) 
1

>  <s_lp_Variant>  (100) 
66:0-1

>  <s_i_glide_gridfile>  (100) 
pfpi4k_grid

>  <i_i_glide_lignum>  (100) 
58

>  <i_i_glide_rotatable_bonds>  (100) 
9

>  <r_i_docking_score>  (100) 
-2.65346

>  <r_i_glide_ligand_efficiency>  (100) 
-0.0576839

>  <r_i_glide_ligand_efficiency_sa>  (100) 
-0.206684

>  <r_i_glide_ligand_efficiency_ln>  (100) 
-0.549525

>  <r_i_glide_gscore>  (100) 
-2.65346

>  <r_i_glide_lipo>  (100) 
-0.214655

>  <r_i_glide_hbond>  (100) 
-0.153565

>  <r_i_glide_metal>  (100) 
-0

>  <r_i_glide_rewards>  (100) 
-0.501885

>  <r_i_glide_evdw>  (100) 
-25.0626

>  <r_i_glide_ecoul>  (100) 
-3.91022

>  <r_i_glide_erotb>  (100) 
0.0947656

>  <r_i_glide_esite>  (100) 
-0.0384575

>  <r_i_glide_emodel>  (100) 
-33.4873

>  <r_i_glide_energy>  (100) 
-28.9729

>  <r_i_glide_einternal>  (100) 
12.0927

>  <r_i_glide_intrahb_reward>  (100) 
-0.5

>  <i_i_glide_confnum>  (100) 
2

>  <i_i_glide_posenum>  (100) 
13

>  <r_i_glide_eff_state_penalty>  (100) 
0

>  <ligand_id>  (100) 
66

>  <original_smiles>  (100) 
CC(=O)OC1CC(OC(C)=O)C2(C)C(OC3OC4CC(O)CC5[S+]([O-])CC2C52CC(O)C5(C)C(CCC5C43C)C(O)C2O)C1(C)O

>  <smiles>  (100) 
[H]OC1([H])C([H])([H])C2([H])OC3([H])OC4([H])C(O[H])(C([H])([H])[H])C([H])(OC(=O)C([H])([H])[H])C([H])([H])C([H])(OC(=O)C([H])([H])[H])C4(C([H])([H])[H])C4([H])C([H])([H])S(=O)C([H])(C1([H])[H])C41C([H])([H])C([H])(O[H])C4(C([H])([H])[H])C([H])(C([H])([H])C([H])([H])C4([H])C32C([H])([H])[H])C([H])(O[H])C1([H])O[H]

$$$$
70:0:0
     RDKit          3D

126138  0  0  1  0  0  0  0  0999 V2000
    2.2656   -6.0763    7.3856 C   0  0  0  0  0  0  0  0  0  0  0  0
    0.9723   -5.2003    7.4666 C   0  0  0  0  0  0  0  0  0  0  0  0
   -0.1807   -6.2035    7.6671 C   0  0  0  0  0  0  0  0  0  0  0  0
    0.7076   -4.2483    6.1918 C   0  0  1  0  0  0  0  0  0  0  0  0
    0.2804   -5.1758    5.2101 O   0  0  0  0  0  0  0  0  0  0  0  0
   -0.3274   -3.4453    6.5886 O   0  0  0  0  0  0  0  0  0  0  0  0
   -0.1824   -2.2216    5.8730 C   0  0  2  0  0  0  0  0  0  0  0  0
   -1.4014   -1.5526    5.8063 O   0  0  0  0  0  0  0  0  0  0  0  0
    0.4604   -2.5955    4.5031 C   0  0  0  0  0  0  0  0  0  0  0  0
    1.5327   -2.9813    5.5279 C   0  0  2  0  0  0  0  0  0  0  0  0
    3.0834   -3.2040    5.2048 C   0  0  1  0  0  0  0  0  0  0  0  0
    3.3842   -4.6656    4.7180 C   0  0  0  0  0  0  0  0  0  0  0  0
    4.2299   -4.8496    3.4661 C   0  0  2  0  0  0  0  0  0  0  0  0
    4.1378   -6.2559    3.2679 O   0  0  0  0  0  0  0  0  0  0  0  0
    5.6973   -4.4214    3.5700 C   0  0  0  0  0  0  0  0  0  0  0  0
    6.0635   -3.9735    2.2641 O   0  0  0  0  0  0  0  0  0  0  0  0
    4.9967   -4.0672    1.3700 C   0  0  1  0  0  0  0  0  0  0  0  0
    5.1749   -2.9485    0.3403 C   0  0  0  0  0  0  0  0  0  0  0  0
    5.0737   -5.2617    0.6290 O   0  0  0  0  0  0  0  0  0  0  0  0
    3.7199   -4.0255    2.2940 C   0  0  1  0  0  0  0  0  0  0  0  0
    2.4696   -4.6141    1.5918 C   0  0  0  0  0  0  0  0  0  0  0  0
    3.3366   -2.5922    2.7553 C   0  0  0  0  0  0  0  0  0  0  0  0
    3.0853   -1.7192    1.9277 O   0  0  0  0  0  0  0  0  0  0  0  0
    3.2202   -2.2991    4.0936 O   0  0  0  0  0  0  0  0  0  0  0  0
    4.0250   -2.7044    6.4862 C   0  0  2  0  0  0  0  0  0  0  0  0
    5.0233   -3.6704    6.6899 O   0  0  0  0  0  0  0  0  0  0  0  0
    3.0461   -2.6955    7.6991 C   0  0  1  0  0  0  0  0  0  0  0  0
    3.6557   -2.8291    8.9906 O   0  0  0  0  0  0  0  0  0  0  0  0
    2.1286   -1.4592    7.4633 C   0  0  1  0  0  0  0  0  0  0  0  0
    1.2910   -1.2219    8.5839 O   0  0  0  0  0  0  0  0  0  0  0  0
    3.4346   -0.5836    7.4985 C   0  0  0  0  0  0  0  0  0  0  0  0
    3.6590    0.1467    8.4314 O   0  0  0  0  0  0  0  0  0  0  0  0
    4.5990   -1.2124    6.6701 C   0  0  2  0  0  0  0  0  0  0  0  0
    4.8161   -0.6896    5.4101 O   0  0  0  0  0  0  0  0  0  0  0  0
    6.0076   -0.7285    7.3305 C   0  0  2  0  0  0  0  0  0  0  0  0
    6.9536   -1.8285    7.9101 C   0  0  0  0  0  0  0  0  0  0  0  0
    6.0812   -1.0667    8.7368 O   0  0  0  0  0  0  0  0  0  0  0  0
    6.5900    0.7590    6.9234 C   0  0  1  0  0  0  0  0  0  0  0  0
    8.0400    0.9224    7.5097 C   0  0  0  0  0  0  0  0  0  0  0  0
    7.0328    0.8369    5.5639 O   0  0  0  0  0  0  0  0  0  0  0  0
    5.7945    2.1642    7.2244 C   0  0  0  0  0  0  0  0  0  0  0  0
    5.6093    2.2747    8.7619 C   0  0  0  0  0  0  0  0  0  0  0  0
    6.6244    3.4110    6.7745 C   0  0  0  0  0  0  0  0  0  0  0  0
    4.4818    2.2810    6.5524 O   0  0  0  0  0  0  0  0  0  0  0  0
    3.8182    3.5667    6.1642 C   0  0  2  0  0  0  0  0  0  0  0  0
    3.3807    4.7695    7.5351 S   0  0  0  0  0  0  0  0  0  0  0  0
    4.2490    4.6712    8.7558 O   0  0  0  0  0  0  0  0  0  0  0  0
    1.7266    3.9727    7.8850 C   0  0  0  0  0  0  0  0  0  0  0  0
    1.4890    2.8973    6.7652 C   0  0  1  0  0  0  0  0  0  0  0  0
    1.8326    1.7848    7.4861 O   0  0  0  0  0  0  0  0  0  0  0  0
    0.0555    2.5022    6.2720 C   0  0  1  0  0  0  0  0  0  0  0  0
   -1.0367    2.2587    7.4109 C   0  0  0  0  0  0  0  0  0  0  0  0
   -2.4796    2.0916    6.8593 C   0  0  0  0  0  0  0  0  0  0  0  0
   -1.1432    3.2812    8.5570 C   0  0  0  0  0  0  0  0  0  0  0  0
   -0.4042    4.0676    5.4058 S   0  0  0  0  0  0  0  0  0  0  0  0
    1.4650    4.9378    5.1540 S   0  0  0  0  0  0  0  0  0  0  0  0
    2.3759    3.3904    5.5427 C   0  0  1  0  0  0  0  0  0  0  0  0
    2.3175    2.5972    4.1891 C   0  0  2  0  0  0  0  0  0  0  0  0
    2.6159    3.1599    2.9097 O   0  0  0  0  0  0  0  0  0  0  0  0
    1.2361    2.8465    3.1367 C   0  0  1  0  0  0  0  0  0  0  0  0
    0.4530    1.6253    2.7204 C   0  0  0  0  0  0  0  0  0  0  0  0
   -0.5205    1.2530    3.8836 C   0  0  0  0  0  0  0  0  0  0  0  0
    0.0789    1.1287    5.3398 C   0  0  1  0  0  0  0  0  0  0  0  0
    1.2392   -0.0186    5.3069 C   0  0  1  0  0  0  0  0  0  0  0  0
    2.5067    0.5639    5.2626 O   0  0  0  0  0  0  0  0  0  0  0  0
    2.9393    1.2668    4.2546 C   0  0  0  0  0  0  0  0  0  0  0  0
    3.7841    0.8821    3.4483 O   0  0  0  0  0  0  0  0  0  0  0  0
    1.2118   -1.4890    6.1301 C   0  0  2  0  0  0  0  0  0  0  0  0
    2.2536   -6.6971    6.4778 H   0  0  0  0  0  0  0  0  0  0  0  0
    2.2907   -6.7696    8.2342 H   0  0  0  0  0  0  0  0  0  0  0  0
    3.2240   -5.5486    7.4415 H   0  0  0  0  0  0  0  0  0  0  0  0
    0.8733   -4.6133    8.3835 H   0  0  0  0  0  0  0  0  0  0  0  0
   -0.1841   -6.9864    6.9062 H   0  0  0  0  0  0  0  0  0  0  0  0
   -1.1429   -5.7005    7.7134 H   0  0  0  0  0  0  0  0  0  0  0  0
   -0.0333   -6.7267    8.6089 H   0  0  0  0  0  0  0  0  0  0  0  0
   -0.2890   -5.7969    5.6474 H   0  0  0  0  0  0  0  0  0  0  0  0
   -1.3162   -0.8904    5.1304 H   0  0  0  0  0  0  0  0  0  0  0  0
   -0.0941   -3.3419    3.9597 H   0  0  0  0  0  0  0  0  0  0  0  0
    0.6921   -1.8764    3.7454 H   0  0  0  0  0  0  0  0  0  0  0  0
    3.8445   -5.3313    5.4435 H   0  0  0  0  0  0  0  0  0  0  0  0
    2.4498   -5.1281    4.4353 H   0  0  0  0  0  0  0  0  0  0  0  0
    4.8763   -6.5601    2.7560 H   0  0  0  0  0  0  0  0  0  0  0  0
    5.8088   -3.5550    4.2222 H   0  0  0  0  0  0  0  0  0  0  0  0
    6.3462   -5.2048    3.9627 H   0  0  0  0  0  0  0  0  0  0  0  0
    6.0526   -3.1883   -0.2612 H   0  0  0  0  0  0  0  0  0  0  0  0
    5.3450   -1.9813    0.8105 H   0  0  0  0  0  0  0  0  0  0  0  0
    4.3036   -2.9077   -0.3155 H   0  0  0  0  0  0  0  0  0  0  0  0
    4.8673   -5.9935    1.1874 H   0  0  0  0  0  0  0  0  0  0  0  0
    2.6026   -5.6548    1.3135 H   0  0  0  0  0  0  0  0  0  0  0  0
    2.2395   -4.0503    0.6895 H   0  0  0  0  0  0  0  0  0  0  0  0
    1.5934   -4.5608    2.2462 H   0  0  0  0  0  0  0  0  0  0  0  0
    5.6194   -3.6420    5.9530 H   0  0  0  0  0  0  0  0  0  0  0  0
    2.4791   -3.5587    7.7051 H   0  0  0  0  0  0  0  0  0  0  0  0
    4.2860   -2.1266    9.1480 H   0  0  0  0  0  0  0  0  0  0  0  0
    0.6980   -1.9561    8.6724 H   0  0  0  0  0  0  0  0  0  0  0  0
    4.7966    0.2579    5.5172 H   0  0  0  0  0  0  0  0  0  0  0  0
    6.7349   -2.8850    8.0004 H   0  0  0  0  0  0  0  0  0  0  0  0
    8.0069   -1.6052    8.1459 H   0  0  0  0  0  0  0  0  0  0  0  0
    8.0546    0.8684    8.5966 H   0  0  0  0  0  0  0  0  0  0  0  0
    8.5702    1.8191    7.2215 H   0  0  0  0  0  0  0  0  0  0  0  0
    8.6985    0.1541    7.1219 H   0  0  0  0  0  0  0  0  0  0  0  0
    6.3223    0.7092    4.9444 H   0  0  0  0  0  0  0  0  0  0  0  0
    5.9687    1.4039    9.2977 H   0  0  0  0  0  0  0  0  0  0  0  0
    4.5651    2.3897    9.0500 H   0  0  0  0  0  0  0  0  0  0  0  0
    6.1620    3.1220    9.1799 H   0  0  0  0  0  0  0  0  0  0  0  0
    7.5741    3.5257    7.3059 H   0  0  0  0  0  0  0  0  0  0  0  0
    6.1323    4.3662    7.0021 H   0  0  0  0  0  0  0  0  0  0  0  0
    6.8445    3.3870    5.7186 H   0  0  0  0  0  0  0  0  0  0  0  0
    4.4544    4.0856    5.4475 H   0  0  0  0  0  0  0  0  0  0  0  0
    1.7769    3.5543    8.8892 H   0  0  0  0  0  0  0  0  0  0  0  0
    0.9806    4.7609    7.9099 H   0  0  0  0  0  0  0  0  0  0  0  0
    2.0117    1.0952    6.8589 H   0  0  0  0  0  0  0  0  0  0  0  0
   -0.7791    1.3174    7.8983 H   0  0  0  0  0  0  0  0  0  0  0  0
   -2.8785    3.0355    6.4853 H   0  0  0  0  0  0  0  0  0  0  0  0
   -3.1505    1.7571    7.6504 H   0  0  0  0  0  0  0  0  0  0  0  0
   -2.5799    1.3644    6.0581 H   0  0  0  0  0  0  0  0  0  0  0  0
   -1.1933    4.3068    8.1905 H   0  0  0  0  0  0  0  0  0  0  0  0
   -0.3241    3.1854    9.2628 H   0  0  0  0  0  0  0  0  0  0  0  0
   -2.0415    3.1152    9.1527 H   0  0  0  0  0  0  0  0  0  0  0  0
    0.6548    3.7479    2.9952 H   0  0  0  0  0  0  0  0  0  0  0  0
   -0.1180    1.8701    1.8250 H   0  0  0  0  0  0  0  0  0  0  0  0
    1.1115    0.8094    2.4258 H   0  0  0  0  0  0  0  0  0  0  0  0
   -1.3535    1.9517    3.8934 H   0  0  0  0  0  0  0  0  0  0  0  0
   -0.9704    0.2952    3.6163 H   0  0  0  0  0  0  0  0  0  0  0  0
   -0.6775    0.5896    5.8519 H   0  0  0  0  0  0  0  0  0  0  0  0
    1.2187   -0.2329    4.2541 H   0  0  0  0  0  0  0  0  0  0  0  0
  1  2  1  0
  1 69  1  0
  1 70  1  0
  1 71  1  0
  2  3  1  0
  2  4  1  0
  2 72  1  0
  3 73  1  0
  3 74  1  0
  3 75  1  0
  4 10  1  0
  4  5  1  6
  4  6  1  0
  5 76  1  0
  6  7  1  0
 68  7  1  1
  7  8  1  6
  7  9  1  0
  8 77  1  0
 10  9  1  6
  9 78  1  0
  9 79  1  0
 10 68  1  0
 10 11  1  0
 11 24  1  6
 11 12  1  0
 11 25  1  0
 12 13  1  0
 12 80  1  0
 12 81  1  0
 13 20  1  0
 13 14  1  6
 13 15  1  0
 14 82  1  0
 15 16  1  0
 15 83  1  0
 15 84  1  0
 16 17  1  0
 17 18  1  0
 17 19  1  6
 17 20  1  0
 18 85  1  0
 18 86  1  0
 18 87  1  0
 19 88  1  0
 20 21  1  6
 20 22  1  0
 21 89  1  0
 21 90  1  0
 21 91  1  0
 22 23  2  0
 22 24  1  0
 25 33  1  0
 25 26  1  1
 25 27  1  0
 26 92  1  0
 27 28  1  0
 27 29  1  0
 27 93  1  6
 28 94  1  0
 29 68  1  0
 29 30  1  1
 29 31  1  0
 30 95  1  0
 31 32  2  0
 31 33  1  0
 33 34  1  6
 33 35  1  0
 34 96  1  0
 35 37  1  1
 35 36  1  0
 35 38  1  0
 36 37  1  0
 36 97  1  0
 36 98  1  0
 38 39  1  0
 38 40  1  6
 38 41  1  0
 39 99  1  0
 39100  1  0
 39101  1  0
 40102  1  0
 41 42  1  0
 41 43  1  0
 41 44  1  0
 42103  1  0
 42104  1  0
 42105  1  0
 43106  1  0
 43107  1  0
 43108  1  0
 44 45  1  0
 45 57  1  0
 45 46  1  0
 45109  1  6
 46 47  2  0
 46 48  1  1
 48 49  1  0
 48110  1  0
 48111  1  0
 49 57  1  0
 49 50  1  1
 49 51  1  0
 50112  1  0
 51 63  1  0
 51 52  1  1
 51 55  1  0
 52 53  1  0
 52 54  1  0
 52113  1  0
 53114  1  0
 53115  1  0
 53116  1  0
 54117  1  0
 54118  1  0
 54119  1  0
 55 56  1  0
 57 56  1  6
 57 58  1  0
 58 60  1  0
 58 66  1  0
 58 59  1  6
 59 60  1  0
 60 61  1  0
 60120  1  1
 61 62  1  0
 61121  1  0
 61122  1  0
 62 63  1  0
 62123  1  0
 62124  1  0
 63 64  1  0
 63125  1  1
 64 65  1  0
 64 68  1  0
 64126  1  6
 65 66  1  0
 66 67  2  0
M  END
>  <i_m_ct_stereo_status>  (101) 
1

>  <s_m_source_file>  (101) 
/var/tmp/pbs.5075288.sched01/tmpqqnbnjfs/192vg5g1vka.sdf

>  <i_m_source_file_index>  (101) 
4

>  <i_lp_mmshare_version>  (101) 
48012

>  <i_f3d_flags>  (101) 
2

>  <s_epik_input>  (101) 
W0NIM11bQ0hdKFtDSDNdKVtDQEBdMShbT0hdKU9bQ0BdKFtPSF0pKFtDSDJdMilbQ0BdMyhbQ0BdKFtPSF0pKEM0PU8pW0NAQEhdNVtPSF0pW0NIXShPQzY9TylbQ0BIXShbQ0BAXShTUzcpKFtDSF0oW0NIM10pW0NIM10pW0NAXTgoW09IXSlbQ0gyXVtTK105W08tXSlbQ0gyXVtDSDJdW0NIXShPJTEwKUM2JTEwW0NAQF03OFtDQEBIXTlPQyhbQ0gzXSkoW0NIM10pW0NAXShbQ0gzXSkoW09IXSlDNihbQ0gyXU82KVtDQEBdNChbT0hdKVtDQF01KFtPSF0pW0NAQF00KFtDQF0xMjMpW0NIMl1bQ0BAXTEoW09IXSlbQ0BAXShbQ0gzXSkoQyg9TylPNClbQ0BdKFtDSDNdKShbT0hdKU9bQ0gyXTE=

>  <s_epik_cmdline>  (101) 
J2VwaWtfcHl0aG9uJywgJy1waHQnLCAnMi4wJywgJy1waCcsICc3LjAnLCAnLXRuJywgJzgnLCAnLW1hJywgJzIwMCcsICctaW1hZScsICc8aW5maWxlLm1hZT4nLCAnLW9tYWUnLCAnPG91dGZpbGUubWFlPic=

>  <r_lp_tautomer_probability>  (101) 
1

>  <r_epik_Ionization_Penalty>  (101) 
0.000298321

>  <r_epik_Ionization_Penalty_Charging>  (101) 
0

>  <r_epik_Ionization_Penalty_Neutral>  (101) 
0.000298321

>  <r_epik_State_Penalty>  (101) 
-0

>  <r_epik_Charging_Adjusted_Penalty>  (101) 
0

>  <i_epik_Tot_Q>  (101) 
0

>  <i_epik_Tot_abs_Q>  (101) 
2

>  <s_epik_Chemistry_Notes>  (101) 
This compound has an ester and may undergo hydrolysis at high or low pH. This compound contains an acetal/aminal-like group ( X-CH(R)-Y where X, Y are N, S, or O) that may be acid/base labile, releasing an aldehyde.

>  <s_lp_Force_Field>  (101) 
OPLS3e

>  <r_lp_Energy>  (101) 
365.025

>  <b_lp_Chiralities_Consistent>  (101) 
0

>  <s_lp_Variant>  (101) 
70:0-1

>  <s_i_glide_gridfile>  (101) 
pfpi4k_grid

>  <i_i_glide_lignum>  (101) 
4

>  <i_i_glide_rotatable_bonds>  (101) 
12

>  <r_i_docking_score>  (101) 
-3.24943

>  <r_i_glide_ligand_efficiency>  (101) 
-0.0477857

>  <r_i_glide_ligand_efficiency_sa>  (101) 
-0.195045

>  <r_i_glide_ligand_efficiency_ln>  (101) 
-0.622554

>  <r_i_glide_gscore>  (101) 
-3.24943

>  <r_i_glide_lipo>  (101) 
-0.306612

>  <r_i_glide_hbond>  (101) 
0

>  <r_i_glide_metal>  (101) 
-0

>  <r_i_glide_rewards>  (101) 
-1.04389

>  <r_i_glide_evdw>  (101) 
-34.6807

>  <r_i_glide_ecoul>  (101) 
-0.901798

>  <r_i_glide_erotb>  (101) 
0

>  <r_i_glide_esite>  (101) 
-0.0296164

>  <r_i_glide_emodel>  (101) 
-49.6938

>  <r_i_glide_energy>  (101) 
-35.5825

>  <r_i_glide_einternal>  (101) 
3.89883

>  <r_i_glide_intrahb_reward>  (101) 
-1

>  <i_i_glide_confnum>  (101) 
2

>  <i_i_glide_posenum>  (101) 
2

>  <r_i_glide_eff_state_penalty>  (101) 
0

>  <ligand_id>  (101) 
70

>  <original_smiles>  (101) 
CC(C)C1(O)OC2(O)CC13C1(CC4(O)COC(C)(O)C4(C)C(=O)O1)C1(O)C(O)C4(O)C(=O)C1(O)C1(CO1)C(C)(O)C(C)(C)OC1[S+]([O-])CC5(O)C6(C(C)C)SSC15C15OC1CCC6C(OC5=O)C243

>  <smiles>  (101) 
[H]OC1([H])C2(O[H])C(=O)C3(O[H])C4(OC4([H])[H])C(O[H])(C([H])([H])[H])C(C([H])([H])[H])(C([H])([H])[H])OC4([H])S(=O)C([H])([H])C5(O[H])C46SSC5(C([H])(C([H])([H])[H])C([H])([H])[H])C4([H])C([H])([H])C([H])([H])C5([H])OC56C(=O)OC4([H])C24C2(O[H])OC(O[H])(C([H])(C([H])([H])[H])C([H])([H])[H])C4(C2([H])[H])C2(OC(=O)C4(C([H])([H])[H])C(O[H])(C([H])([H])[H])OC([H])([H])C4(O[H])C2([H])[H])C13O[H]

$$$$
70:0:1
     RDKit          3D

126138  0  0  1  0  0  0  0  0999 V2000
    6.7994  -10.0488    6.4833 C   0  0  0  0  0  0  0  0  0  0  0  0
    6.5235   -8.9673    7.5767 C   0  0  0  0  0  0  0  0  0  0  0  0
    7.0200   -9.5693    8.9134 C   0  0  0  0  0  0  0  0  0  0  0  0
    4.9791   -8.5237    7.6618 C   0  0  1  0  0  0  0  0  0  0  0  0
    4.3393   -9.7060    8.1334 O   0  0  0  0  0  0  0  0  0  0  0  0
    4.9861   -7.5520    8.6151 O   0  0  0  0  0  0  0  0  0  0  0  0
    3.8890   -6.7084    8.3041 C   0  0  2  0  0  0  0  0  0  0  0  0
    3.4552   -6.0163    9.4441 O   0  0  0  0  0  0  0  0  0  0  0  0
    2.7947   -7.5781    7.6241 C   0  0  0  0  0  0  0  0  0  0  0  0
    3.9862   -7.6530    6.6689 C   0  0  2  0  0  0  0  0  0  0  0  0
    3.9060   -8.0759    5.1234 C   0  0  1  0  0  0  0  0  0  0  0  0
    3.9862   -9.6383    4.9514 C   0  0  0  0  0  0  0  0  0  0  0  0
    2.9362  -10.2749    4.0554 C   0  0  2  0  0  0  0  0  0  0  0  0
    3.1471  -11.6814    4.1777 O   0  0  0  0  0  0  0  0  0  0  0  0
    3.0275   -9.9271    2.5671 C   0  0  0  0  0  0  0  0  0  0  0  0
    1.6881   -9.9161    2.1089 O   0  0  0  0  0  0  0  0  0  0  0  0
    0.8124  -10.3276    3.1049 C   0  0  1  0  0  0  0  0  0  0  0  0
   -0.5452   -9.7040    2.7545 C   0  0  0  0  0  0  0  0  0  0  0  0
    0.6706  -11.7321    3.0868 O   0  0  0  0  0  0  0  0  0  0  0  0
    1.5113   -9.8760    4.4151 C   0  0  1  0  0  0  0  0  0  0  0  0
    0.9424  -10.5693    5.6649 C   0  0  0  0  0  0  0  0  0  0  0  0
    1.4080   -8.3538    4.6846 C   0  0  0  0  0  0  0  0  0  0  0  0
    0.3186   -7.7993    4.7946 O   0  0  0  0  0  0  0  0  0  0  0  0
    2.5582   -7.6109    4.8485 O   0  0  0  0  0  0  0  0  0  0  0  0
    5.0002   -7.2411    4.2041 C   0  0  2  0  0  0  0  0  0  0  0  0
    5.6048   -8.1207    3.3101 O   0  0  0  0  0  0  0  0  0  0  0  0
    6.0595   -6.7953    5.2347 C   0  0  1  0  0  0  0  0  0  0  0  0
    7.3665   -6.4689    4.7158 O   0  0  0  0  0  0  0  0  0  0  0  0
    5.3484   -5.6380    6.0318 C   0  0  1  0  0  0  0  0  0  0  0  0
    6.2681   -4.9701    6.8760 O   0  0  0  0  0  0  0  0  0  0  0  0
    5.1606   -4.8843    4.6790 C   0  0  0  0  0  0  0  0  0  0  0  0
    5.7716   -3.8500    4.4438 O   0  0  0  0  0  0  0  0  0  0  0  0
    4.6931   -5.8004    3.5006 C   0  0  2  0  0  0  0  0  0  0  0  0
    3.3452   -5.8083    3.1996 O   0  0  0  0  0  0  0  0  0  0  0  0
    5.2758   -5.2033    2.1040 C   0  0  2  0  0  0  0  0  0  0  0  0
    6.2551   -6.0749    1.2842 C   0  0  0  0  0  0  0  0  0  0  0  0
    6.7131   -5.0251    2.1330 O   0  0  0  0  0  0  0  0  0  0  0  0
    4.4454   -4.0114    1.3523 C   0  0  1  0  0  0  0  0  0  0  0  0
    5.0635   -3.7813   -0.0586 C   0  0  0  0  0  0  0  0  0  0  0  0
    3.1984   -4.4976    0.8762 O   0  0  0  0  0  0  0  0  0  0  0  0
    4.1697   -2.5446    2.0242 C   0  0  0  0  0  0  0  0  0  0  0  0
    5.5512   -1.8791    2.2775 C   0  0  0  0  0  0  0  0  0  0  0  0
    3.3699   -1.6006    1.0568 C   0  0  0  0  0  0  0  0  0  0  0  0
    3.4002   -2.5474    3.2867 O   0  0  0  0  0  0  0  0  0  0  0  0
    2.5352   -1.4395    3.7930 C   0  0  2  0  0  0  0  0  0  0  0  0
    3.3597    0.1883    4.1986 S   0  0  0  0  0  0  0  0  0  0  0  0
    4.6483    0.4405    3.4123 O   0  0  0  0  0  0  0  0  0  0  0  0
    3.8221   -0.3234    5.9267 C   0  0  0  0  0  0  0  0  0  0  0  0
    3.1149   -1.6944    6.1911 C   0  0  1  0  0  0  0  0  0  0  0  0
    4.1874   -2.5072    5.9435 O   0  0  0  0  0  0  0  0  0  0  0  0
    2.7021   -2.1602    7.6301 C   0  0  1  0  0  0  0  0  0  0  0  0
    3.7403   -1.8487    8.8043 C   0  0  0  0  0  0  0  0  0  0  0  0
    4.1965   -0.3826    8.9860 C   0  0  0  0  0  0  0  0  0  0  0  0
    5.0129   -2.7247    8.8975 C   0  0  0  0  0  0  0  0  0  0  0  0
    1.2882   -1.0076    7.9069 S   0  0  0  0  0  0  0  0  0  0  0  0
    0.9196   -0.3629    5.9634 S   0  0  0  0  0  0  0  0  0  0  0  0
    1.8789   -1.7282    5.2049 C   0  0  1  0  0  0  0  0  0  0  0  0
    0.8867   -2.9290    5.2692 C   0  0  2  0  0  0  0  0  0  0  0  0
   -0.4912   -2.8502    4.8780 O   0  0  0  0  0  0  0  0  0  0  0  0
   -0.2707   -3.0025    6.2811 C   0  0  1  0  0  0  0  0  0  0  0  0
   -0.3049   -4.2336    7.1385 C   0  0  0  0  0  0  0  0  0  0  0  0
    0.8276   -4.1099    8.2075 C   0  0  0  0  0  0  0  0  0  0  0  0
    2.2895   -3.7682    7.7171 C   0  0  1  0  0  0  0  0  0  0  0  0
    2.7469   -4.9305    6.6580 C   0  0  1  0  0  0  0  0  0  0  0  0
    2.5740   -4.5216    5.3240 O   0  0  0  0  0  0  0  0  0  0  0  0
    1.4240   -4.1921    4.7631 C   0  0  0  0  0  0  0  0  0  0  0  0
    0.8434   -4.8255    3.8866 O   0  0  0  0  0  0  0  0  0  0  0  0
    4.0137   -6.0336    6.8737 C   0  0  2  0  0  0  0  0  0  0  0  0
    6.1488  -10.9264    6.6080 H   0  0  0  0  0  0  0  0  0  0  0  0
    7.8242  -10.4220    6.5767 H   0  0  0  0  0  0  0  0  0  0  0  0
    6.6920   -9.6872    5.4637 H   0  0  0  0  0  0  0  0  0  0  0  0
    7.1617   -8.0842    7.4754 H   0  0  0  0  0  0  0  0  0  0  0  0
    6.5605  -10.5306    9.1497 H   0  0  0  0  0  0  0  0  0  0  0  0
    6.8654   -8.8703    9.7284 H   0  0  0  0  0  0  0  0  0  0  0  0
    8.0865   -9.7456    8.8303 H   0  0  0  0  0  0  0  0  0  0  0  0
    3.4177   -9.5392    8.2382 H   0  0  0  0  0  0  0  0  0  0  0  0
    3.4388   -6.6234   10.1698 H   0  0  0  0  0  0  0  0  0  0  0  0
    2.4765   -8.4083    8.2373 H   0  0  0  0  0  0  0  0  0  0  0  0
    1.8588   -7.1743    7.2826 H   0  0  0  0  0  0  0  0  0  0  0  0
    4.9409  -10.0204    4.6078 H   0  0  0  0  0  0  0  0  0  0  0  0
    3.7998  -10.1008    5.9081 H   0  0  0  0  0  0  0  0  0  0  0  0
    3.0122  -11.9462    5.0792 H   0  0  0  0  0  0  0  0  0  0  0  0
    3.3739   -8.9155    2.3936 H   0  0  0  0  0  0  0  0  0  0  0  0
    3.6868  -10.6044    2.0199 H   0  0  0  0  0  0  0  0  0  0  0  0
   -0.9612  -10.1995    1.8745 H   0  0  0  0  0  0  0  0  0  0  0  0
   -0.4373   -8.6486    2.5111 H   0  0  0  0  0  0  0  0  0  0  0  0
   -1.2486   -9.8098    3.5825 H   0  0  0  0  0  0  0  0  0  0  0  0
    1.5188  -12.1133    3.3430 H   0  0  0  0  0  0  0  0  0  0  0  0
    1.0445  -11.6468    5.6061 H   0  0  0  0  0  0  0  0  0  0  0  0
   -0.1206  -10.3523    5.8010 H   0  0  0  0  0  0  0  0  0  0  0  0
    1.4587  -10.2547    6.5820 H   0  0  0  0  0  0  0  0  0  0  0  0
    4.9587   -8.4666    2.7168 H   0  0  0  0  0  0  0  0  0  0  0  0
    6.2973   -7.6310    5.7781 H   0  0  0  0  0  0  0  0  0  0  0  0
    7.3131   -5.8145    4.0246 H   0  0  0  0  0  0  0  0  0  0  0  0
    6.3658   -5.4613    7.6752 H   0  0  0  0  0  0  0  0  0  0  0  0
    3.2243   -6.3427    2.4303 H   0  0  0  0  0  0  0  0  0  0  0  0
    6.6779   -7.0367    1.6158 H   0  0  0  0  0  0  0  0  0  0  0  0
    6.4668   -5.8725    0.2340 H   0  0  0  0  0  0  0  0  0  0  0  0
    6.0986   -3.4397   -0.0134 H   0  0  0  0  0  0  0  0  0  0  0  0
    4.5405   -3.0673   -0.7074 H   0  0  0  0  0  0  0  0  0  0  0  0
    5.0406   -4.6889   -0.6638 H   0  0  0  0  0  0  0  0  0  0  0  0
    2.8672   -3.8843    0.2339 H   0  0  0  0  0  0  0  0  0  0  0  0
    6.3857   -2.5310    2.0399 H   0  0  0  0  0  0  0  0  0  0  0  0
    5.6992   -1.6073    3.3188 H   0  0  0  0  0  0  0  0  0  0  0  0
    5.7037   -0.9791    1.6766 H   0  0  0  0  0  0  0  0  0  0  0  0
    3.8878   -1.3836    0.1275 H   0  0  0  0  0  0  0  0  0  0  0  0
    3.2202   -0.5992    1.4598 H   0  0  0  0  0  0  0  0  0  0  0  0
    2.3883   -2.0063    0.8158 H   0  0  0  0  0  0  0  0  0  0  0  0
    1.7404   -1.2563    3.0679 H   0  0  0  0  0  0  0  0  0  0  0  0
    4.9096   -0.3682    5.9960 H   0  0  0  0  0  0  0  0  0  0  0  0
    3.4962    0.4772    6.5762 H   0  0  0  0  0  0  0  0  0  0  0  0
    3.8755   -3.4019    5.9455 H   0  0  0  0  0  0  0  0  0  0  0  0
    3.1863   -2.0535    9.7171 H   0  0  0  0  0  0  0  0  0  0  0  0
    4.9367   -0.1006    8.2345 H   0  0  0  0  0  0  0  0  0  0  0  0
    4.7093   -0.2475    9.9408 H   0  0  0  0  0  0  0  0  0  0  0  0
    3.3728    0.3355    8.9740 H   0  0  0  0  0  0  0  0  0  0  0  0
    5.5760   -2.7261    7.9683 H   0  0  0  0  0  0  0  0  0  0  0  0
    4.8160   -3.7562    9.1808 H   0  0  0  0  0  0  0  0  0  0  0  0
    5.6941   -2.3412    9.6588 H   0  0  0  0  0  0  0  0  0  0  0  0
   -0.7567   -2.1756    6.7722 H   0  0  0  0  0  0  0  0  0  0  0  0
   -1.2776   -4.2867    7.6334 H   0  0  0  0  0  0  0  0  0  0  0  0
   -0.2377   -5.1473    6.5439 H   0  0  0  0  0  0  0  0  0  0  0  0
    0.5275   -3.4004    8.9743 H   0  0  0  0  0  0  0  0  0  0  0  0
    0.8683   -5.0625    8.7306 H   0  0  0  0  0  0  0  0  0  0  0  0
    2.7936   -4.0030    8.6275 H   0  0  0  0  0  0  0  0  0  0  0  0
    1.8302   -5.4931    6.6528 H   0  0  0  0  0  0  0  0  0  0  0  0
  1  2  1  0
  1 69  1  0
  1 70  1  0
  1 71  1  0
  2  3  1  0
  2  4  1  0
  2 72  1  0
  3 73  1  0
  3 74  1  0
  3 75  1  0
  4 10  1  0
  4  5  1  1
  4  6  1  0
  5 76  1  0
  6  7  1  0
 68  7  1  1
  7  8  1  1
  7  9  1  0
  8 77  1  0
 10  9  1  1
  9 78  1  0
  9 79  1  0
 10 68  1  0
 10 11  1  0
 11 24  1  6
 11 12  1  0
 11 25  1  0
 12 13  1  0
 12 80  1  0
 12 81  1  0
 13 20  1  0
 13 14  1  6
 13 15  1  0
 14 82  1  0
 15 16  1  0
 15 83  1  0
 15 84  1  0
 16 17  1  0
 17 18  1  0
 17 19  1  1
 17 20  1  0
 18 85  1  0
 18 86  1  0
 18 87  1  0
 19 88  1  0
 20 21  1  1
 20 22  1  0
 21 89  1  0
 21 90  1  0
 21 91  1  0
 22 23  2  0
 22 24  1  0
 25 33  1  0
 25 26  1  6
 25 27  1  0
 26 92  1  0
 27 28  1  0
 27 29  1  0
 27 93  1  1
 28 94  1  0
 29 68  1  0
 29 30  1  1
 29 31  1  0
 30 95  1  0
 31 32  2  0
 31 33  1  0
 33 34  1  6
 33 35  1  0
 34 96  1  0
 35 37  1  1
 35 36  1  0
 35 38  1  0
 36 37  1  0
 36 97  1  0
 36 98  1  0
 38 39  1  0
 38 40  1  6
 38 41  1  0
 39 99  1  0
 39100  1  0
 39101  1  0
 40102  1  0
 41 42  1  0
 41 43  1  0
 41 44  1  0
 42103  1  0
 42104  1  0
 42105  1  0
 43106  1  0
 43107  1  0
 43108  1  0
 44 45  1  0
 45 57  1  0
 45 46  1  0
 45109  1  6
 46 47  2  0
 46 48  1  1
 48 49  1  0
 48110  1  0
 48111  1  0
 49 57  1  0
 49 50  1  6
 49 51  1  0
 50112  1  0
 51 63  1  0
 51 52  1  1
 51 55  1  0
 52 53  1  0
 52 54  1  0
 52113  1  0
 53114  1  0
 53115  1  0
 53116  1  0
 54117  1  0
 54118  1  0
 54119  1  0
 55 56  1  0
 57 56  1  1
 57 58  1  0
 58 60  1  0
 58 66  1  0
 58 59  1  6
 59 60  1  0
 60 61  1  0
 60120  1  1
 61 62  1  0
 61121  1  0
 61122  1  0
 62 63  1  0
 62123  1  0
 62124  1  0
 63 64  1  0
 63125  1  1
 64 65  1  0
 64 68  1  0
 64126  1  1
 65 66  1  0
 66 67  2  0
M  END
>  <i_m_ct_stereo_status>  (102) 
1

>  <s_m_source_file>  (102) 
/var/tmp/pbs.5075288.sched01/tmpqqnbnjfs/192vg5g1vka.sdf

>  <i_m_source_file_index>  (102) 
4

>  <i_lp_mmshare_version>  (102) 
48012

>  <i_f3d_flags>  (102) 
2

>  <s_epik_input>  (102) 
W0NIM11bQ0hdKFtDSDNdKVtDQEBdMShbT0hdKU9bQ0BdKFtPSF0pKFtDSDJdMilbQ0BdMyhbQ0BdKFtPSF0pKEM0PU8pW0NAQEhdNVtPSF0pW0NIXShPQzY9TylbQ0BIXShbQ0BAXShTUzcpKFtDSF0oW0NIM10pW0NIM10pW0NAXTgoW09IXSlbQ0gyXVtTK105W08tXSlbQ0gyXVtDSDJdW0NIXShPJTEwKUM2JTEwW0NAQF03OFtDQEBIXTlPQyhbQ0gzXSkoW0NIM10pW0NAXShbQ0gzXSkoW09IXSlDNihbQ0gyXU82KVtDQEBdNChbT0hdKVtDQF01KFtPSF0pW0NAQF00KFtDQF0xMjMpW0NIMl1bQ0BAXTEoW09IXSlbQ0BAXShbQ0gzXSkoQyg9TylPNClbQ0BdKFtDSDNdKShbT0hdKU9bQ0gyXTE=

>  <s_epik_cmdline>  (102) 
J2VwaWtfcHl0aG9uJywgJy1waHQnLCAnMi4wJywgJy1waCcsICc3LjAnLCAnLXRuJywgJzgnLCAnLW1hJywgJzIwMCcsICctaW1hZScsICc8aW5maWxlLm1hZT4nLCAnLW9tYWUnLCAnPG91dGZpbGUubWFlPic=

>  <r_lp_tautomer_probability>  (102) 
1

>  <r_epik_Ionization_Penalty>  (102) 
0.000298321

>  <r_epik_Ionization_Penalty_Charging>  (102) 
0

>  <r_epik_Ionization_Penalty_Neutral>  (102) 
0.000298321

>  <r_epik_State_Penalty>  (102) 
-0

>  <r_epik_Charging_Adjusted_Penalty>  (102) 
0

>  <i_epik_Tot_Q>  (102) 
0

>  <i_epik_Tot_abs_Q>  (102) 
2

>  <s_epik_Chemistry_Notes>  (102) 
This compound has an ester and may undergo hydrolysis at high or low pH. This compound contains an acetal/aminal-like group ( X-CH(R)-Y where X, Y are N, S, or O) that may be acid/base labile, releasing an aldehyde.

>  <s_lp_Force_Field>  (102) 
OPLS3e

>  <r_lp_Energy>  (102) 
365.025

>  <b_lp_Chiralities_Consistent>  (102) 
0

>  <s_lp_Variant>  (102) 
70:0-1

>  <s_i_glide_gridfile>  (102) 
pfpi4k_grid

>  <i_i_glide_lignum>  (102) 
4

>  <i_i_glide_rotatable_bonds>  (102) 
12

>  <r_i_docking_score>  (102) 
-3.20176

>  <r_i_glide_ligand_efficiency>  (102) 
-0.0470847

>  <r_i_glide_ligand_efficiency_sa>  (102) 
-0.192184

>  <r_i_glide_ligand_efficiency_ln>  (102) 
-0.613422

>  <r_i_glide_gscore>  (102) 
-3.20176

>  <r_i_glide_lipo>  (102) 
-0.264464

>  <r_i_glide_hbond>  (102) 
-0.00251525

>  <r_i_glide_metal>  (102) 
-0

>  <r_i_glide_rewards>  (102) 
-1.14176

>  <r_i_glide_evdw>  (102) 
-30.4086

>  <r_i_glide_ecoul>  (102) 
-1.72863

>  <r_i_glide_erotb>  (102) 
0

>  <r_i_glide_esite>  (102) 
-0.013302

>  <r_i_glide_emodel>  (102) 
-47.657

>  <r_i_glide_energy>  (102) 
-32.1372

>  <r_i_glide_einternal>  (102) 
3.15776

>  <r_i_glide_intrahb_reward>  (102) 
-1

>  <i_i_glide_confnum>  (102) 
2

>  <i_i_glide_posenum>  (102) 
29

>  <r_i_glide_eff_state_penalty>  (102) 
0

>  <ligand_id>  (102) 
70

>  <original_smiles>  (102) 
CC(C)C1(O)OC2(O)CC13C1(CC4(O)COC(C)(O)C4(C)C(=O)O1)C1(O)C(O)C4(O)C(=O)C1(O)C1(CO1)C(C)(O)C(C)(C)OC1[S+]([O-])CC5(O)C6(C(C)C)SSC15C15OC1CCC6C(OC5=O)C243

>  <smiles>  (102) 
[H]OC1([H])C2(O[H])C(=O)C3(O[H])C4(OC4([H])[H])C(O[H])(C([H])([H])[H])C(C([H])([H])[H])(C([H])([H])[H])OC4([H])S(=O)C([H])([H])C5(O[H])C46SSC5(C([H])(C([H])([H])[H])C([H])([H])[H])C4([H])C([H])([H])C([H])([H])C5([H])OC56C(=O)OC4([H])C24C2(O[H])OC(O[H])(C([H])(C([H])([H])[H])C([H])([H])[H])C4(C2([H])[H])C2(OC(=O)C4(C([H])([H])[H])C(O[H])(C([H])([H])[H])OC([H])([H])C4(O[H])C2([H])[H])C13O[H]

$$$$
70:0:2
     RDKit          3D

126138  0  0  1  0  0  0  0  0999 V2000
    6.0412   -9.6169    4.2715 C   0  0  0  0  0  0  0  0  0  0  0  0
    6.2744   -8.9240    5.6455 C   0  0  0  0  0  0  0  0  0  0  0  0
    7.0612   -9.9367    6.5070 C   0  0  0  0  0  0  0  0  0  0  0  0
    4.9229   -8.4408    6.3627 C   0  0  1  0  0  0  0  0  0  0  0  0
    4.3057   -9.6703    6.6923 O   0  0  0  0  0  0  0  0  0  0  0  0
    5.3822   -7.8197    7.4851 O   0  0  0  0  0  0  0  0  0  0  0  0
    4.3890   -6.8536    7.8080 C   0  0  2  0  0  0  0  0  0  0  0  0
    4.4675   -6.5132    9.1680 O   0  0  0  0  0  0  0  0  0  0  0  0
    3.0138   -7.4197    7.3433 C   0  0  0  0  0  0  0  0  0  0  0  0
    3.8198   -7.2522    6.0462 C   0  0  2  0  0  0  0  0  0  0  0  0
    3.2115   -7.1679    4.5651 C   0  0  1  0  0  0  0  0  0  0  0  0
    2.9924   -8.6005    3.9599 C   0  0  0  0  0  0  0  0  0  0  0  0
    1.6449   -8.8727    3.3163 C   0  0  2  0  0  0  0  0  0  0  0  0
    1.7169  -10.2523    2.9575 O   0  0  0  0  0  0  0  0  0  0  0  0
    1.3123   -8.0899    2.0389 C   0  0  0  0  0  0  0  0  0  0  0  0
   -0.1028   -7.9071    2.0562 O   0  0  0  0  0  0  0  0  0  0  0  0
   -0.6691   -8.5160    3.1739 C   0  0  1  0  0  0  0  0  0  0  0  0
   -1.9340   -7.7275    3.4901 C   0  0  0  0  0  0  0  0  0  0  0  0
   -1.0871   -9.8284    2.8760 O   0  0  0  0  0  0  0  0  0  0  0  0
    0.4800   -8.5402    4.2401 C   0  0  1  0  0  0  0  0  0  0  0  0
    0.2362   -9.5689    5.3715 C   0  0  0  0  0  0  0  0  0  0  0  0
    0.6896   -7.1635    4.9316 C   0  0  0  0  0  0  0  0  0  0  0  0
   -0.2138   -6.6155    5.5492 O   0  0  0  0  0  0  0  0  0  0  0  0
    1.9364   -6.5761    4.8798 O   0  0  0  0  0  0  0  0  0  0  0  0
    4.0910   -6.1537    3.5929 C   0  0  2  0  0  0  0  0  0  0  0  0
    4.2525   -6.7595    2.3369 O   0  0  0  0  0  0  0  0  0  0  0  0
    5.4663   -6.0976    4.2899 C   0  0  1  0  0  0  0  0  0  0  0  0
    6.5792   -5.7297    3.4538 O   0  0  0  0  0  0  0  0  0  0  0  0
    5.2159   -5.1964    5.5554 C   0  0  1  0  0  0  0  0  0  0  0  0
    6.4300   -4.8847    6.2160 O   0  0  0  0  0  0  0  0  0  0  0  0
    4.7436   -4.0843    4.6081 C   0  0  0  0  0  0  0  0  0  0  0  0
    5.4142   -3.0303    4.4815 O   0  0  0  0  0  0  0  0  0  0  0  0
    3.8065   -4.5577    3.4599 C   0  0  2  0  0  0  0  0  0  0  0  0
    2.4455   -4.3998    3.6354 O   0  0  0  0  0  0  0  0  0  0  0  0
    4.0343   -3.5779    2.1845 C   0  0  2  0  0  0  0  0  0  0  0  0
    4.5721   -4.1888    0.8794 C   0  0  0  0  0  0  0  0  0  0  0  0
    5.4231   -3.5069    1.7798 O   0  0  0  0  0  0  0  0  0  0  0  0
    3.2301   -2.1595    2.1199 C   0  0  1  0  0  0  0  0  0  0  0  0
    3.3996   -1.5506    0.6941 C   0  0  0  0  0  0  0  0  0  0  0  0
    1.8636   -2.3807    2.0052 O   0  0  0  0  0  0  0  0  0  0  0  0
    3.3769   -0.9649    3.2210 C   0  0  0  0  0  0  0  0  0  0  0  0
    4.8483   -0.4878    3.1657 C   0  0  0  0  0  0  0  0  0  0  0  0
    2.4614    0.2684    2.8670 C   0  0  0  0  0  0  0  0  0  0  0  0
    3.0316   -1.3292    4.6065 O   0  0  0  0  0  0  0  0  0  0  0  0
    2.5394   -0.3884    5.6530 C   0  0  2  0  0  0  0  0  0  0  0  0
    3.6770    0.9839    6.1973 S   0  0  0  0  0  0  0  0  0  0  0  0
    4.6760    1.4425    5.1122 O   0  0  0  0  0  0  0  0  0  0  0  0
    4.5660   -0.0644    7.4515 C   0  0  0  0  0  0  0  0  0  0  0  0
    3.7659   -1.4074    7.5560 C   0  0  1  0  0  0  0  0  0  0  0  0
    4.5732   -2.1635    6.7483 O   0  0  0  0  0  0  0  0  0  0  0  0
    3.7422   -2.2710    8.8576 C   0  0  1  0  0  0  0  0  0  0  0  0
    5.1220   -2.3960    9.6610 C   0  0  0  0  0  0  0  0  0  0  0  0
    5.8264   -1.0824   10.0747 C   0  0  0  0  0  0  0  0  0  0  0  0
    6.2169   -3.3246    9.0799 C   0  0  0  0  0  0  0  0  0  0  0  0
    2.6752   -1.1813    9.8988 S   0  0  0  0  0  0  0  0  0  0  0  0
    1.8342    0.0468    8.4491 S   0  0  0  0  0  0  0  0  0  0  0  0
    2.2988   -1.0695    7.0697 C   0  0  1  0  0  0  0  0  0  0  0  0
    1.2024   -2.1780    7.1240 C   0  0  2  0  0  0  0  0  0  0  0  0
   -0.2078   -1.9158    7.2452 O   0  0  0  0  0  0  0  0  0  0  0  0
    0.4012   -2.4922    8.4068 C   0  0  1  0  0  0  0  0  0  0  0  0
    0.4483   -3.9247    8.8534 C   0  0  0  0  0  0  0  0  0  0  0  0
    1.8583   -4.1973    9.4688 C   0  0  0  0  0  0  0  0  0  0  0  0
    3.1340   -3.7977    8.6257 C   0  0  1  0  0  0  0  0  0  0  0  0
    3.0706   -4.6026    7.1970 C   0  0  1  0  0  0  0  0  0  0  0  0
    2.5521   -3.8197    6.1529 O   0  0  0  0  0  0  0  0  0  0  0  0
    1.3515   -3.2520    6.1354 C   0  0  0  0  0  0  0  0  0  0  0  0
    0.4459   -3.5539    5.3697 O   0  0  0  0  0  0  0  0  0  0  0  0
    4.1583   -5.7841    6.6574 C   0  0  2  0  0  0  0  0  0  0  0  0
    5.3444  -10.4520    4.3514 H   0  0  0  0  0  0  0  0  0  0  0  0
    6.9732  -10.0318    3.8971 H   0  0  0  0  0  0  0  0  0  0  0  0
    5.6772   -8.9480    3.4983 H   0  0  0  0  0  0  0  0  0  0  0  0
    6.9706   -8.0797    5.5690 H   0  0  0  0  0  0  0  0  0  0  0  0
    6.5684  -10.9086    6.6021 H   0  0  0  0  0  0  0  0  0  0  0  0
    7.2787   -9.5397    7.4978 H   0  0  0  0  0  0  0  0  0  0  0  0
    8.0189  -10.1343    6.0248 H   0  0  0  0  0  0  0  0  0  0  0  0
    4.9398  -10.2205    7.1123 H   0  0  0  0  0  0  0  0  0  0  0  0
    5.3447   -6.2211    9.3289 H   0  0  0  0  0  0  0  0  0  0  0  0
    2.7752   -8.3904    7.7555 H   0  0  0  0  0  0  0  0  0  0  0  0
    2.0802   -6.8923    7.4596 H   0  0  0  0  0  0  0  0  0  0  0  0
    3.7375   -8.9128    3.2392 H   0  0  0  0  0  0  0  0  0  0  0  0
    3.0361   -9.3227    4.7576 H   0  0  0  0  0  0  0  0  0  0  0  0
    1.8119  -10.7742    3.7408 H   0  0  0  0  0  0  0  0  0  0  0  0
    1.7406   -7.0952    2.0551 H   0  0  0  0  0  0  0  0  0  0  0  0
    1.6693   -8.5863    1.1344 H   0  0  0  0  0  0  0  0  0  0  0  0
   -2.6561   -7.8982    2.6932 H   0  0  0  0  0  0  0  0  0  0  0  0
   -1.7396   -6.6545    3.5381 H   0  0  0  0  0  0  0  0  0  0  0  0
   -2.3331   -8.0783    4.4395 H   0  0  0  0  0  0  0  0  0  0  0  0
   -1.3764  -10.2449    3.6911 H   0  0  0  0  0  0  0  0  0  0  0  0
    0.1684  -10.5961    5.0027 H   0  0  0  0  0  0  0  0  0  0  0  0
   -0.6954   -9.3548    5.9028 H   0  0  0  0  0  0  0  0  0  0  0  0
    1.0344   -9.5625    6.1132 H   0  0  0  0  0  0  0  0  0  0  0  0
    4.5554   -7.6487    2.4617 H   0  0  0  0  0  0  0  0  0  0  0  0
    5.7380   -7.0726    4.4888 H   0  0  0  0  0  0  0  0  0  0  0  0
    6.4250   -4.8820    3.0629 H   0  0  0  0  0  0  0  0  0  0  0  0
    6.7139   -5.6164    6.7366 H   0  0  0  0  0  0  0  0  0  0  0  0
    2.1708   -4.8528    4.4149 H   0  0  0  0  0  0  0  0  0  0  0  0
    4.8814   -5.2319    0.7657 H   0  0  0  0  0  0  0  0  0  0  0  0
    4.4617   -3.6917   -0.0698 H   0  0  0  0  0  0  0  0  0  0  0  0
    4.4345   -1.2881    0.4630 H   0  0  0  0  0  0  0  0  0  0  0  0
    2.8009   -0.6480    0.4802 H   0  0  0  0  0  0  0  0  0  0  0  0
    3.0411   -2.2262   -0.0887 H   0  0  0  0  0  0  0  0  0  0  0  0
    1.4611   -1.6447    1.5142 H   0  0  0  0  0  0  0  0  0  0  0  0
    5.4604   -1.0796    2.4860 H   0  0  0  0  0  0  0  0  0  0  0  0
    5.3419   -0.5607    4.1301 H   0  0  0  0  0  0  0  0  0  0  0  0
    4.9312    0.5428    2.8175 H   0  0  0  0  0  0  0  0  0  0  0  0
    2.6967    0.7290    1.9151 H   0  0  0  0  0  0  0  0  0  0  0  0
    2.5908    1.0993    3.5553 H   0  0  0  0  0  0  0  0  0  0  0  0
    1.4069    0.0029    2.8640 H   0  0  0  0  0  0  0  0  0  0  0  0
    1.5979    0.0527    5.3224 H   0  0  0  0  0  0  0  0  0  0  0  0
    5.6073   -0.1817    7.1393 H   0  0  0  0  0  0  0  0  0  0  0  0
    4.5753    0.5190    8.3681 H   0  0  0  0  0  0  0  0  0  0  0  0
    4.1471   -2.9987    6.6163 H   0  0  0  0  0  0  0  0  0  0  0  0
    4.8446   -2.8488   10.6124 H   0  0  0  0  0  0  0  0  0  0  0  0
    6.3327   -0.6240    9.2286 H   0  0  0  0  0  0  0  0  0  0  0  0
    6.6137   -1.2780   10.8005 H   0  0  0  0  0  0  0  0  0  0  0  0
    5.1572   -0.3567   10.5319 H   0  0  0  0  0  0  0  0  0  0  0  0
    6.4680   -3.0724    8.0523 H   0  0  0  0  0  0  0  0  0  0  0  0
    5.9624   -4.3804    9.1206 H   0  0  0  0  0  0  0  0  0  0  0  0
    7.1432   -3.2315    9.6458 H   0  0  0  0  0  0  0  0  0  0  0  0
    0.2241   -1.8309    9.2327 H   0  0  0  0  0  0  0  0  0  0  0  0
   -0.3203   -4.0773    9.6181 H   0  0  0  0  0  0  0  0  0  0  0  0
    0.1917   -4.6173    8.0488 H   0  0  0  0  0  0  0  0  0  0  0  0
    1.9164   -3.7463   10.4560 H   0  0  0  0  0  0  0  0  0  0  0  0
    1.9091   -5.2671    9.6685 H   0  0  0  0  0  0  0  0  0  0  0  0
    3.8449   -4.3337    9.2114 H   0  0  0  0  0  0  0  0  0  0  0  0
    2.1291   -5.0977    7.3571 H   0  0  0  0  0  0  0  0  0  0  0  0
  1  2  1  0
  1 69  1  0
  1 70  1  0
  1 71  1  0
  2  3  1  0
  2  4  1  0
  2 72  1  0
  3 73  1  0
  3 74  1  0
  3 75  1  0
  4 10  1  0
  4  5  1  1
  4  6  1  0
  5 76  1  0
  6  7  1  0
 68  7  1  1
  7  8  1  1
  7  9  1  0
  8 77  1  0
 10  9  1  1
  9 78  1  0
  9 79  1  0
 10 68  1  0
 10 11  1  0
 11 24  1  1
 11 12  1  0
 11 25  1  0
 12 13  1  0
 12 80  1  0
 12 81  1  0
 13 20  1  0
 13 14  1  6
 13 15  1  0
 14 82  1  0
 15 16  1  0
 15 83  1  0
 15 84  1  0
 16 17  1  0
 17 18  1  0
 17 19  1  6
 17 20  1  0
 18 85  1  0
 18 86  1  0
 18 87  1  0
 19 88  1  0
 20 21  1  1
 20 22  1  0
 21 89  1  0
 21 90  1  0
 21 91  1  0
 22 23  2  0
 22 24  1  0
 25 33  1  0
 25 26  1  6
 25 27  1  0
 26 92  1  0
 27 28  1  0
 27 29  1  0
 27 93  1  1
 28 94  1  0
 29 68  1  0
 29 30  1  1
 29 31  1  0
 30 95  1  0
 31 32  2  0
 31 33  1  0
 33 34  1  1
 33 35  1  0
 34 96  1  0
 35 37  1  1
 35 36  1  0
 35 38  1  0
 36 37  1  0
 36 97  1  0
 36 98  1  0
 38 39  1  0
 38 40  1  6
 38 41  1  0
 39 99  1  0
 39100  1  0
 39101  1  0
 40102  1  0
 41 42  1  0
 41 43  1  0
 41 44  1  0
 42103  1  0
 42104  1  0
 42105  1  0
 43106  1  0
 43107  1  0
 43108  1  0
 44 45  1  0
 45 57  1  0
 45 46  1  0
 45109  1  6
 46 47  2  0
 46 48  1  1
 48 49  1  0
 48110  1  0
 48111  1  0
 49 57  1  0
 49 50  1  6
 49 51  1  0
 50112  1  0
 51 63  1  0
 51 52  1  1
 51 55  1  0
 52 53  1  0
 52 54  1  0
 52113  1  0
 53114  1  0
 53115  1  0
 53116  1  0
 54117  1  0
 54118  1  0
 54119  1  0
 55 56  1  0
 57 56  1  1
 57 58  1  0
 58 60  1  0
 58 66  1  0
 58 59  1  6
 59 60  1  0
 60 61  1  0
 60120  1  1
 61 62  1  0
 61121  1  0
 61122  1  0
 62 63  1  0
 62123  1  0
 62124  1  0
 63 64  1  0
 63125  1  1
 64 65  1  0
 64 68  1  0
 64126  1  1
 65 66  1  0
 66 67  2  0
M  END
>  <i_m_ct_stereo_status>  (103) 
1

>  <s_m_source_file>  (103) 
/var/tmp/pbs.5075288.sched01/tmpqqnbnjfs/192vg5g1vka.sdf

>  <i_m_source_file_index>  (103) 
4

>  <i_lp_mmshare_version>  (103) 
48012

>  <i_f3d_flags>  (103) 
2

>  <s_epik_input>  (103) 
W0NIM11bQ0hdKFtDSDNdKVtDQEBdMShbT0hdKU9bQ0BdKFtPSF0pKFtDSDJdMilbQ0BdMyhbQ0BdKFtPSF0pKEM0PU8pW0NAQEhdNVtPSF0pW0NIXShPQzY9TylbQ0BIXShbQ0BAXShTUzcpKFtDSF0oW0NIM10pW0NIM10pW0NAXTgoW09IXSlbQ0gyXVtTK105W08tXSlbQ0gyXVtDSDJdW0NIXShPJTEwKUM2JTEwW0NAQF03OFtDQEBIXTlPQyhbQ0gzXSkoW0NIM10pW0NAXShbQ0gzXSkoW09IXSlDNihbQ0gyXU82KVtDQEBdNChbT0hdKVtDQF01KFtPSF0pW0NAQF00KFtDQF0xMjMpW0NIMl1bQ0BAXTEoW09IXSlbQ0BAXShbQ0gzXSkoQyg9TylPNClbQ0BdKFtDSDNdKShbT0hdKU9bQ0gyXTE=

>  <s_epik_cmdline>  (103) 
J2VwaWtfcHl0aG9uJywgJy1waHQnLCAnMi4wJywgJy1waCcsICc3LjAnLCAnLXRuJywgJzgnLCAnLW1hJywgJzIwMCcsICctaW1hZScsICc8aW5maWxlLm1hZT4nLCAnLW9tYWUnLCAnPG91dGZpbGUubWFlPic=

>  <r_lp_tautomer_probability>  (103) 
1

>  <r_epik_Ionization_Penalty>  (103) 
0.000298321

>  <r_epik_Ionization_Penalty_Charging>  (103) 
0

>  <r_epik_Ionization_Penalty_Neutral>  (103) 
0.000298321

>  <r_epik_State_Penalty>  (103) 
-0

>  <r_epik_Charging_Adjusted_Penalty>  (103) 
0

>  <i_epik_Tot_Q>  (103) 
0

>  <i_epik_Tot_abs_Q>  (103) 
2

>  <s_epik_Chemistry_Notes>  (103) 
This compound has an ester and may undergo hydrolysis at high or low pH. This compound contains an acetal/aminal-like group ( X-CH(R)-Y where X, Y are N, S, or O) that may be acid/base labile, releasing an aldehyde.

>  <s_lp_Force_Field>  (103) 
OPLS3e

>  <r_lp_Energy>  (103) 
365.025

>  <b_lp_Chiralities_Consistent>  (103) 
0

>  <s_lp_Variant>  (103) 
70:0-1

>  <s_i_glide_gridfile>  (103) 
pfpi4k_grid

>  <i_i_glide_lignum>  (103) 
4

>  <i_i_glide_rotatable_bonds>  (103) 
12

>  <r_i_docking_score>  (103) 
-3.17897

>  <r_i_glide_ligand_efficiency>  (103) 
-0.0467495

>  <r_i_glide_ligand_efficiency_sa>  (103) 
-0.190815

>  <r_i_glide_ligand_efficiency_ln>  (103) 
-0.609055

>  <r_i_glide_gscore>  (103) 
-3.17897

>  <r_i_glide_lipo>  (103) 
-0.148932

>  <r_i_glide_hbond>  (103) 
-0.0155078

>  <r_i_glide_metal>  (103) 
-0

>  <r_i_glide_rewards>  (103) 
-1.00821

>  <r_i_glide_evdw>  (103) 
-31.2829

>  <r_i_glide_ecoul>  (103) 
-2.52594

>  <r_i_glide_erotb>  (103) 
0

>  <r_i_glide_esite>  (103) 
-0.0632836

>  <r_i_glide_emodel>  (103) 
-47.9594

>  <r_i_glide_energy>  (103) 
-33.8088

>  <r_i_glide_einternal>  (103) 
6.01673

>  <r_i_glide_intrahb_reward>  (103) 
-1

>  <i_i_glide_confnum>  (103) 
1

>  <i_i_glide_posenum>  (103) 
39

>  <r_i_glide_eff_state_penalty>  (103) 
0

>  <ligand_id>  (103) 
70

>  <original_smiles>  (103) 
CC(C)C1(O)OC2(O)CC13C1(CC4(O)COC(C)(O)C4(C)C(=O)O1)C1(O)C(O)C4(O)C(=O)C1(O)C1(CO1)C(C)(O)C(C)(C)OC1[S+]([O-])CC5(O)C6(C(C)C)SSC15C15OC1CCC6C(OC5=O)C243

>  <smiles>  (103) 
[H]OC1([H])C2(O[H])C(=O)C3(O[H])C4(OC4([H])[H])C(O[H])(C([H])([H])[H])C(C([H])([H])[H])(C([H])([H])[H])OC4([H])S(=O)C([H])([H])C5(O[H])C46SSC5(C([H])(C([H])([H])[H])C([H])([H])[H])C4([H])C([H])([H])C([H])([H])C5([H])OC56C(=O)OC4([H])C24C2(O[H])OC(O[H])(C([H])(C([H])([H])[H])C([H])([H])[H])C4(C2([H])[H])C2(OC(=O)C4(C([H])([H])[H])C(O[H])(C([H])([H])[H])OC([H])([H])C4(O[H])C2([H])[H])C13O[H]

$$$$
70:1:0
     RDKit          3D

126138  0  0  1  0  0  0  0  0999 V2000
    6.2426    1.6978    7.6815 C   0  0  0  0  0  0  0  0  0  0  0  0
    5.1575    2.4820    6.8391 C   0  0  0  0  0  0  0  0  0  0  0  0
    4.1797    3.3044    7.7307 C   0  0  0  0  0  0  0  0  0  0  0  0
    4.4205    1.7082    5.6346 C   0  0  1  0  0  0  0  0  0  0  0  0
    3.8126    2.7449    4.8459 O   0  0  0  0  0  0  0  0  0  0  0  0
    5.5031    1.2108    5.0063 O   0  0  0  0  0  0  0  0  0  0  0  0
    5.1058   -0.0089    4.4774 C   0  0  2  0  0  0  0  0  0  0  0  0
    6.0345   -0.4038    3.4908 O   0  0  0  0  0  0  0  0  0  0  0  0
    3.6334    0.1502    4.0141 C   0  0  0  0  0  0  0  0  0  0  0  0
    3.5557    0.3277    5.5097 C   0  0  2  0  0  0  0  0  0  0  0  0
    2.1970    0.3086    6.3809 C   0  0  2  0  0  0  0  0  0  0  0  0
    0.9967   -0.0809    5.4732 C   0  0  0  0  0  0  0  0  0  0  0  0
   -0.3817    0.1309    6.1029 C   0  0  2  0  0  0  0  0  0  0  0  0
   -0.5261   -0.7870    7.1628 O   0  0  0  0  0  0  0  0  0  0  0  0
   -1.4895   -0.1461    5.1021 C   0  0  0  0  0  0  0  0  0  0  0  0
   -1.5896    1.0727    4.4097 O   0  0  0  0  0  0  0  0  0  0  0  0
   -1.3250    2.1669    5.2231 C   0  0  1  0  0  0  0  0  0  0  0  0
   -0.5445    3.1333    4.3106 C   0  0  0  0  0  0  0  0  0  0  0  0
   -2.5268    2.8160    5.5875 O   0  0  0  0  0  0  0  0  0  0  0  0
   -0.5785    1.6064    6.5035 C   0  0  1  0  0  0  0  0  0  0  0  0
   -1.4639    1.7356    7.7840 C   0  0  0  0  0  0  0  0  0  0  0  0
    0.7507    2.3538    6.8406 C   0  0  0  0  0  0  0  0  0  0  0  0
    0.7241    3.5121    7.2504 O   0  0  0  0  0  0  0  0  0  0  0  0
    1.9465    1.6981    6.6492 O   0  0  0  0  0  0  0  0  0  0  0  0
    2.4256   -0.4674    7.8280 C   0  0  2  0  0  0  0  0  0  0  0  0
    1.6400    0.1557    8.8322 O   0  0  0  0  0  0  0  0  0  0  0  0
    3.8733   -0.1515    8.1166 C   0  0  1  0  0  0  0  0  0  0  0  0
    4.1616   -0.0929    9.5558 O   0  0  0  0  0  0  0  0  0  0  0  0
    4.7124   -1.1556    7.1940 C   0  0  1  0  0  0  0  0  0  0  0  0
    6.1058   -1.1967    7.4127 O   0  0  0  0  0  0  0  0  0  0  0  0
    4.0127   -2.2908    7.9767 C   0  0  0  0  0  0  0  0  0  0  0  0
    4.6386   -3.0744    8.7121 O   0  0  0  0  0  0  0  0  0  0  0  0
    2.4831   -2.0976    7.9911 C   0  0  2  0  0  0  0  0  0  0  0  0
    1.9111   -2.4945    6.8411 O   0  0  0  0  0  0  0  0  0  0  0  0
    1.6196   -3.0388    8.9348 C   0  0  2  0  0  0  0  0  0  0  0  0
    0.4787   -2.4386    9.7326 C   0  0  0  0  0  0  0  0  0  0  0  0
    1.7722   -2.6829   10.3163 O   0  0  0  0  0  0  0  0  0  0  0  0
    1.5635   -4.6652    8.6827 C   0  0  1  0  0  0  0  0  0  0  0  0
    2.8846   -5.3915    8.9482 C   0  0  0  0  0  0  0  0  0  0  0  0
    0.8571   -5.1369    9.8230 O   0  0  0  0  0  0  0  0  0  0  0  0
    0.7662   -5.3159    7.4168 C   0  0  0  0  0  0  0  0  0  0  0  0
    0.1110   -6.6768    7.7835 C   0  0  0  0  0  0  0  0  0  0  0  0
   -0.4383   -4.4209    6.9930 C   0  0  0  0  0  0  0  0  0  0  0  0
    1.6361   -5.8804    6.3568 O   0  0  0  0  0  0  0  0  0  0  0  0
    1.3571   -5.7196    4.9379 C   0  0  2  0  0  0  0  0  0  0  0  0
    0.8261   -6.9998    3.7314 S   0  0  0  0  0  0  0  0  0  0  0  0
   -0.6750   -7.2092    3.9383 O   0  0  0  0  0  0  0  0  0  0  0  0
    0.9852   -5.6607    2.4271 C   0  0  0  0  0  0  0  0  0  0  0  0
    2.4496   -5.0969    2.6146 C   0  0  1  0  0  0  0  0  0  0  0  0
    3.0276   -6.1571    1.8557 O   0  0  0  0  0  0  0  0  0  0  0  0
    3.1364   -3.6315    2.2035 C   0  0  1  0  0  0  0  0  0  0  0  0
    3.4478   -3.5539    0.6434 C   0  0  0  0  0  0  0  0  0  0  0  0
    4.0526   -2.2170    0.1445 C   0  0  0  0  0  0  0  0  0  0  0  0
    2.2705   -3.8951   -0.3086 C   0  0  0  0  0  0  0  0  0  0  0  0
    1.8125   -2.5314    2.4455 S   0  0  0  0  0  0  0  0  0  0  0  0
    1.6984   -3.3720    4.2247 S   0  0  0  0  0  0  0  0  0  0  0  0
    2.4965   -5.0554    4.1334 C   0  0  1  0  0  0  0  0  0  0  0  0
    3.9814   -5.4040    4.5970 C   0  0  1  0  0  0  0  0  0  0  0  0
    4.6184   -6.7003    4.6076 O   0  0  0  0  0  0  0  0  0  0  0  0
    5.0650   -5.8187    3.5609 C   0  0  2  0  0  0  0  0  0  0  0  0
    6.2341   -4.8830    3.4836 C   0  0  0  0  0  0  0  0  0  0  0  0
    5.7534   -3.6082    2.7254 C   0  0  0  0  0  0  0  0  0  0  0  0
    4.4156   -2.9478    3.1190 C   0  0  2  0  0  0  0  0  0  0  0  0
    4.5422   -2.4836    4.7554 C   0  0  2  0  0  0  0  0  0  0  0  0
    4.0808   -3.4413    5.6438 O   0  0  0  0  0  0  0  0  0  0  0  0
    4.4924   -4.6449    5.7245 C   0  0  0  0  0  0  0  0  0  0  0  0
    5.3037   -5.0717    6.5435 O   0  0  0  0  0  0  0  0  0  0  0  0
    4.4812   -1.0032    5.5388 C   0  0  2  0  0  0  0  0  0  0  0  0
    5.8013    0.9416    8.3056 H   0  0  0  0  0  0  0  0  0  0  0  0
    6.6903    2.3871    8.4150 H   0  0  0  0  0  0  0  0  0  0  0  0
    7.0492    1.3007    7.0317 H   0  0  0  0  0  0  0  0  0  0  0  0
    5.7419    3.2437    6.3133 H   0  0  0  0  0  0  0  0  0  0  0  0
    3.4648    2.6758    8.2778 H   0  0  0  0  0  0  0  0  0  0  0  0
    3.6224    4.0399    7.1188 H   0  0  0  0  0  0  0  0  0  0  0  0
    4.7634    3.8499    8.4828 H   0  0  0  0  0  0  0  0  0  0  0  0
    3.7370    2.4230    3.9679 H   0  0  0  0  0  0  0  0  0  0  0  0
    5.6652   -1.1145    3.0186 H   0  0  0  0  0  0  0  0  0  0  0  0
    3.4454    0.9860    3.3388 H   0  0  0  0  0  0  0  0  0  0  0  0
    3.0945   -0.6955    3.6430 H   0  0  0  0  0  0  0  0  0  0  0  0
    1.0364    0.5560    4.5837 H   0  0  0  0  0  0  0  0  0  0  0  0
    1.0719   -1.0801    5.0818 H   0  0  0  0  0  0  0  0  0  0  0  0
    0.2370   -0.7086    7.7253 H   0  0  0  0  0  0  0  0  0  0  0  0
   -1.2555   -0.9666    4.4257 H   0  0  0  0  0  0  0  0  0  0  0  0
   -2.4404   -0.3708    5.5754 H   0  0  0  0  0  0  0  0  0  0  0  0
   -1.1385    3.3517    3.4230 H   0  0  0  0  0  0  0  0  0  0  0  0
    0.3892    2.6844    3.9740 H   0  0  0  0  0  0  0  0  0  0  0  0
   -0.3370    4.0726    4.8200 H   0  0  0  0  0  0  0  0  0  0  0  0
   -3.0146    2.2371    6.1444 H   0  0  0  0  0  0  0  0  0  0  0  0
   -2.4127    1.2139    7.6878 H   0  0  0  0  0  0  0  0  0  0  0  0
   -1.6859    2.7769    8.0242 H   0  0  0  0  0  0  0  0  0  0  0  0
   -0.9610    1.3350    8.6682 H   0  0  0  0  0  0  0  0  0  0  0  0
    2.0166   -0.0193    9.6866 H   0  0  0  0  0  0  0  0  0  0  0  0
    3.9821    0.8730    7.8892 H   0  0  0  0  0  0  0  0  0  0  0  0
    4.2450   -0.9168    9.9730 H   0  0  0  0  0  0  0  0  0  0  0  0
    6.4947   -0.3878    7.0907 H   0  0  0  0  0  0  0  0  0  0  0  0
    2.3676   -2.0902    6.1289 H   0  0  0  0  0  0  0  0  0  0  0  0
    0.1990   -1.3943    9.6014 H   0  0  0  0  0  0  0  0  0  0  0  0
   -0.3411   -3.0739   10.0632 H   0  0  0  0  0  0  0  0  0  0  0  0
    3.5488   -5.2610    8.1172 H   0  0  0  0  0  0  0  0  0  0  0  0
    2.7520   -6.4657    9.0628 H   0  0  0  0  0  0  0  0  0  0  0  0
    3.3813   -5.0232    9.8417 H   0  0  0  0  0  0  0  0  0  0  0  0
    1.3451   -4.8717   10.5863 H   0  0  0  0  0  0  0  0  0  0  0  0
   -0.7045   -6.5743    8.5016 H   0  0  0  0  0  0  0  0  0  0  0  0
    0.8265   -7.3921    8.1887 H   0  0  0  0  0  0  0  0  0  0  0  0
   -0.3100   -7.1449    6.8959 H   0  0  0  0  0  0  0  0  0  0  0  0
   -0.9751   -4.0453    7.8639 H   0  0  0  0  0  0  0  0  0  0  0  0
   -1.1797   -4.9649    6.4071 H   0  0  0  0  0  0  0  0  0  0  0  0
   -0.1653   -3.5536    6.4020 H   0  0  0  0  0  0  0  0  0  0  0  0
    0.4013   -5.2070    4.8815 H   0  0  0  0  0  0  0  0  0  0  0  0
    0.7816   -6.0715    1.4420 H   0  0  0  0  0  0  0  0  0  0  0  0
    0.1627   -4.9542    2.6143 H   0  0  0  0  0  0  0  0  0  0  0  0
    2.7854   -6.9867    2.2395 H   0  0  0  0  0  0  0  0  0  0  0  0
    4.1851   -4.3184    0.4264 H   0  0  0  0  0  0  0  0  0  0  0  0
    3.4258   -1.3565    0.3885 H   0  0  0  0  0  0  0  0  0  0  0  0
    4.1699   -2.2187   -0.9403 H   0  0  0  0  0  0  0  0  0  0  0  0
    5.0485   -2.0276    0.5388 H   0  0  0  0  0  0  0  0  0  0  0  0
    1.4730   -3.1528   -0.2831 H   0  0  0  0  0  0  0  0  0  0  0  0
    1.8528   -4.8850   -0.1377 H   0  0  0  0  0  0  0  0  0  0  0  0
    2.6008   -3.8946   -1.3487 H   0  0  0  0  0  0  0  0  0  0  0  0
    5.0588   -6.4371    2.6780 H   0  0  0  0  0  0  0  0  0  0  0  0
    6.6560   -4.6877    4.4595 H   0  0  0  0  0  0  0  0  0  0  0  0
    7.0359   -5.3637    2.9320 H   0  0  0  0  0  0  0  0  0  0  0  0
    6.5016   -2.8287    2.7997 H   0  0  0  0  0  0  0  0  0  0  0  0
    5.8221   -3.8258    1.6651 H   0  0  0  0  0  0  0  0  0  0  0  0
    4.4644   -1.9901    2.6284 H   0  0  0  0  0  0  0  0  0  0  0  0
    5.6192   -2.6195    4.8740 H   0  0  0  0  0  0  0  0  0  0  0  0
  1  2  1  0
  1 69  1  0
  1 70  1  0
  1 71  1  0
  2  3  1  0
  2  4  1  0
  2 72  1  0
  3 73  1  0
  3 74  1  0
  3 75  1  0
  4 10  1  0
  4  5  1  6
  4  6  1  0
  5 76  1  0
  6  7  1  0
 68  7  1  6
  7  8  1  6
  7  9  1  0
  8 77  1  0
 10  9  1  6
  9 78  1  0
  9 79  1  0
 10 68  1  0
 10 11  1  0
 11 24  1  1
 11 12  1  0
 11 25  1  0
 12 13  1  0
 12 80  1  0
 12 81  1  0
 13 20  1  0
 13 14  1  1
 13 15  1  0
 14 82  1  0
 15 16  1  0
 15 83  1  0
 15 84  1  0
 16 17  1  0
 17 18  1  0
 17 19  1  1
 17 20  1  0
 18 85  1  0
 18 86  1  0
 18 87  1  0
 19 88  1  0
 20 21  1  1
 20 22  1  0
 21 89  1  0
 21 90  1  0
 21 91  1  0
 22 23  2  0
 22 24  1  0
 25 33  1  0
 25 26  1  1
 25 27  1  0
 26 92  1  0
 27 28  1  0
 27 29  1  0
 27 93  1  6
 28 94  1  0
 29 68  1  0
 29 30  1  6
 29 31  1  0
 30 95  1  0
 31 32  2  0
 31 33  1  0
 33 34  1  6
 33 35  1  0
 34 96  1  0
 35 37  1  1
 35 36  1  0
 35 38  1  0
 36 37  1  0
 36 97  1  0
 36 98  1  0
 38 39  1  0
 38 40  1  1
 38 41  1  0
 39 99  1  0
 39100  1  0
 39101  1  0
 40102  1  0
 41 42  1  0
 41 43  1  0
 41 44  1  0
 42103  1  0
 42104  1  0
 42105  1  0
 43106  1  0
 43107  1  0
 43108  1  0
 44 45  1  0
 45 57  1  0
 45 46  1  0
 45109  1  1
 46 47  2  0
 46 48  1  6
 48 49  1  0
 48110  1  0
 48111  1  0
 49 57  1  0
 49 50  1  6
 49 51  1  0
 50112  1  0
 51 63  1  0
 51 52  1  6
 51 55  1  0
 52 53  1  0
 52 54  1  0
 52113  1  0
 53114  1  0
 53115  1  0
 53116  1  0
 54117  1  0
 54118  1  0
 54119  1  0
 55 56  1  0
 57 56  1  6
 57 58  1  0
 58 60  1  0
 58 66  1  0
 58 59  1  1
 59 60  1  0
 60 61  1  0
 60120  1  6
 61 62  1  0
 61121  1  0
 61122  1  0
 62 63  1  0
 62123  1  0
 62124  1  0
 63 64  1  0
 63125  1  6
 64 65  1  0
 64 68  1  0
 64126  1  1
 65 66  1  0
 66 67  2  0
M  END
>  <i_m_ct_stereo_status>  (104) 
1

>  <s_m_source_file>  (104) 
/var/tmp/pbs.5075288.sched01/tmpqqnbnjfs/192vg5g1vka.sdf

>  <i_m_source_file_index>  (104) 
5

>  <i_lp_mmshare_version>  (104) 
48012

>  <i_f3d_flags>  (104) 
0

>  <s_epik_input>  (104) 
W0NIM11bQ0hdKFtDSDNdKVtDQEBdMShbT0hdKU9bQ0BdKFtPSF0pKFtDSDJdMilbQ0BdMyhbQ0BdKFtPSF0pKEM0PU8pW0NAQEhdNVtPSF0pW0NIXShPQzY9TylbQ0BIXShbQ0BAXShTUzcpKFtDSF0oW0NIM10pW0NIM10pW0NAXTgoW09IXSlbQ0gyXVtTK105W08tXSlbQ0gyXVtDSDJdW0NIXShPJTEwKUM2JTEwW0NAQF03OFtDQEBIXTlPQyhbQ0gzXSkoW0NIM10pW0NAXShbQ0gzXSkoW09IXSlDNihbQ0gyXU82KVtDQEBdNChbT0hdKVtDQF01KFtPSF0pW0NAQF00KFtDQF0xMjMpW0NIMl1bQ0BAXTEoW09IXSlbQ0BAXShbQ0gzXSkoQyg9TylPNClbQ0BdKFtDSDNdKShbT0hdKU9bQ0gyXTE=

>  <s_epik_cmdline>  (104) 
J2VwaWtfcHl0aG9uJywgJy1waHQnLCAnMi4wJywgJy1waCcsICc3LjAnLCAnLXRuJywgJzgnLCAnLW1hJywgJzIwMCcsICctaW1hZScsICc8aW5maWxlLm1hZT4nLCAnLW9tYWUnLCAnPG91dGZpbGUubWFlPic=

>  <r_lp_tautomer_probability>  (104) 
1

>  <r_epik_Ionization_Penalty>  (104) 
0.000298321

>  <r_epik_Ionization_Penalty_Charging>  (104) 
0

>  <r_epik_Ionization_Penalty_Neutral>  (104) 
0.000298321

>  <r_epik_State_Penalty>  (104) 
-0

>  <r_epik_Charging_Adjusted_Penalty>  (104) 
0

>  <i_epik_Tot_Q>  (104) 
0

>  <i_epik_Tot_abs_Q>  (104) 
2

>  <s_epik_Chemistry_Notes>  (104) 
This compound has an ester and may undergo hydrolysis at high or low pH. This compound contains an acetal/aminal-like group ( X-CH(R)-Y where X, Y are N, S, or O) that may be acid/base labile, releasing an aldehyde.

>  <s_lp_Force_Field>  (104) 
OPLS3e

>  <r_lp_Energy>  (104) 
438.923

>  <b_lp_Chiralities_Consistent>  (104) 
1

>  <s_lp_Variant>  (104) 
70:0-2

>  <s_i_glide_gridfile>  (104) 
pfpi4k_grid

>  <i_i_glide_lignum>  (104) 
5

>  <i_i_glide_rotatable_bonds>  (104) 
12

>  <r_i_docking_score>  (104) 
-1.33673

>  <r_i_glide_ligand_efficiency>  (104) 
-0.0196579

>  <r_i_glide_ligand_efficiency_sa>  (104) 
-0.0802366

>  <r_i_glide_ligand_efficiency_ln>  (104) 
-0.256103

>  <r_i_glide_gscore>  (104) 
-1.33673

>  <r_i_glide_lipo>  (104) 
-0.0857929

>  <r_i_glide_hbond>  (104) 
0

>  <r_i_glide_metal>  (104) 
-0

>  <r_i_glide_rewards>  (104) 
-0.120323

>  <r_i_glide_evdw>  (104) 
-20.0669

>  <r_i_glide_ecoul>  (104) 
-1.92854

>  <r_i_glide_erotb>  (104) 
0

>  <r_i_glide_esite>  (104) 
-0.0304804

>  <r_i_glide_emodel>  (104) 
-17.9585

>  <r_i_glide_energy>  (104) 
-21.9955

>  <r_i_glide_einternal>  (104) 
2.67227

>  <r_i_glide_intrahb_reward>  (104) 
-0

>  <i_i_glide_confnum>  (104) 
1

>  <i_i_glide_posenum>  (104) 
8

>  <r_i_glide_eff_state_penalty>  (104) 
0

>  <ligand_id>  (104) 
70

>  <original_smiles>  (104) 
CC(C)C1(O)OC2(O)CC13C1(CC4(O)COC(C)(O)C4(C)C(=O)O1)C1(O)C(O)C4(O)C(=O)C1(O)C1(CO1)C(C)(O)C(C)(C)OC1[S+]([O-])CC5(O)C6(C(C)C)SSC15C15OC1CCC6C(OC5=O)C243

>  <smiles>  (104) 
[H]OC1([H])C2(O[H])C(=O)C3(O[H])C4(OC4([H])[H])C(O[H])(C([H])([H])[H])C(C([H])([H])[H])(C([H])([H])[H])OC4([H])S(=O)C([H])([H])C5(O[H])C46SSC5(C([H])(C([H])([H])[H])C([H])([H])[H])C4([H])C([H])([H])C([H])([H])C5([H])OC56C(=O)OC4([H])C24C2(O[H])OC(O[H])(C([H])(C([H])([H])[H])C([H])([H])[H])C4(C2([H])[H])C2(OC(=O)C4(C([H])([H])[H])C(O[H])(C([H])([H])[H])OC([H])([H])C4(O[H])C2([H])[H])C13O[H]

$$$$
70:1:1
     RDKit          3D

126138  0  0  1  0  0  0  0  0999 V2000
    6.1260    1.9490    7.6210 C   0  0  0  0  0  0  0  0  0  0  0  0
    5.0642    2.6924    6.7358 C   0  0  0  0  0  0  0  0  0  0  0  0
    4.0706    3.5468    7.5694 C   0  0  0  0  0  0  0  0  0  0  0  0
    4.3503    1.8940    5.5293 C   0  0  1  0  0  0  0  0  0  0  0  0
    3.7832    2.9201    4.7060 O   0  0  0  0  0  0  0  0  0  0  0  0
    5.4481    1.2997    4.9781 O   0  0  0  0  0  0  0  0  0  0  0  0
    5.0615    0.1419    4.4192 C   0  0  2  0  0  0  0  0  0  0  0  0
    6.0443   -0.2651    3.5009 O   0  0  0  0  0  0  0  0  0  0  0  0
    3.6038    0.3187    3.9114 C   0  0  0  0  0  0  0  0  0  0  0  0
    3.4836    0.5182    5.4100 C   0  0  2  0  0  0  0  0  0  0  0  0
    2.1187    0.5133    6.2551 C   0  0  2  0  0  0  0  0  0  0  0  0
    0.9380    0.1066    5.3309 C   0  0  0  0  0  0  0  0  0  0  0  0
   -0.4428    0.3245    5.9375 C   0  0  2  0  0  0  0  0  0  0  0  0
   -0.5972   -0.5890    7.0023 O   0  0  0  0  0  0  0  0  0  0  0  0
   -1.5383    0.0310    4.9226 C   0  0  0  0  0  0  0  0  0  0  0  0
   -1.6293    1.2409    4.2087 O   0  0  0  0  0  0  0  0  0  0  0  0
   -1.3811    2.3482    5.0060 C   0  0  1  0  0  0  0  0  0  0  0  0
   -0.5859    3.3030    4.0953 C   0  0  0  0  0  0  0  0  0  0  0  0
   -2.5851    2.9947    5.3222 O   0  0  0  0  0  0  0  0  0  0  0  0
   -0.6546    1.8086    6.3131 C   0  0  1  0  0  0  0  0  0  0  0  0
   -1.5662    1.9538    7.5760 C   0  0  0  0  0  0  0  0  0  0  0  0
    0.6681    2.5647    6.6598 C   0  0  0  0  0  0  0  0  0  0  0  0
    0.6365    3.7272    7.0579 O   0  0  0  0  0  0  0  0  0  0  0  0
    1.8720    1.9067    6.4895 O   0  0  0  0  0  0  0  0  0  0  0  0
    2.3083   -0.2459    7.7177 C   0  0  2  0  0  0  0  0  0  0  0  0
    1.5465    0.4287    8.7090 O   0  0  0  0  0  0  0  0  0  0  0  0
    3.7575    0.0603    8.0490 C   0  0  1  0  0  0  0  0  0  0  0  0
    4.0581    0.1786    9.4684 O   0  0  0  0  0  0  0  0  0  0  0  0
    4.6285   -0.9305    7.1328 C   0  0  1  0  0  0  0  0  0  0  0  0
    6.0196   -0.9669    7.3713 O   0  0  0  0  0  0  0  0  0  0  0  0
    3.9198   -2.0538    7.9306 C   0  0  0  0  0  0  0  0  0  0  0  0
    4.5327   -2.8298    8.6762 O   0  0  0  0  0  0  0  0  0  0  0  0
    2.3837   -1.8677    7.9083 C   0  0  2  0  0  0  0  0  0  0  0  0
    1.8375   -2.2805    6.7583 O   0  0  0  0  0  0  0  0  0  0  0  0
    1.5021   -2.8146    8.8518 C   0  0  2  0  0  0  0  0  0  0  0  0
    0.3535   -2.1897    9.6081 C   0  0  0  0  0  0  0  0  0  0  0  0
    1.6384   -2.4270   10.2300 O   0  0  0  0  0  0  0  0  0  0  0  0
    1.4470   -4.4349    8.6192 C   0  0  1  0  0  0  0  0  0  0  0  0
    2.7632   -5.1489    8.9186 C   0  0  0  0  0  0  0  0  0  0  0  0
    0.7127   -4.8933    9.7366 O   0  0  0  0  0  0  0  0  0  0  0  0
    0.6765   -5.1004    7.3460 C   0  0  0  0  0  0  0  0  0  0  0  0
    0.0087   -6.4571    7.7165 C   0  0  0  0  0  0  0  0  0  0  0  0
   -0.5202   -4.2083    6.8859 C   0  0  0  0  0  0  0  0  0  0  0  0
    1.5689   -5.6752    6.3097 O   0  0  0  0  0  0  0  0  0  0  0  0
    1.3165   -5.5366    4.8790 C   0  0  2  0  0  0  0  0  0  0  0  0
    0.8198   -6.8432    3.6866 S   0  0  0  0  0  0  0  0  0  0  0  0
   -0.6874   -7.0544    3.8723 O   0  0  0  0  0  0  0  0  0  0  0  0
    1.0039   -5.5160    2.3654 C   0  0  0  0  0  0  0  0  0  0  0  0
    2.4589   -4.9396    2.5762 C   0  0  1  0  0  0  0  0  0  0  0  0
    3.0442   -6.0023    1.8451 O   0  0  0  0  0  0  0  0  0  0  0  0
    3.1557   -3.4765    2.1658 C   0  0  1  0  0  0  0  0  0  0  0  0
    3.4842   -3.4234    0.6051 C   0  0  0  0  0  0  0  0  0  0  0  0
    4.0600   -2.0766    0.0863 C   0  0  0  0  0  0  0  0  0  0  0  0
    2.3383   -3.8255   -0.3635 C   0  0  0  0  0  0  0  0  0  0  0  0
    1.8178   -2.3672    2.4158 S   0  0  0  0  0  0  0  0  0  0  0  0
    1.6738   -3.2067    4.1896 S   0  0  0  0  0  0  0  0  0  0  0  0
    2.4717   -4.8861    4.0941 C   0  0  1  0  0  0  0  0  0  0  0  0
    3.9460   -5.2261    4.5924 C   0  0  1  0  0  0  0  0  0  0  0  0
    4.5886   -6.5088    4.6284 O   0  0  0  0  0  0  0  0  0  0  0  0
    5.0405   -5.6492    3.5749 C   0  0  2  0  0  0  0  0  0  0  0  0
    6.2161   -4.7190    3.5082 C   0  0  0  0  0  0  0  0  0  0  0  0
    5.7989   -3.4406    2.7306 C   0  0  0  0  0  0  0  0  0  0  0  0
    4.4234   -2.7858    3.0857 C   0  0  2  0  0  0  0  0  0  0  0  0
    4.5014   -2.2965    4.7229 C   0  0  2  0  0  0  0  0  0  0  0  0
    4.0310   -3.2452    5.6275 O   0  0  0  0  0  0  0  0  0  0  0  0
    4.4356   -4.4461    5.7299 C   0  0  0  0  0  0  0  0  0  0  0  0
    5.2348   -4.8603    6.5638 O   0  0  0  0  0  0  0  0  0  0  0  0
    4.4119   -0.8087    5.4894 C   0  0  2  0  0  0  0  0  0  0  0  0
    5.7185    1.2097    8.2405 H   0  0  0  0  0  0  0  0  0  0  0  0
    6.5053    2.6149    8.4153 H   0  0  0  0  0  0  0  0  0  0  0  0
    6.9522    1.4869    7.0378 H   0  0  0  0  0  0  0  0  0  0  0  0
    5.6810    3.4493    6.2203 H   0  0  0  0  0  0  0  0  0  0  0  0
    3.3267    2.9573    8.1083 H   0  0  0  0  0  0  0  0  0  0  0  0
    3.5272    4.2595    6.9330 H   0  0  0  0  0  0  0  0  0  0  0  0
    4.6231    4.0930    8.3397 H   0  0  0  0  0  0  0  0  0  0  0  0
    3.7203    2.5832    3.8280 H   0  0  0  0  0  0  0  0  0  0  0  0
    5.7036   -0.9702    3.0061 H   0  0  0  0  0  0  0  0  0  0  0  0
    3.4279    1.1525    3.2277 H   0  0  0  0  0  0  0  0  0  0  0  0
    3.0637   -0.5133    3.5395 H   0  0  0  0  0  0  0  0  0  0  0  0
    0.9924    0.7364    4.4408 H   0  0  0  0  0  0  0  0  0  0  0  0
    1.0240   -0.8893    4.9504 H   0  0  0  0  0  0  0  0  0  0  0  0
    0.2196   -0.6247    7.4969 H   0  0  0  0  0  0  0  0  0  0  0  0
   -1.2894   -0.7940    4.2543 H   0  0  0  0  0  0  0  0  0  0  0  0
   -2.5062   -0.1963    5.3685 H   0  0  0  0  0  0  0  0  0  0  0  0
   -1.1563    3.5116    3.1902 H   0  0  0  0  0  0  0  0  0  0  0  0
    0.3542    2.8540    3.7856 H   0  0  0  0  0  0  0  0  0  0  0  0
   -0.3890    4.2478    4.5969 H   0  0  0  0  0  0  0  0  0  0  0  0
   -3.0376    3.1701    4.5128 H   0  0  0  0  0  0  0  0  0  0  0  0
   -2.5091    1.4284    7.4652 H   0  0  0  0  0  0  0  0  0  0  0  0
   -1.7994    2.9964    7.7931 H   0  0  0  0  0  0  0  0  0  0  0  0
   -1.0831    1.5702    8.4766 H   0  0  0  0  0  0  0  0  0  0  0  0
    0.6218    0.4829    8.5137 H   0  0  0  0  0  0  0  0  0  0  0  0
    3.8150    1.0768    7.8019 H   0  0  0  0  0  0  0  0  0  0  0  0
    4.0633   -0.6420    9.9364 H   0  0  0  0  0  0  0  0  0  0  0  0
    6.4026   -0.1667    7.0386 H   0  0  0  0  0  0  0  0  0  0  0  0
    2.3037   -1.8837    6.0408 H   0  0  0  0  0  0  0  0  0  0  0  0
    0.0884   -1.1517    9.4513 H   0  0  0  0  0  0  0  0  0  0  0  0
   -0.4748   -2.8161    9.9318 H   0  0  0  0  0  0  0  0  0  0  0  0
    3.4481   -5.0271    8.0987 H   0  0  0  0  0  0  0  0  0  0  0  0
    2.6388   -6.2245    9.0459 H   0  0  0  0  0  0  0  0  0  0  0  0
    3.2440   -4.7648    9.8201 H   0  0  0  0  0  0  0  0  0  0  0  0
    0.8856   -5.8134    9.8471 H   0  0  0  0  0  0  0  0  0  0  0  0
   -0.8183   -6.3510    8.4224 H   0  0  0  0  0  0  0  0  0  0  0  0
    0.7197   -7.1701    8.1364 H   0  0  0  0  0  0  0  0  0  0  0  0
   -0.4064   -6.9358    6.8275 H   0  0  0  0  0  0  0  0  0  0  0  0
   -1.0746   -3.8223    7.7393 H   0  0  0  0  0  0  0  0  0  0  0  0
   -1.2487   -4.7635    6.2922 H   0  0  0  0  0  0  0  0  0  0  0  0
   -0.2340   -3.3515    6.2867 H   0  0  0  0  0  0  0  0  0  0  0  0
    0.3580   -5.0228    4.7961 H   0  0  0  0  0  0  0  0  0  0  0  0
    0.8081   -5.9407    1.3820 H   0  0  0  0  0  0  0  0  0  0  0  0
    0.2593   -4.7946    2.5342 H   0  0  0  0  0  0  0  0  0  0  0  0
    3.9755   -6.0121    2.0042 H   0  0  0  0  0  0  0  0  0  0  0  0
    4.2505   -4.1671    0.4078 H   0  0  0  0  0  0  0  0  0  0  0  0
    3.4001   -1.2340    0.2979 H   0  0  0  0  0  0  0  0  0  0  0  0
    4.2021   -2.0957   -0.9956 H   0  0  0  0  0  0  0  0  0  0  0  0
    5.0395   -1.8505    0.5013 H   0  0  0  0  0  0  0  0  0  0  0  0
    1.5081   -3.1219   -0.3423 H   0  0  0  0  0  0  0  0  0  0  0  0
    1.9561   -4.8283   -0.1868 H   0  0  0  0  0  0  0  0  0  0  0  0
    2.6848   -3.8345   -1.4000 H   0  0  0  0  0  0  0  0  0  0  0  0
    5.0742   -6.3015    2.7075 H   0  0  0  0  0  0  0  0  0  0  0  0
    6.5922   -4.5239    4.4978 H   0  0  0  0  0  0  0  0  0  0  0  0
    7.0267   -5.1943    2.9926 H   0  0  0  0  0  0  0  0  0  0  0  0
    6.5432   -2.6624    2.8362 H   0  0  0  0  0  0  0  0  0  0  0  0
    5.8635   -3.6636    1.6759 H   0  0  0  0  0  0  0  0  0  0  0  0
    4.4704   -1.8274    2.5852 H   0  0  0  0  0  0  0  0  0  0  0  0
    5.5724   -2.4208    4.8645 H   0  0  0  0  0  0  0  0  0  0  0  0
  1  2  1  0
  1 69  1  0
  1 70  1  0
  1 71  1  0
  2  3  1  0
  2  4  1  0
  2 72  1  0
  3 73  1  0
  3 74  1  0
  3 75  1  0
  4 10  1  0
  4  5  1  6
  4  6  1  0
  5 76  1  0
  6  7  1  0
 68  7  1  6
  7  8  1  6
  7  9  1  0
  8 77  1  0
 10  9  1  6
  9 78  1  0
  9 79  1  0
 10 68  1  0
 10 11  1  0
 11 24  1  1
 11 12  1  0
 11 25  1  0
 12 13  1  0
 12 80  1  0
 12 81  1  0
 13 20  1  0
 13 14  1  1
 13 15  1  0
 14 82  1  0
 15 16  1  0
 15 83  1  0
 15 84  1  0
 16 17  1  0
 17 18  1  0
 17 19  1  1
 17 20  1  0
 18 85  1  0
 18 86  1  0
 18 87  1  0
 19 88  1  0
 20 21  1  1
 20 22  1  0
 21 89  1  0
 21 90  1  0
 21 91  1  0
 22 23  2  0
 22 24  1  0
 25 33  1  0
 25 26  1  1
 25 27  1  0
 26 92  1  0
 27 28  1  0
 27 29  1  0
 27 93  1  6
 28 94  1  0
 29 68  1  0
 29 30  1  6
 29 31  1  0
 30 95  1  0
 31 32  2  0
 31 33  1  0
 33 34  1  6
 33 35  1  0
 34 96  1  0
 35 37  1  1
 35 36  1  0
 35 38  1  0
 36 37  1  0
 36 97  1  0
 36 98  1  0
 38 39  1  0
 38 40  1  1
 38 41  1  0
 39 99  1  0
 39100  1  0
 39101  1  0
 40102  1  0
 41 42  1  0
 41 43  1  0
 41 44  1  0
 42103  1  0
 42104  1  0
 42105  1  0
 43106  1  0
 43107  1  0
 43108  1  0
 44 45  1  0
 45 57  1  0
 45 46  1  0
 45109  1  1
 46 47  2  0
 46 48  1  6
 48 49  1  0
 48110  1  0
 48111  1  0
 49 57  1  0
 49 50  1  1
 49 51  1  0
 50112  1  0
 51 63  1  0
 51 52  1  6
 51 55  1  0
 52 53  1  0
 52 54  1  0
 52113  1  0
 53114  1  0
 53115  1  0
 53116  1  0
 54117  1  0
 54118  1  0
 54119  1  0
 55 56  1  0
 57 56  1  6
 57 58  1  0
 58 60  1  0
 58 66  1  0
 58 59  1  1
 59 60  1  0
 60 61  1  0
 60120  1  6
 61 62  1  0
 61121  1  0
 61122  1  0
 62 63  1  0
 62123  1  0
 62124  1  0
 63 64  1  0
 63125  1  6
 64 65  1  0
 64 68  1  0
 64126  1  1
 65 66  1  0
 66 67  2  0
M  END
>  <i_m_ct_stereo_status>  (105) 
1

>  <s_m_source_file>  (105) 
/var/tmp/pbs.5075288.sched01/tmpqqnbnjfs/192vg5g1vka.sdf

>  <i_m_source_file_index>  (105) 
5

>  <i_lp_mmshare_version>  (105) 
48012

>  <i_f3d_flags>  (105) 
0

>  <s_epik_input>  (105) 
W0NIM11bQ0hdKFtDSDNdKVtDQEBdMShbT0hdKU9bQ0BdKFtPSF0pKFtDSDJdMilbQ0BdMyhbQ0BdKFtPSF0pKEM0PU8pW0NAQEhdNVtPSF0pW0NIXShPQzY9TylbQ0BIXShbQ0BAXShTUzcpKFtDSF0oW0NIM10pW0NIM10pW0NAXTgoW09IXSlbQ0gyXVtTK105W08tXSlbQ0gyXVtDSDJdW0NIXShPJTEwKUM2JTEwW0NAQF03OFtDQEBIXTlPQyhbQ0gzXSkoW0NIM10pW0NAXShbQ0gzXSkoW09IXSlDNihbQ0gyXU82KVtDQEBdNChbT0hdKVtDQF01KFtPSF0pW0NAQF00KFtDQF0xMjMpW0NIMl1bQ0BAXTEoW09IXSlbQ0BAXShbQ0gzXSkoQyg9TylPNClbQ0BdKFtDSDNdKShbT0hdKU9bQ0gyXTE=

>  <s_epik_cmdline>  (105) 
J2VwaWtfcHl0aG9uJywgJy1waHQnLCAnMi4wJywgJy1waCcsICc3LjAnLCAnLXRuJywgJzgnLCAnLW1hJywgJzIwMCcsICctaW1hZScsICc8aW5maWxlLm1hZT4nLCAnLW9tYWUnLCAnPG91dGZpbGUubWFlPic=

>  <r_lp_tautomer_probability>  (105) 
1

>  <r_epik_Ionization_Penalty>  (105) 
0.000298321

>  <r_epik_Ionization_Penalty_Charging>  (105) 
0

>  <r_epik_Ionization_Penalty_Neutral>  (105) 
0.000298321

>  <r_epik_State_Penalty>  (105) 
-0

>  <r_epik_Charging_Adjusted_Penalty>  (105) 
0

>  <i_epik_Tot_Q>  (105) 
0

>  <i_epik_Tot_abs_Q>  (105) 
2

>  <s_epik_Chemistry_Notes>  (105) 
This compound has an ester and may undergo hydrolysis at high or low pH. This compound contains an acetal/aminal-like group ( X-CH(R)-Y where X, Y are N, S, or O) that may be acid/base labile, releasing an aldehyde.

>  <s_lp_Force_Field>  (105) 
OPLS3e

>  <r_lp_Energy>  (105) 
438.923

>  <b_lp_Chiralities_Consistent>  (105) 
1

>  <s_lp_Variant>  (105) 
70:0-2

>  <s_i_glide_gridfile>  (105) 
pfpi4k_grid

>  <i_i_glide_lignum>  (105) 
5

>  <i_i_glide_rotatable_bonds>  (105) 
12

>  <r_i_docking_score>  (105) 
-1.2838

>  <r_i_glide_ligand_efficiency>  (105) 
-0.0188794

>  <r_i_glide_ligand_efficiency_sa>  (105) 
-0.0770593

>  <r_i_glide_ligand_efficiency_ln>  (105) 
-0.245962

>  <r_i_glide_gscore>  (105) 
-1.2838

>  <r_i_glide_lipo>  (105) 
-0.0811326

>  <r_i_glide_hbond>  (105) 
0

>  <r_i_glide_metal>  (105) 
-0

>  <r_i_glide_rewards>  (105) 
-0.122443

>  <r_i_glide_evdw>  (105) 
-22.9909

>  <r_i_glide_ecoul>  (105) 
-2.2444

>  <r_i_glide_erotb>  (105) 
0

>  <r_i_glide_esite>  (105) 
-0.0333831

>  <r_i_glide_emodel>  (105) 
-20.3691

>  <r_i_glide_energy>  (105) 
-25.2353

>  <r_i_glide_einternal>  (105) 
2.88057

>  <r_i_glide_intrahb_reward>  (105) 
-0

>  <i_i_glide_confnum>  (105) 
2

>  <i_i_glide_posenum>  (105) 
2

>  <r_i_glide_eff_state_penalty>  (105) 
0

>  <ligand_id>  (105) 
70

>  <original_smiles>  (105) 
CC(C)C1(O)OC2(O)CC13C1(CC4(O)COC(C)(O)C4(C)C(=O)O1)C1(O)C(O)C4(O)C(=O)C1(O)C1(CO1)C(C)(O)C(C)(C)OC1[S+]([O-])CC5(O)C6(C(C)C)SSC15C15OC1CCC6C(OC5=O)C243

>  <smiles>  (105) 
[H]OC1([H])C2(O[H])C(=O)C3(O[H])C4(OC4([H])[H])C(O[H])(C([H])([H])[H])C(C([H])([H])[H])(C([H])([H])[H])OC4([H])S(=O)C([H])([H])C5(O[H])C46SSC5(C([H])(C([H])([H])[H])C([H])([H])[H])C4([H])C([H])([H])C([H])([H])C5([H])OC56C(=O)OC4([H])C24C2(O[H])OC(O[H])(C([H])(C([H])([H])[H])C([H])([H])[H])C4(C2([H])[H])C2(OC(=O)C4(C([H])([H])[H])C(O[H])(C([H])([H])[H])OC([H])([H])C4(O[H])C2([H])[H])C13O[H]

$$$$
70:1:2
     RDKit          3D

126138  0  0  1  0  0  0  0  0999 V2000
    6.4249    1.4123    7.3877 C   0  0  0  0  0  0  0  0  0  0  0  0
    5.3440    2.2047    6.5607 C   0  0  0  0  0  0  0  0  0  0  0  0
    4.3756    3.0199    7.4749 C   0  0  0  0  0  0  0  0  0  0  0  0
    4.5871    1.4459    5.3640 C   0  0  1  0  0  0  0  0  0  0  0  0
    3.9921    2.4826    4.5970 O   0  0  0  0  0  0  0  0  0  0  0  0
    5.6732    0.8773    4.7595 O   0  0  0  0  0  0  0  0  0  0  0  0
    5.2460   -0.2400    4.1445 C   0  0  2  0  0  0  0  0  0  0  0  0
    6.1648   -0.5381    3.1384 O   0  0  0  0  0  0  0  0  0  0  0  0
    3.7540   -0.0522    3.7131 C   0  0  0  0  0  0  0  0  0  0  0  0
    3.7108    0.0698    5.2163 C   0  0  2  0  0  0  0  0  0  0  0  0
    2.3639    0.0533    6.1170 C   0  0  2  0  0  0  0  0  0  0  0  0
    1.1536   -0.3113    5.2278 C   0  0  0  0  0  0  0  0  0  0  0  0
   -0.2163   -0.1141    5.8892 C   0  0  2  0  0  0  0  0  0  0  0  0
   -0.3487   -1.0582    6.9282 O   0  0  0  0  0  0  0  0  0  0  0  0
   -1.3416   -0.3650    4.8996 C   0  0  0  0  0  0  0  0  0  0  0  0
   -1.4486    0.8682    4.2351 O   0  0  0  0  0  0  0  0  0  0  0  0
   -1.1725    1.9511    5.0647 C   0  0  1  0  0  0  0  0  0  0  0  0
   -0.4024    2.9304    4.1619 C   0  0  0  0  0  0  0  0  0  0  0  0
   -2.3636    2.5878    5.4509 O   0  0  0  0  0  0  0  0  0  0  0  0
   -0.3936    1.3548    6.3213 C   0  0  1  0  0  0  0  0  0  0  0  0
   -1.2598    1.4588    7.6221 C   0  0  0  0  0  0  0  0  0  0  0  0
    0.9339    2.0898    6.6462 C   0  0  0  0  0  0  0  0  0  0  0  0
    0.9244    3.2368    7.0888 O   0  0  0  0  0  0  0  0  0  0  0  0
    2.1320    1.4402    6.4263 O   0  0  0  0  0  0  0  0  0  0  0  0
    2.6224   -0.7525    7.5438 C   0  0  2  0  0  0  0  0  0  0  0  0
    1.8516   -0.1163    8.5531 O   0  0  0  0  0  0  0  0  0  0  0  0
    4.0734   -0.4571    7.8098 C   0  0  1  0  0  0  0  0  0  0  0  0
    4.4184   -0.4020    9.2327 O   0  0  0  0  0  0  0  0  0  0  0  0
    4.8941   -1.4263    6.8428 C   0  0  1  0  0  0  0  0  0  0  0  0
    6.3025   -1.4789    7.0380 O   0  0  0  0  0  0  0  0  0  0  0  0
    4.2103   -2.5850    7.6267 C   0  0  0  0  0  0  0  0  0  0  0  0
    4.8456   -3.3797    8.3152 O   0  0  0  0  0  0  0  0  0  0  0  0
    2.6863   -2.3634    7.6639 C   0  0  2  0  0  0  0  0  0  0  0  0
    2.0900   -2.7631    6.5248 O   0  0  0  0  0  0  0  0  0  0  0  0
    1.8274   -3.3730    8.6046 C   0  0  2  0  0  0  0  0  0  0  0  0
    0.7138   -2.7557    9.4361 C   0  0  0  0  0  0  0  0  0  0  0  0
    2.0164   -3.0184    9.9883 O   0  0  0  0  0  0  0  0  0  0  0  0
    1.7614   -4.9552    8.3186 C   0  0  1  0  0  0  0  0  0  0  0  0
    3.0923   -5.7082    8.5404 C   0  0  0  0  0  0  0  0  0  0  0  0
    1.0629   -5.4642    9.4504 O   0  0  0  0  0  0  0  0  0  0  0  0
    0.9406   -5.5979    7.0447 C   0  0  0  0  0  0  0  0  0  0  0  0
    0.2823   -6.9610    7.3962 C   0  0  0  0  0  0  0  0  0  0  0  0
   -0.2662   -4.6808    6.6692 C   0  0  0  0  0  0  0  0  0  0  0  0
    1.7907   -6.1331    5.9609 O   0  0  0  0  0  0  0  0  0  0  0  0
    1.4877   -5.9370    4.5473 C   0  0  2  0  0  0  0  0  0  0  0  0
    0.9362   -7.2042    3.3336 S   0  0  0  0  0  0  0  0  0  0  0  0
   -0.5608   -7.4043    3.5631 O   0  0  0  0  0  0  0  0  0  0  0  0
    1.0869   -5.8290    2.0449 C   0  0  0  0  0  0  0  0  0  0  0  0
    2.5471   -5.2537    2.2299 C   0  0  1  0  0  0  0  0  0  0  0  0
    3.0891   -6.2946    1.4384 O   0  0  0  0  0  0  0  0  0  0  0  0
    3.2142   -3.7753    1.8477 C   0  0  1  0  0  0  0  0  0  0  0  0
    3.4935   -3.6701    0.2806 C   0  0  0  0  0  0  0  0  0  0  0  0
    4.1053   -2.3330   -0.2081 C   0  0  0  0  0  0  0  0  0  0  0  0
    2.2997   -3.9897   -0.6561 C   0  0  0  0  0  0  0  0  0  0  0  0
    1.9089   -2.6562    2.2061 S   0  0  0  0  0  0  0  0  0  0  0  0
    1.8202   -3.5869    3.9280 S   0  0  0  0  0  0  0  0  0  0  0  0
    2.6115   -5.2553    3.7396 C   0  0  1  0  0  0  0  0  0  0  0  0
    4.1169   -5.6180    4.1635 C   0  0  1  0  0  0  0  0  0  0  0  0
    4.7529   -6.9033    4.1326 O   0  0  0  0  0  0  0  0  0  0  0  0
    5.1789   -6.0096    3.1077 C   0  0  2  0  0  0  0  0  0  0  0  0
    6.3717   -5.0888    3.0284 C   0  0  0  0  0  0  0  0  0  0  0  0
    5.8845   -3.7924    2.3167 C   0  0  0  0  0  0  0  0  0  0  0  0
    4.5189   -3.1349    2.7458 C   0  0  2  0  0  0  0  0  0  0  0  0
    4.6827   -2.7160    4.3812 C   0  0  2  0  0  0  0  0  0  0  0  0
    4.2349   -3.6827    5.2652 O   0  0  0  0  0  0  0  0  0  0  0  0
    4.6463   -4.8832    5.3054 C   0  0  0  0  0  0  0  0  0  0  0  0
    5.4689   -5.3336    6.0995 O   0  0  0  0  0  0  0  0  0  0  0  0
    4.6236   -1.2664    5.2008 C   0  0  2  0  0  0  0  0  0  0  0  0
    5.9860    0.6584    7.9929 H   0  0  0  0  0  0  0  0  0  0  0  0
    6.8684    2.0781    8.1434 H   0  0  0  0  0  0  0  0  0  0  0  0
    7.2300    1.0235    6.7372 H   0  0  0  0  0  0  0  0  0  0  0  0
    5.9279    2.9812    6.0503 H   0  0  0  0  0  0  0  0  0  0  0  0
    3.6703    2.3869    8.0216 H   0  0  0  0  0  0  0  0  0  0  0  0
    3.8102    3.7682    6.8864 H   0  0  0  0  0  0  0  0  0  0  0  0
    4.9624    3.5539    8.2347 H   0  0  0  0  0  0  0  0  0  0  0  0
    4.0794    2.2966    3.6674 H   0  0  0  0  0  0  0  0  0  0  0  0
    5.7464   -1.1603    2.5357 H   0  0  0  0  0  0  0  0  0  0  0  0
    3.5660    0.7914    3.0675 H   0  0  0  0  0  0  0  0  0  0  0  0
    3.2129   -0.8841    3.3384 H   0  0  0  0  0  0  0  0  0  0  0  0
    1.1741    0.3434    4.3471 H   0  0  0  0  0  0  0  0  0  0  0  0
    1.2160   -1.3019    4.8077 H   0  0  0  0  0  0  0  0  0  0  0  0
    0.4204   -0.9930    7.4893 H   0  0  0  0  0  0  0  0  0  0  0  0
   -1.1214   -1.1692    4.1989 H   0  0  0  0  0  0  0  0  0  0  0  0
   -2.2877   -0.5972    5.3819 H   0  0  0  0  0  0  0  0  0  0  0  0
   -1.0064    3.1730    3.2874 H   0  0  0  0  0  0  0  0  0  0  0  0
    0.5243    2.4890    3.7997 H   0  0  0  0  0  0  0  0  0  0  0  0
   -0.1824    3.8583    4.6894 H   0  0  0  0  0  0  0  0  0  0  0  0
   -2.8275    2.8205    4.6600 H   0  0  0  0  0  0  0  0  0  0  0  0
   -2.2107    0.9425    7.5219 H   0  0  0  0  0  0  0  0  0  0  0  0
   -1.4788    2.4947    7.8833 H   0  0  0  0  0  0  0  0  0  0  0  0
   -0.7436    1.0380    8.4861 H   0  0  0  0  0  0  0  0  0  0  0  0
    2.0984    0.8091    8.5759 H   0  0  0  0  0  0  0  0  0  0  0  0
    4.1893    0.5878    7.6041 H   0  0  0  0  0  0  0  0  0  0  0  0
    4.4996   -1.2521    9.6362 H   0  0  0  0  0  0  0  0  0  0  0  0
    6.6708   -0.6593    6.7379 H   0  0  0  0  0  0  0  0  0  0  0  0
    2.5545   -2.3624    5.7990 H   0  0  0  0  0  0  0  0  0  0  0  0
    0.4333   -1.7181    9.3308 H   0  0  0  0  0  0  0  0  0  0  0  0
   -0.1056   -3.4039    9.7665 H   0  0  0  0  0  0  0  0  0  0  0  0
    3.7408   -5.5539    7.7031 H   0  0  0  0  0  0  0  0  0  0  0  0
    2.9624   -6.7791    8.6331 H   0  0  0  0  0  0  0  0  0  0  0  0
    3.5985   -5.3533    9.4368 H   0  0  0  0  0  0  0  0  0  0  0  0
    1.2527   -6.3993    9.5161 H   0  0  0  0  0  0  0  0  0  0  0  0
   -0.5190   -6.8773    8.1358 H   0  0  0  0  0  0  0  0  0  0  0  0
    1.0072   -7.6854    7.7683 H   0  0  0  0  0  0  0  0  0  0  0  0
   -0.1685   -7.4129    6.5135 H   0  0  0  0  0  0  0  0  0  0  0  0
   -0.7878   -4.3229    7.5567 H   0  0  0  0  0  0  0  0  0  0  0  0
   -1.0191   -5.2087    6.0802 H   0  0  0  0  0  0  0  0  0  0  0  0
   -0.0020   -3.8006    6.0936 H   0  0  0  0  0  0  0  0  0  0  0  0
    0.5339   -5.4211    4.5248 H   0  0  0  0  0  0  0  0  0  0  0  0
    0.8348   -6.2121    1.0548 H   0  0  0  0  0  0  0  0  0  0  0  0
    0.3198   -5.1022    2.2945 H   0  0  0  0  0  0  0  0  0  0  0  0
    4.0241   -6.3389    1.5848 H   0  0  0  0  0  0  0  0  0  0  0  0
    4.2300   -4.4350    0.0236 H   0  0  0  0  0  0  0  0  0  0  0  0
    3.4873   -1.4749    0.0659 H   0  0  0  0  0  0  0  0  0  0  0  0
    4.2048   -2.3110   -1.2960 H   0  0  0  0  0  0  0  0  0  0  0  0
    5.1090   -2.1567    0.1717 H   0  0  0  0  0  0  0  0  0  0  0  0
    1.4930   -3.2600   -0.5772 H   0  0  0  0  0  0  0  0  0  0  0  0
    1.8889   -4.9840   -0.5075 H   0  0  0  0  0  0  0  0  0  0  0  0
    2.6068   -3.9522   -1.7032 H   0  0  0  0  0  0  0  0  0  0  0  0
    5.1663   -6.6181    2.2152 H   0  0  0  0  0  0  0  0  0  0  0  0
    6.8146   -4.9690    4.0088 H   0  0  0  0  0  0  0  0  0  0  0  0
    7.1626   -5.5518    2.4373 H   0  0  0  0  0  0  0  0  0  0  0  0
    6.6146   -3.0093    2.4400 H   0  0  0  0  0  0  0  0  0  0  0  0
    5.9198   -3.9720    1.2465 H   0  0  0  0  0  0  0  0  0  0  0  0
    4.5716   -2.1675    2.2760 H   0  0  0  0  0  0  0  0  0  0  0  0
    5.7577   -2.8437    4.4836 H   0  0  0  0  0  0  0  0  0  0  0  0
  1  2  1  0
  1 69  1  0
  1 70  1  0
  1 71  1  0
  2  3  1  0
  2  4  1  0
  2 72  1  0
  3 73  1  0
  3 74  1  0
  3 75  1  0
  4 10  1  0
  4  5  1  6
  4  6  1  0
  5 76  1  0
  6  7  1  0
 68  7  1  6
  7  8  1  6
  7  9  1  0
  8 77  1  0
 10  9  1  6
  9 78  1  0
  9 79  1  0
 10 68  1  0
 10 11  1  0
 11 24  1  1
 11 12  1  0
 11 25  1  0
 12 13  1  0
 12 80  1  0
 12 81  1  0
 13 20  1  0
 13 14  1  1
 13 15  1  0
 14 82  1  0
 15 16  1  0
 15 83  1  0
 15 84  1  0
 16 17  1  0
 17 18  1  0
 17 19  1  1
 17 20  1  0
 18 85  1  0
 18 86  1  0
 18 87  1  0
 19 88  1  0
 20 21  1  1
 20 22  1  0
 21 89  1  0
 21 90  1  0
 21 91  1  0
 22 23  2  0
 22 24  1  0
 25 33  1  0
 25 26  1  1
 25 27  1  0
 26 92  1  0
 27 28  1  0
 27 29  1  0
 27 93  1  6
 28 94  1  0
 29 68  1  0
 29 30  1  6
 29 31  1  0
 30 95  1  0
 31 32  2  0
 31 33  1  0
 33 34  1  6
 33 35  1  0
 34 96  1  0
 35 37  1  1
 35 36  1  0
 35 38  1  0
 36 37  1  0
 36 97  1  0
 36 98  1  0
 38 39  1  0
 38 40  1  1
 38 41  1  0
 39 99  1  0
 39100  1  0
 39101  1  0
 40102  1  0
 41 42  1  0
 41 43  1  0
 41 44  1  0
 42103  1  0
 42104  1  0
 42105  1  0
 43106  1  0
 43107  1  0
 43108  1  0
 44 45  1  0
 45 57  1  0
 45 46  1  0
 45109  1  1
 46 47  2  0
 46 48  1  6
 48 49  1  0
 48110  1  0
 48111  1  0
 49 57  1  0
 49 50  1  6
 49 51  1  0
 50112  1  0
 51 63  1  0
 51 52  1  6
 51 55  1  0
 52 53  1  0
 52 54  1  0
 52113  1  0
 53114  1  0
 53115  1  0
 53116  1  0
 54117  1  0
 54118  1  0
 54119  1  0
 55 56  1  0
 57 56  1  1
 57 58  1  0
 58 60  1  0
 58 66  1  0
 58 59  1  1
 59 60  1  0
 60 61  1  0
 60120  1  6
 61 62  1  0
 61121  1  0
 61122  1  0
 62 63  1  0
 62123  1  0
 62124  1  0
 63 64  1  0
 63125  1  6
 64 65  1  0
 64 68  1  0
 64126  1  1
 65 66  1  0
 66 67  2  0
M  END
>  <i_m_ct_stereo_status>  (106) 
1

>  <s_m_source_file>  (106) 
/var/tmp/pbs.5075288.sched01/tmpqqnbnjfs/192vg5g1vka.sdf

>  <i_m_source_file_index>  (106) 
5

>  <i_lp_mmshare_version>  (106) 
48012

>  <i_f3d_flags>  (106) 
0

>  <s_epik_input>  (106) 
W0NIM11bQ0hdKFtDSDNdKVtDQEBdMShbT0hdKU9bQ0BdKFtPSF0pKFtDSDJdMilbQ0BdMyhbQ0BdKFtPSF0pKEM0PU8pW0NAQEhdNVtPSF0pW0NIXShPQzY9TylbQ0BIXShbQ0BAXShTUzcpKFtDSF0oW0NIM10pW0NIM10pW0NAXTgoW09IXSlbQ0gyXVtTK105W08tXSlbQ0gyXVtDSDJdW0NIXShPJTEwKUM2JTEwW0NAQF03OFtDQEBIXTlPQyhbQ0gzXSkoW0NIM10pW0NAXShbQ0gzXSkoW09IXSlDNihbQ0gyXU82KVtDQEBdNChbT0hdKVtDQF01KFtPSF0pW0NAQF00KFtDQF0xMjMpW0NIMl1bQ0BAXTEoW09IXSlbQ0BAXShbQ0gzXSkoQyg9TylPNClbQ0BdKFtDSDNdKShbT0hdKU9bQ0gyXTE=

>  <s_epik_cmdline>  (106) 
J2VwaWtfcHl0aG9uJywgJy1waHQnLCAnMi4wJywgJy1waCcsICc3LjAnLCAnLXRuJywgJzgnLCAnLW1hJywgJzIwMCcsICctaW1hZScsICc8aW5maWxlLm1hZT4nLCAnLW9tYWUnLCAnPG91dGZpbGUubWFlPic=

>  <r_lp_tautomer_probability>  (106) 
1

>  <r_epik_Ionization_Penalty>  (106) 
0.000298321

>  <r_epik_Ionization_Penalty_Charging>  (106) 
0

>  <r_epik_Ionization_Penalty_Neutral>  (106) 
0.000298321

>  <r_epik_State_Penalty>  (106) 
-0

>  <r_epik_Charging_Adjusted_Penalty>  (106) 
0

>  <i_epik_Tot_Q>  (106) 
0

>  <i_epik_Tot_abs_Q>  (106) 
2

>  <s_epik_Chemistry_Notes>  (106) 
This compound has an ester and may undergo hydrolysis at high or low pH. This compound contains an acetal/aminal-like group ( X-CH(R)-Y where X, Y are N, S, or O) that may be acid/base labile, releasing an aldehyde.

>  <s_lp_Force_Field>  (106) 
OPLS3e

>  <r_lp_Energy>  (106) 
438.923

>  <b_lp_Chiralities_Consistent>  (106) 
1

>  <s_lp_Variant>  (106) 
70:0-2

>  <s_i_glide_gridfile>  (106) 
pfpi4k_grid

>  <i_i_glide_lignum>  (106) 
5

>  <i_i_glide_rotatable_bonds>  (106) 
12

>  <r_i_docking_score>  (106) 
-0.622548

>  <r_i_glide_ligand_efficiency>  (106) 
-0.00915511

>  <r_i_glide_ligand_efficiency_sa>  (106) 
-0.037368

>  <r_i_glide_ligand_efficiency_ln>  (106) 
-0.119273

>  <r_i_glide_gscore>  (106) 
-0.622548

>  <r_i_glide_lipo>  (106) 
-0.136606

>  <r_i_glide_hbond>  (106) 
0

>  <r_i_glide_metal>  (106) 
-0

>  <r_i_glide_rewards>  (106) 
-0.134108

>  <r_i_glide_evdw>  (106) 
-24.5957

>  <r_i_glide_ecoul>  (106) 
-2.34704

>  <r_i_glide_erotb>  (106) 
0

>  <r_i_glide_esite>  (106) 
-0.0364855

>  <r_i_glide_emodel>  (106) 
-18.7265

>  <r_i_glide_energy>  (106) 
-26.9428

>  <r_i_glide_einternal>  (106) 
3.41257

>  <r_i_glide_intrahb_reward>  (106) 
-0

>  <i_i_glide_confnum>  (106) 
2

>  <i_i_glide_posenum>  (106) 
21

>  <r_i_glide_eff_state_penalty>  (106) 
0

>  <ligand_id>  (106) 
70

>  <original_smiles>  (106) 
CC(C)C1(O)OC2(O)CC13C1(CC4(O)COC(C)(O)C4(C)C(=O)O1)C1(O)C(O)C4(O)C(=O)C1(O)C1(CO1)C(C)(O)C(C)(C)OC1[S+]([O-])CC5(O)C6(C(C)C)SSC15C15OC1CCC6C(OC5=O)C243

>  <smiles>  (106) 
[H]OC1([H])C2(O[H])C(=O)C3(O[H])C4(OC4([H])[H])C(O[H])(C([H])([H])[H])C(C([H])([H])[H])(C([H])([H])[H])OC4([H])S(=O)C([H])([H])C5(O[H])C46SSC5(C([H])(C([H])([H])[H])C([H])([H])[H])C4([H])C([H])([H])C([H])([H])C5([H])OC56C(=O)OC4([H])C24C2(O[H])OC(O[H])(C([H])(C([H])([H])[H])C([H])([H])[H])C4(C2([H])[H])C2(OC(=O)C4(C([H])([H])[H])C(O[H])(C([H])([H])[H])OC([H])([H])C4(O[H])C2([H])[H])C13O[H]

$$$$
70:2:0
     RDKit          3D

126138  0  0  1  0  0  0  0  0999 V2000
    6.1658    2.0628    7.4347 C   0  0  0  0  0  0  0  0  0  0  0  0
    5.0641    2.7795    6.5820 C   0  0  0  0  0  0  0  0  0  0  0  0
    4.1056    3.6363    7.4309 C   0  0  0  0  0  0  0  0  0  0  0  0
    4.3226    1.9180    5.4527 C   0  0  1  0  0  0  0  0  0  0  0  0
    3.7305    2.9065    4.5898 O   0  0  0  0  0  0  0  0  0  0  0  0
    5.4056    1.4016    4.8913 O   0  0  0  0  0  0  0  0  0  0  0  0
    4.9952    0.1608    4.4092 C   0  0  2  0  0  0  0  0  0  0  0  0
    5.9312   -0.3139    3.4792 O   0  0  0  0  0  0  0  0  0  0  0  0
    3.5050    0.2764    3.9334 C   0  0  0  0  0  0  0  0  0  0  0  0
    3.4496    0.5299    5.4236 C   0  0  2  0  0  0  0  0  0  0  0  0
    2.1201    0.5503    6.3374 C   0  0  2  0  0  0  0  0  0  0  0  0
    0.8889    0.1095    5.4932 C   0  0  0  0  0  0  0  0  0  0  0  0
   -0.4662    0.3308    6.1667 C   0  0  2  0  0  0  0  0  0  0  0  0
   -0.5666   -0.5390    7.2772 O   0  0  0  0  0  0  0  0  0  0  0  0
   -1.6069   -0.0016    5.2137 C   0  0  0  0  0  0  0  0  0  0  0  0
   -1.7483    1.1861    4.4721 O   0  0  0  0  0  0  0  0  0  0  0  0
   -1.4707    2.3155    5.2284 C   0  0  1  0  0  0  0  0  0  0  0  0
   -0.7525    3.2659    4.2477 C   0  0  0  0  0  0  0  0  0  0  0  0
   -2.6632    2.9511    5.6123 O   0  0  0  0  0  0  0  0  0  0  0  0
   -0.6619    1.8259    6.5011 C   0  0  1  0  0  0  0  0  0  0  0  0
   -1.4945    2.0057    7.8160 C   0  0  0  0  0  0  0  0  0  0  0  0
    0.6735    2.6042    6.7447 C   0  0  0  0  0  0  0  0  0  0  0  0
    0.6627    3.7766    7.1064 O   0  0  0  0  0  0  0  0  0  0  0  0
    1.8720    1.9530    6.5370 O   0  0  0  0  0  0  0  0  0  0  0  0
    2.3783   -0.1437    7.8198 C   0  0  2  0  0  0  0  0  0  0  0  0
    1.5678    0.4923    8.7889 O   0  0  0  0  0  0  0  0  0  0  0  0
    3.8477    0.2040    8.0695 C   0  0  1  0  0  0  0  0  0  0  0  0
    4.2356    0.3370    9.4497 O   0  0  0  0  0  0  0  0  0  0  0  0
    4.6801   -0.8275    7.1753 C   0  0  1  0  0  0  0  0  0  0  0  0
    6.0981   -0.8539    7.3629 O   0  0  0  0  0  0  0  0  0  0  0  0
    4.0049   -1.9136    8.0204 C   0  0  0  0  0  0  0  0  0  0  0  0
    4.6442   -2.6911    8.7606 O   0  0  0  0  0  0  0  0  0  0  0  0
    2.4774   -1.7450    8.0341 C   0  0  2  0  0  0  0  0  0  0  0  0
    1.9138   -2.2427    6.9209 O   0  0  0  0  0  0  0  0  0  0  0  0
    1.6792   -2.6225    9.0912 C   0  0  1  0  0  0  0  0  0  0  0  0
    1.7864   -2.0888   10.4961 C   0  0  0  0  0  0  0  0  0  0  0  0
    0.5769   -1.9516    9.7168 O   0  0  0  0  0  0  0  0  0  0  0  0
    1.4835   -4.2236    8.9000 C   0  0  1  0  0  0  0  0  0  0  0  0
    2.7717   -4.9883    9.2272 C   0  0  0  0  0  0  0  0  0  0  0  0
    0.7088   -4.5882   10.0341 O   0  0  0  0  0  0  0  0  0  0  0  0
    0.6831   -4.9164    7.6549 C   0  0  0  0  0  0  0  0  0  0  0  0
    0.0024   -6.2534    8.0705 C   0  0  0  0  0  0  0  0  0  0  0  0
   -0.4986   -4.0143    7.1834 C   0  0  0  0  0  0  0  0  0  0  0  0
    1.5564   -5.5337    6.6299 O   0  0  0  0  0  0  0  0  0  0  0  0
    1.2665   -5.4732    5.2029 C   0  0  2  0  0  0  0  0  0  0  0  0
    0.6984   -6.8399    4.1123 S   0  0  0  0  0  0  0  0  0  0  0  0
   -0.8124   -7.0098    4.3439 O   0  0  0  0  0  0  0  0  0  0  0  0
    0.9135   -5.6063    2.6905 C   0  0  0  0  0  0  0  0  0  0  0  0
    2.3755   -5.0439    2.8492 C   0  0  1  0  0  0  0  0  0  0  0  0
    2.8651   -6.1970    2.2087 O   0  0  0  0  0  0  0  0  0  0  0  0
    3.0905   -3.6163    2.3317 C   0  0  1  0  0  0  0  0  0  0  0  0
    3.3736   -3.6553    0.7543 C   0  0  0  0  0  0  0  0  0  0  0  0
    4.3740   -4.7198    0.1810 C   0  0  0  0  0  0  0  0  0  0  0  0
    3.7080   -2.2788    0.0968 C   0  0  0  0  0  0  0  0  0  0  0  0
    1.7403   -2.4966    2.5237 S   0  0  0  0  0  0  0  0  0  0  0  0
    1.6497   -3.1818    4.3595 S   0  0  0  0  0  0  0  0  0  0  0  0
    2.4122   -4.8814    4.3489 C   0  0  1  0  0  0  0  0  0  0  0  0
    3.9112   -5.2175    4.7930 C   0  0  1  0  0  0  0  0  0  0  0  0
    4.5339   -6.5135    4.8284 O   0  0  0  0  0  0  0  0  0  0  0  0
    5.0026   -5.6581    3.7677 C   0  0  2  0  0  0  0  0  0  0  0  0
    6.1993   -4.7355    3.6712 C   0  0  0  0  0  0  0  0  0  0  0  0
    5.7627   -3.4577    2.8846 C   0  0  0  0  0  0  0  0  0  0  0  0
    4.3559   -2.8455    3.2021 C   0  0  2  0  0  0  0  0  0  0  0  0
    4.4684   -2.3066    4.8161 C   0  0  2  0  0  0  0  0  0  0  0  0
    4.0495   -3.2167    5.7845 O   0  0  0  0  0  0  0  0  0  0  0  0
    4.4286   -4.4254    5.9018 C   0  0  0  0  0  0  0  0  0  0  0  0
    5.1870   -4.8543    6.7655 O   0  0  0  0  0  0  0  0  0  0  0  0
    4.3898   -0.7738    5.5374 C   0  0  2  0  0  0  0  0  0  0  0  0
    5.7799    1.3242    8.0758 H   0  0  0  0  0  0  0  0  0  0  0  0
    6.5710    2.7458    8.1971 H   0  0  0  0  0  0  0  0  0  0  0  0
    6.9574    1.5743    6.8522 H   0  0  0  0  0  0  0  0  0  0  0  0
    5.6455    3.5162    6.0152 H   0  0  0  0  0  0  0  0  0  0  0  0
    3.3926    3.0596    8.0194 H   0  0  0  0  0  0  0  0  0  0  0  0
    3.5267    4.3319    6.8047 H   0  0  0  0  0  0  0  0  0  0  0  0
    4.6849    4.2123    8.1593 H   0  0  0  0  0  0  0  0  0  0  0  0
    3.6406    2.5389    3.7288 H   0  0  0  0  0  0  0  0  0  0  0  0
    6.7733   -0.2084    3.8750 H   0  0  0  0  0  0  0  0  0  0  0  0
    3.2879    1.0730    3.2175 H   0  0  0  0  0  0  0  0  0  0  0  0
    2.9547   -0.5937    3.6050 H   0  0  0  0  0  0  0  0  0  0  0  0
    0.8870    0.7137    4.5794 H   0  0  0  0  0  0  0  0  0  0  0  0
    0.9605   -0.8945    5.1186 H   0  0  0  0  0  0  0  0  0  0  0  0
    0.1918   -0.4136    7.8464 H   0  0  0  0  0  0  0  0  0  0  0  0
   -1.3806   -0.8426    4.5576 H   0  0  0  0  0  0  0  0  0  0  0  0
   -2.5479   -0.2258    5.7138 H   0  0  0  0  0  0  0  0  0  0  0  0
   -1.3830    3.4372    3.3747 H   0  0  0  0  0  0  0  0  0  0  0  0
    0.1805    2.8270    3.8971 H   0  0  0  0  0  0  0  0  0  0  0  0
   -0.5511    4.2275    4.7148 H   0  0  0  0  0  0  0  0  0  0  0  0
   -3.1104    2.3844    6.2293 H   0  0  0  0  0  0  0  0  0  0  0  0
   -2.4352    1.4621    7.7925 H   0  0  0  0  0  0  0  0  0  0  0  0
   -1.7243    3.0527    8.0203 H   0  0  0  0  0  0  0  0  0  0  0  0
   -0.9503    1.6513    8.6948 H   0  0  0  0  0  0  0  0  0  0  0  0
    1.7617    1.4233    8.7860 H   0  0  0  0  0  0  0  0  0  0  0  0
    3.8796    1.2068    7.7834 H   0  0  0  0  0  0  0  0  0  0  0  0
    5.0895    0.7493    9.4993 H   0  0  0  0  0  0  0  0  0  0  0  0
    6.2867   -0.6683    8.2755 H   0  0  0  0  0  0  0  0  0  0  0  0
    2.3309   -1.8511    6.1693 H   0  0  0  0  0  0  0  0  0  0  0  0
    1.7557   -2.7831   11.3339 H   0  0  0  0  0  0  0  0  0  0  0  0
    2.3654   -1.1809   10.6551 H   0  0  0  0  0  0  0  0  0  0  0  0
    3.4638   -4.9330    8.4036 H   0  0  0  0  0  0  0  0  0  0  0  0
    2.5969   -6.0452    9.4201 H   0  0  0  0  0  0  0  0  0  0  0  0
    3.2748   -4.5787   10.1048 H   0  0  0  0  0  0  0  0  0  0  0  0
    1.1564   -4.2997   10.8123 H   0  0  0  0  0  0  0  0  0  0  0  0
   -0.8090   -6.1108    8.7854 H   0  0  0  0  0  0  0  0  0  0  0  0
    0.7089   -6.9617    8.5067 H   0  0  0  0  0  0  0  0  0  0  0  0
   -0.4404   -6.7541    7.2076 H   0  0  0  0  0  0  0  0  0  0  0  0
   -0.9907   -3.5460    8.0344 H   0  0  0  0  0  0  0  0  0  0  0  0
   -1.2714   -4.5785    6.6572 H   0  0  0  0  0  0  0  0  0  0  0  0
   -0.2084   -3.2129    6.5135 H   0  0  0  0  0  0  0  0  0  0  0  0
    0.3179   -4.9464    5.1183 H   0  0  0  0  0  0  0  0  0  0  0  0
    0.6311   -6.0464    1.7235 H   0  0  0  0  0  0  0  0  0  0  0  0
    0.2501   -4.7880    2.8640 H   0  0  0  0  0  0  0  0  0  0  0  0
    2.5861   -6.9667    2.6743 H   0  0  0  0  0  0  0  0  0  0  0  0
    2.4105   -3.9149    0.2940 H   0  0  0  0  0  0  0  0  0  0  0  0
    5.3837   -4.7045    0.5497 H   0  0  0  0  0  0  0  0  0  0  0  0
    4.4852   -4.5965   -0.8962 H   0  0  0  0  0  0  0  0  0  0  0  0
    4.0558   -5.7418    0.3310 H   0  0  0  0  0  0  0  0  0  0  0  0
    4.6537   -1.8662    0.4473 H   0  0  0  0  0  0  0  0  0  0  0  0
    2.9374   -1.5121    0.2363 H   0  0  0  0  0  0  0  0  0  0  0  0
    3.8049   -2.3879   -0.9866 H   0  0  0  0  0  0  0  0  0  0  0  0
    4.9637   -6.2818    2.8777 H   0  0  0  0  0  0  0  0  0  0  0  0
    6.6193   -4.5236    4.6576 H   0  0  0  0  0  0  0  0  0  0  0  0
    6.9974   -5.2564    3.1374 H   0  0  0  0  0  0  0  0  0  0  0  0
    6.4928   -2.6614    2.9129 H   0  0  0  0  0  0  0  0  0  0  0  0
    5.8852   -3.6063    1.8542 H   0  0  0  0  0  0  0  0  0  0  0  0
    4.3848   -1.9213    2.6429 H   0  0  0  0  0  0  0  0  0  0  0  0
    5.5406   -2.4012    4.9372 H   0  0  0  0  0  0  0  0  0  0  0  0
  1  2  1  0
  1 69  1  0
  1 70  1  0
  1 71  1  0
  2  3  1  0
  2  4  1  0
  2 72  1  0
  3 73  1  0
  3 74  1  0
  3 75  1  0
  4 10  1  0
  4  5  1  6
  4  6  1  0
  5 76  1  0
  6  7  1  0
 68  7  1  6
  7  8  1  6
  7  9  1  0
  8 77  1  0
 10  9  1  6
  9 78  1  0
  9 79  1  0
 10 68  1  0
 10 11  1  0
 11 24  1  1
 11 12  1  0
 11 25  1  0
 12 13  1  0
 12 80  1  0
 12 81  1  0
 13 20  1  0
 13 14  1  1
 13 15  1  0
 14 82  1  0
 15 16  1  0
 15 83  1  0
 15 84  1  0
 16 17  1  0
 17 18  1  0
 17 19  1  1
 17 20  1  0
 18 85  1  0
 18 86  1  0
 18 87  1  0
 19 88  1  0
 20 21  1  1
 20 22  1  0
 21 89  1  0
 21 90  1  0
 21 91  1  0
 22 23  2  0
 22 24  1  0
 25 33  1  0
 25 26  1  1
 25 27  1  0
 26 92  1  0
 27 28  1  0
 27 29  1  0
 27 93  1  6
 28 94  1  0
 29 68  1  0
 29 30  1  6
 29 31  1  0
 30 95  1  0
 31 32  2  0
 31 33  1  0
 33 34  1  6
 33 35  1  0
 34 96  1  0
 35 37  1  6
 35 36  1  0
 35 38  1  0
 36 37  1  0
 36 97  1  0
 36 98  1  0
 38 39  1  0
 38 40  1  1
 38 41  1  0
 39 99  1  0
 39100  1  0
 39101  1  0
 40102  1  0
 41 42  1  0
 41 43  1  0
 41 44  1  0
 42103  1  0
 42104  1  0
 42105  1  0
 43106  1  0
 43107  1  0
 43108  1  0
 44 45  1  0
 45 57  1  0
 45 46  1  0
 45109  1  1
 46 47  2  0
 46 48  1  6
 48 49  1  0
 48110  1  0
 48111  1  0
 49 57  1  0
 49 50  1  1
 49 51  1  0
 50112  1  0
 51 63  1  0
 51 52  1  6
 51 55  1  0
 52 53  1  0
 52 54  1  0
 52113  1  0
 53114  1  0
 53115  1  0
 53116  1  0
 54117  1  0
 54118  1  0
 54119  1  0
 55 56  1  0
 57 56  1  6
 57 58  1  0
 58 60  1  0
 58 66  1  0
 58 59  1  1
 59 60  1  0
 60 61  1  0
 60120  1  6
 61 62  1  0
 61121  1  0
 61122  1  0
 62 63  1  0
 62123  1  0
 62124  1  0
 63 64  1  0
 63125  1  6
 64 65  1  0
 64 68  1  0
 64126  1  1
 65 66  1  0
 66 67  2  0
M  END
>  <i_m_ct_stereo_status>  (107) 
1

>  <s_m_source_file>  (107) 
/var/tmp/pbs.5075288.sched01/tmpqqnbnjfs/192vg5g1vka.sdf

>  <i_m_source_file_index>  (107) 
6

>  <i_lp_mmshare_version>  (107) 
48012

>  <i_f3d_flags>  (107) 
0

>  <s_epik_input>  (107) 
W0NIM11bQ0hdKFtDSDNdKVtDQEBdMShbT0hdKU9bQ0BdKFtPSF0pKFtDSDJdMilbQ0BdMyhbQ0BdKFtPSF0pKEM0PU8pW0NAQEhdNVtPSF0pW0NIXShPQzY9TylbQ0BIXShbQ0BAXShTUzcpKFtDSF0oW0NIM10pW0NIM10pW0NAXTgoW09IXSlbQ0gyXVtTK105W08tXSlbQ0gyXVtDSDJdW0NIXShPJTEwKUM2JTEwW0NAQF03OFtDQEBIXTlPQyhbQ0gzXSkoW0NIM10pW0NAXShbQ0gzXSkoW09IXSlDNihbQ0gyXU82KVtDQEBdNChbT0hdKVtDQF01KFtPSF0pW0NAQF00KFtDQF0xMjMpW0NIMl1bQ0BAXTEoW09IXSlbQ0BAXShbQ0gzXSkoQyg9TylPNClbQ0BdKFtDSDNdKShbT0hdKU9bQ0gyXTE=

>  <s_epik_cmdline>  (107) 
J2VwaWtfcHl0aG9uJywgJy1waHQnLCAnMi4wJywgJy1waCcsICc3LjAnLCAnLXRuJywgJzgnLCAnLW1hJywgJzIwMCcsICctaW1hZScsICc8aW5maWxlLm1hZT4nLCAnLW9tYWUnLCAnPG91dGZpbGUubWFlPic=

>  <r_lp_tautomer_probability>  (107) 
1

>  <r_epik_Ionization_Penalty>  (107) 
0.000298321

>  <r_epik_Ionization_Penalty_Charging>  (107) 
0

>  <r_epik_Ionization_Penalty_Neutral>  (107) 
0.000298321

>  <r_epik_State_Penalty>  (107) 
-0

>  <r_epik_Charging_Adjusted_Penalty>  (107) 
0

>  <i_epik_Tot_Q>  (107) 
0

>  <i_epik_Tot_abs_Q>  (107) 
2

>  <s_epik_Chemistry_Notes>  (107) 
This compound has an ester and may undergo hydrolysis at high or low pH. This compound contains an acetal/aminal-like group ( X-CH(R)-Y where X, Y are N, S, or O) that may be acid/base labile, releasing an aldehyde.

>  <s_lp_Force_Field>  (107) 
OPLS3e

>  <r_lp_Energy>  (107) 
429.785

>  <b_lp_Chiralities_Consistent>  (107) 
1

>  <s_lp_Variant>  (107) 
70:0-3

>  <s_i_glide_gridfile>  (107) 
pfpi4k_grid

>  <i_i_glide_lignum>  (107) 
6

>  <i_i_glide_rotatable_bonds>  (107) 
12

>  <r_i_docking_score>  (107) 
-1.61688

>  <r_i_glide_ligand_efficiency>  (107) 
-0.0237776

>  <r_i_glide_ligand_efficiency_sa>  (107) 
-0.0970521

>  <r_i_glide_ligand_efficiency_ln>  (107) 
-0.309776

>  <r_i_glide_gscore>  (107) 
-1.61688

>  <r_i_glide_lipo>  (107) 
-0.0878498

>  <r_i_glide_hbond>  (107) 
0

>  <r_i_glide_metal>  (107) 
-0

>  <r_i_glide_rewards>  (107) 
-0.115196

>  <r_i_glide_evdw>  (107) 
-19.8977

>  <r_i_glide_ecoul>  (107) 
-4.18229

>  <r_i_glide_erotb>  (107) 
0

>  <r_i_glide_esite>  (107) 
-0.024167

>  <r_i_glide_emodel>  (107) 
-18.1176

>  <r_i_glide_energy>  (107) 
-24.08

>  <r_i_glide_einternal>  (107) 
10.1329

>  <r_i_glide_intrahb_reward>  (107) 
-0

>  <i_i_glide_confnum>  (107) 
1

>  <i_i_glide_posenum>  (107) 
9

>  <r_i_glide_eff_state_penalty>  (107) 
0

>  <ligand_id>  (107) 
70

>  <original_smiles>  (107) 
CC(C)C1(O)OC2(O)CC13C1(CC4(O)COC(C)(O)C4(C)C(=O)O1)C1(O)C(O)C4(O)C(=O)C1(O)C1(CO1)C(C)(O)C(C)(C)OC1[S+]([O-])CC5(O)C6(C(C)C)SSC15C15OC1CCC6C(OC5=O)C243

>  <smiles>  (107) 
[H]OC1([H])C2(O[H])C(=O)C3(O[H])C4(OC4([H])[H])C(O[H])(C([H])([H])[H])C(C([H])([H])[H])(C([H])([H])[H])OC4([H])S(=O)C([H])([H])C5(O[H])C46SSC5(C([H])(C([H])([H])[H])C([H])([H])[H])C4([H])C([H])([H])C([H])([H])C5([H])OC56C(=O)OC4([H])C24C2(O[H])OC(O[H])(C([H])(C([H])([H])[H])C([H])([H])[H])C4(C2([H])[H])C2(OC(=O)C4(C([H])([H])[H])C(O[H])(C([H])([H])[H])OC([H])([H])C4(O[H])C2([H])[H])C13O[H]

$$$$
70:2:1
     RDKit          3D

126138  0  0  1  0  0  0  0  0999 V2000
    6.5165    1.8336    7.1160 C   0  0  0  0  0  0  0  0  0  0  0  0
    5.3198    2.5290    6.3670 C   0  0  0  0  0  0  0  0  0  0  0  0
    4.4533    3.4171    7.3112 C   0  0  0  0  0  0  0  0  0  0  0  0
    4.4341    1.6477    5.3384 C   0  0  1  0  0  0  0  0  0  0  0  0
    3.7324    2.6070    4.5483 O   0  0  0  0  0  0  0  0  0  0  0  0
    5.4263    1.0755    4.6333 O   0  0  0  0  0  0  0  0  0  0  0  0
    4.9771   -0.1781    4.2887 C   0  0  2  0  0  0  0  0  0  0  0  0
    5.7923   -0.6781    3.2784 O   0  0  0  0  0  0  0  0  0  0  0  0
    3.4418   -0.0607    4.0058 C   0  0  0  0  0  0  0  0  0  0  0  0
    3.5710    0.2668    5.4729 C   0  0  2  0  0  0  0  0  0  0  0  0
    2.3604    0.3344    6.5349 C   0  0  2  0  0  0  0  0  0  0  0  0
    1.0503   -0.1240    5.8480 C   0  0  0  0  0  0  0  0  0  0  0  0
   -0.2039    0.1238    6.6795 C   0  0  2  0  0  0  0  0  0  0  0  0
   -0.0801   -0.7423    7.8180 O   0  0  0  0  0  0  0  0  0  0  0  0
   -1.4441   -0.2248    5.8450 C   0  0  0  0  0  0  0  0  0  0  0  0
   -1.6852    0.9396    5.1011 O   0  0  0  0  0  0  0  0  0  0  0  0
   -1.3369    2.0882    5.7999 C   0  0  1  0  0  0  0  0  0  0  0  0
   -0.7254    2.9949    4.7114 C   0  0  0  0  0  0  0  0  0  0  0  0
   -2.4909    2.7312    6.2866 O   0  0  0  0  0  0  0  0  0  0  0  0
   -0.3724    1.6340    6.9857 C   0  0  1  0  0  0  0  0  0  0  0  0
   -1.0486    1.8653    8.3783 C   0  0  0  0  0  0  0  0  0  0  0  0
    0.9779    2.4032    7.0371 C   0  0  0  0  0  0  0  0  0  0  0  0
    1.0046    3.5958    7.3527 O   0  0  0  0  0  0  0  0  0  0  0  0
    2.1376    1.7316    6.7212 O   0  0  0  0  0  0  0  0  0  0  0  0
    2.8032   -0.3170    7.9886 C   0  0  2  0  0  0  0  0  0  0  0  0
    2.1071    0.3507    9.0235 O   0  0  0  0  0  0  0  0  0  0  0  0
    4.2641    0.0438    8.0487 C   0  0  1  0  0  0  0  0  0  0  0  0
    4.7854    0.2437    9.3920 O   0  0  0  0  0  0  0  0  0  0  0  0
    4.9816   -1.0373    7.1034 C   0  0  1  0  0  0  0  0  0  0  0  0
    6.4094   -1.0658    7.1248 O   0  0  0  0  0  0  0  0  0  0  0  0
    4.4192   -2.1110    8.0820 C   0  0  0  0  0  0  0  0  0  0  0  0
    5.1226   -2.8379    8.7684 O   0  0  0  0  0  0  0  0  0  0  0  0
    2.9109   -1.9125    8.2537 C   0  0  2  0  0  0  0  0  0  0  0  0
    2.2072   -2.4558    7.2455 O   0  0  0  0  0  0  0  0  0  0  0  0
    2.2333   -2.7375    9.4353 C   0  0  1  0  0  0  0  0  0  0  0  0
    2.5066   -2.1511   10.8030 C   0  0  0  0  0  0  0  0  0  0  0  0
    1.2140   -2.0226   10.1625 O   0  0  0  0  0  0  0  0  0  0  0  0
    2.0020   -4.3492    9.3339 C   0  0  1  0  0  0  0  0  0  0  0  0
    3.3190   -5.1181    9.5315 C   0  0  0  0  0  0  0  0  0  0  0  0
    1.3627   -4.6492   10.5693 O   0  0  0  0  0  0  0  0  0  0  0  0
    1.0574   -5.0836    8.2116 C   0  0  0  0  0  0  0  0  0  0  0  0
    0.4234   -6.3897    8.7580 C   0  0  0  0  0  0  0  0  0  0  0  0
   -0.1651   -4.1822    7.8552 C   0  0  0  0  0  0  0  0  0  0  0  0
    1.7980   -5.7465    7.1176 O   0  0  0  0  0  0  0  0  0  0  0  0
    1.3501   -5.7230    5.7341 C   0  0  2  0  0  0  0  0  0  0  0  0
    0.6513   -7.1123    4.7505 S   0  0  0  0  0  0  0  0  0  0  0  0
   -0.8045   -7.2646    5.1690 O   0  0  0  0  0  0  0  0  0  0  0  0
    0.6574   -5.9120    3.2926 C   0  0  0  0  0  0  0  0  0  0  0  0
    2.1504   -5.3798    3.2620 C   0  0  1  0  0  0  0  0  0  0  0  0
    2.5615   -6.5665    2.6436 O   0  0  0  0  0  0  0  0  0  0  0  0
    2.8155   -3.9932    2.6046 C   0  0  1  0  0  0  0  0  0  0  0  0
    2.9264   -4.0970    1.0095 C   0  0  0  0  0  0  0  0  0  0  0  0
    3.8515   -5.1823    0.3484 C   0  0  0  0  0  0  0  0  0  0  0  0
    3.1727   -2.7372    0.2765 C   0  0  0  0  0  0  0  0  0  0  0  0
    1.4782   -2.8664    2.9230 S   0  0  0  0  0  0  0  0  0  0  0  0
    1.6313   -3.4765    4.7708 S   0  0  0  0  0  0  0  0  0  0  0  0
    2.3791   -5.1648    4.7359 C   0  0  1  0  0  0  0  0  0  0  0  0
    3.9279   -5.5068    5.0064 C   0  0  1  0  0  0  0  0  0  0  0  0
    4.5466   -6.8043    5.0213 O   0  0  0  0  0  0  0  0  0  0  0  0
    4.8895   -5.9839    3.8852 C   0  0  2  0  0  0  0  0  0  0  0  0
    6.0798   -5.0737    3.6086 C   0  0  0  0  0  0  0  0  0  0  0  0
    5.5534   -3.8367    2.8192 C   0  0  0  0  0  0  0  0  0  0  0  0
    4.1915   -3.2111    3.2827 C   0  0  2  0  0  0  0  0  0  0  0  0
    4.4977   -2.6041    4.8494 C   0  0  2  0  0  0  0  0  0  0  0  0
    4.1779   -3.4793    5.8937 O   0  0  0  0  0  0  0  0  0  0  0  0
    4.5682   -4.6808    6.0134 C   0  0  0  0  0  0  0  0  0  0  0  0
    5.4255   -5.0870    6.7947 O   0  0  0  0  0  0  0  0  0  0  0  0
    4.5091   -1.0494    5.5126 C   0  0  2  0  0  0  0  0  0  0  0  0
    6.1756    1.1218    7.8272 H   0  0  0  0  0  0  0  0  0  0  0  0
    7.0315    2.5814    7.7304 H   0  0  0  0  0  0  0  0  0  0  0  0
    7.2483    1.4060    6.4039 H   0  0  0  0  0  0  0  0  0  0  0  0
    5.8066    3.2662    5.6998 H   0  0  0  0  0  0  0  0  0  0  0  0
    3.8496    2.8194    8.0058 H   0  0  0  0  0  0  0  0  0  0  0  0
    3.7997    4.0923    6.7290 H   0  0  0  0  0  0  0  0  0  0  0  0
    5.1219    4.0319    7.9299 H   0  0  0  0  0  0  0  0  0  0  0  0
    3.5687    2.2139    3.7036 H   0  0  0  0  0  0  0  0  0  0  0  0
    6.6833   -0.4079    3.4680 H   0  0  0  0  0  0  0  0  0  0  0  0
    3.1562    0.7121    3.2898 H   0  0  0  0  0  0  0  0  0  0  0  0
    2.8741   -0.9393    3.7852 H   0  0  0  0  0  0  0  0  0  0  0  0
    0.9316    0.4368    4.9166 H   0  0  0  0  0  0  0  0  0  0  0  0
    1.0591   -1.1548    5.5332 H   0  0  0  0  0  0  0  0  0  0  0  0
    0.6559   -0.4915    8.3545 H   0  0  0  0  0  0  0  0  0  0  0  0
   -1.3149   -1.1070    5.2194 H   0  0  0  0  0  0  0  0  0  0  0  0
   -2.3798   -0.4093    6.3658 H   0  0  0  0  0  0  0  0  0  0  0  0
   -1.4503    3.1386    3.9094 H   0  0  0  0  0  0  0  0  0  0  0  0
    0.1550    2.5342    4.2713 H   0  0  0  0  0  0  0  0  0  0  0  0
   -0.4646    3.9699    5.1155 H   0  0  0  0  0  0  0  0  0  0  0  0
   -3.0343    2.9444    5.5443 H   0  0  0  0  0  0  0  0  0  0  0  0
   -1.9910    1.3400    8.4738 H   0  0  0  0  0  0  0  0  0  0  0  0
   -1.2478    2.9225    8.5601 H   0  0  0  0  0  0  0  0  0  0  0  0
   -0.4060    1.5392    9.2003 H   0  0  0  0  0  0  0  0  0  0  0  0
    2.2736    1.2810    8.9554 H   0  0  0  0  0  0  0  0  0  0  0  0
    4.3358    1.0285    7.7089 H   0  0  0  0  0  0  0  0  0  0  0  0
    4.8630   -0.5449    9.9089 H   0  0  0  0  0  0  0  0  0  0  0  0
    6.7292   -0.2878    6.6810 H   0  0  0  0  0  0  0  0  0  0  0  0
    2.5342   -2.0969    6.4318 H   0  0  0  0  0  0  0  0  0  0  0  0
    2.5595   -2.8272   11.6623 H   0  0  0  0  0  0  0  0  0  0  0  0
    3.1014   -1.2505   10.8778 H   0  0  0  0  0  0  0  0  0  0  0  0
    3.9144   -5.0948    8.6331 H   0  0  0  0  0  0  0  0  0  0  0  0
    3.1660   -6.1575    9.7824 H   0  0  0  0  0  0  0  0  0  0  0  0
    3.9167   -4.6749   10.3303 H   0  0  0  0  0  0  0  0  0  0  0  0
    1.3812   -5.5881   10.6832 H   0  0  0  0  0  0  0  0  0  0  0  0
   -0.2968   -6.2177    9.5617 H   0  0  0  0  0  0  0  0  0  0  0  0
    1.1741   -7.0916    9.1301 H   0  0  0  0  0  0  0  0  0  0  0  0
   -0.1265   -6.9236    7.9776 H   0  0  0  0  0  0  0  0  0  0  0  0
   -0.5523   -3.6800    8.7400 H   0  0  0  0  0  0  0  0  0  0  0  0
   -0.9976   -4.7566    7.4409 H   0  0  0  0  0  0  0  0  0  0  0  0
    0.0451   -3.4051    7.1281 H   0  0  0  0  0  0  0  0  0  0  0  0
    0.4029   -5.1929    5.7460 H   0  0  0  0  0  0  0  0  0  0  0  0
    0.3081   -6.4018    2.3819 H   0  0  0  0  0  0  0  0  0  0  0  0
   -0.0800   -5.1450    3.5185 H   0  0  0  0  0  0  0  0  0  0  0  0
    3.5014   -6.5668    2.5911 H   0  0  0  0  0  0  0  0  0  0  0  0
    1.9164   -4.3579    0.6816 H   0  0  0  0  0  0  0  0  0  0  0  0
    4.9009   -5.1386    0.5944 H   0  0  0  0  0  0  0  0  0  0  0  0
    3.7987   -5.0788   -0.7331 H   0  0  0  0  0  0  0  0  0  0  0  0
    3.5213   -6.1878    0.5708 H   0  0  0  0  0  0  0  0  0  0  0  0
    4.1534   -2.3117    0.4873 H   0  0  0  0  0  0  0  0  0  0  0  0
    2.4258   -1.9580    0.4971 H   0  0  0  0  0  0  0  0  0  0  0  0
    3.1294   -2.8699   -0.8106 H   0  0  0  0  0  0  0  0  0  0  0  0
    4.7624   -6.6475    3.0358 H   0  0  0  0  0  0  0  0  0  0  0  0
    6.6213   -4.8355    4.5302 H   0  0  0  0  0  0  0  0  0  0  0  0
    6.7978   -5.6273    2.9998 H   0  0  0  0  0  0  0  0  0  0  0  0
    6.2829   -3.0557    2.8901 H   0  0  0  0  0  0  0  0  0  0  0  0
    5.5533   -3.9993    1.7828 H   0  0  0  0  0  0  0  0  0  0  0  0
    4.1582   -2.2998    2.6957 H   0  0  0  0  0  0  0  0  0  0  0  0
    5.5746   -2.7130    4.8620 H   0  0  0  0  0  0  0  0  0  0  0  0
  1  2  1  0
  1 69  1  0
  1 70  1  0
  1 71  1  0
  2  3  1  0
  2  4  1  0
  2 72  1  0
  3 73  1  0
  3 74  1  0
  3 75  1  0
  4 10  1  0
  4  5  1  6
  4  6  1  0
  5 76  1  0
  6  7  1  0
 68  7  1  6
  7  8  1  6
  7  9  1  0
  8 77  1  0
 10  9  1  6
  9 78  1  0
  9 79  1  0
 10 68  1  0
 10 11  1  0
 11 24  1  1
 11 12  1  0
 11 25  1  0
 12 13  1  0
 12 80  1  0
 12 81  1  0
 13 20  1  0
 13 14  1  1
 13 15  1  0
 14 82  1  0
 15 16  1  0
 15 83  1  0
 15 84  1  0
 16 17  1  0
 17 18  1  0
 17 19  1  1
 17 20  1  0
 18 85  1  0
 18 86  1  0
 18 87  1  0
 19 88  1  0
 20 21  1  1
 20 22  1  0
 21 89  1  0
 21 90  1  0
 21 91  1  0
 22 23  2  0
 22 24  1  0
 25 33  1  0
 25 26  1  1
 25 27  1  0
 26 92  1  0
 27 28  1  0
 27 29  1  0
 27 93  1  6
 28 94  1  0
 29 68  1  0
 29 30  1  6
 29 31  1  0
 30 95  1  0
 31 32  2  0
 31 33  1  0
 33 34  1  6
 33 35  1  0
 34 96  1  0
 35 37  1  6
 35 36  1  0
 35 38  1  0
 36 37  1  0
 36 97  1  0
 36 98  1  0
 38 39  1  0
 38 40  1  1
 38 41  1  0
 39 99  1  0
 39100  1  0
 39101  1  0
 40102  1  0
 41 42  1  0
 41 43  1  0
 41 44  1  0
 42103  1  0
 42104  1  0
 42105  1  0
 43106  1  0
 43107  1  0
 43108  1  0
 44 45  1  0
 45 57  1  0
 45 46  1  0
 45109  1  1
 46 47  2  0
 46 48  1  6
 48 49  1  0
 48110  1  0
 48111  1  0
 49 57  1  0
 49 50  1  6
 49 51  1  0
 50112  1  0
 51 63  1  0
 51 52  1  6
 51 55  1  0
 52 53  1  0
 52 54  1  0
 52113  1  0
 53114  1  0
 53115  1  0
 53116  1  0
 54117  1  0
 54118  1  0
 54119  1  0
 55 56  1  0
 57 56  1  6
 57 58  1  0
 58 60  1  0
 58 66  1  0
 58 59  1  1
 59 60  1  0
 60 61  1  0
 60120  1  6
 61 62  1  0
 61121  1  0
 61122  1  0
 62 63  1  0
 62123  1  0
 62124  1  0
 63 64  1  0
 63125  1  6
 64 65  1  0
 64 68  1  0
 64126  1  6
 65 66  1  0
 66 67  2  0
M  END
>  <i_m_ct_stereo_status>  (108) 
1

>  <s_m_source_file>  (108) 
/var/tmp/pbs.5075288.sched01/tmpqqnbnjfs/192vg5g1vka.sdf

>  <i_m_source_file_index>  (108) 
6

>  <i_lp_mmshare_version>  (108) 
48012

>  <i_f3d_flags>  (108) 
0

>  <s_epik_input>  (108) 
W0NIM11bQ0hdKFtDSDNdKVtDQEBdMShbT0hdKU9bQ0BdKFtPSF0pKFtDSDJdMilbQ0BdMyhbQ0BdKFtPSF0pKEM0PU8pW0NAQEhdNVtPSF0pW0NIXShPQzY9TylbQ0BIXShbQ0BAXShTUzcpKFtDSF0oW0NIM10pW0NIM10pW0NAXTgoW09IXSlbQ0gyXVtTK105W08tXSlbQ0gyXVtDSDJdW0NIXShPJTEwKUM2JTEwW0NAQF03OFtDQEBIXTlPQyhbQ0gzXSkoW0NIM10pW0NAXShbQ0gzXSkoW09IXSlDNihbQ0gyXU82KVtDQEBdNChbT0hdKVtDQF01KFtPSF0pW0NAQF00KFtDQF0xMjMpW0NIMl1bQ0BAXTEoW09IXSlbQ0BAXShbQ0gzXSkoQyg9TylPNClbQ0BdKFtDSDNdKShbT0hdKU9bQ0gyXTE=

>  <s_epik_cmdline>  (108) 
J2VwaWtfcHl0aG9uJywgJy1waHQnLCAnMi4wJywgJy1waCcsICc3LjAnLCAnLXRuJywgJzgnLCAnLW1hJywgJzIwMCcsICctaW1hZScsICc8aW5maWxlLm1hZT4nLCAnLW9tYWUnLCAnPG91dGZpbGUubWFlPic=

>  <r_lp_tautomer_probability>  (108) 
1

>  <r_epik_Ionization_Penalty>  (108) 
0.000298321

>  <r_epik_Ionization_Penalty_Charging>  (108) 
0

>  <r_epik_Ionization_Penalty_Neutral>  (108) 
0.000298321

>  <r_epik_State_Penalty>  (108) 
-0

>  <r_epik_Charging_Adjusted_Penalty>  (108) 
0

>  <i_epik_Tot_Q>  (108) 
0

>  <i_epik_Tot_abs_Q>  (108) 
2

>  <s_epik_Chemistry_Notes>  (108) 
This compound has an ester and may undergo hydrolysis at high or low pH. This compound contains an acetal/aminal-like group ( X-CH(R)-Y where X, Y are N, S, or O) that may be acid/base labile, releasing an aldehyde.

>  <s_lp_Force_Field>  (108) 
OPLS3e

>  <r_lp_Energy>  (108) 
429.785

>  <b_lp_Chiralities_Consistent>  (108) 
1

>  <s_lp_Variant>  (108) 
70:0-3

>  <s_i_glide_gridfile>  (108) 
pfpi4k_grid

>  <i_i_glide_lignum>  (108) 
6

>  <i_i_glide_rotatable_bonds>  (108) 
12

>  <r_i_docking_score>  (108) 
-1.34735

>  <r_i_glide_ligand_efficiency>  (108) 
-0.019814

>  <r_i_glide_ligand_efficiency_sa>  (108) 
-0.0808739

>  <r_i_glide_ligand_efficiency_ln>  (108) 
-0.258138

>  <r_i_glide_gscore>  (108) 
-1.34735

>  <r_i_glide_lipo>  (108) 
-0.123283

>  <r_i_glide_hbond>  (108) 
0

>  <r_i_glide_metal>  (108) 
-0

>  <r_i_glide_rewards>  (108) 
-0.11079

>  <r_i_glide_evdw>  (108) 
-23.7923

>  <r_i_glide_ecoul>  (108) 
-2.53704

>  <r_i_glide_erotb>  (108) 
0

>  <r_i_glide_esite>  (108) 
-0.0216694

>  <r_i_glide_emodel>  (108) 
-20.3568

>  <r_i_glide_energy>  (108) 
-26.3293

>  <r_i_glide_einternal>  (108) 
8.08249

>  <r_i_glide_intrahb_reward>  (108) 
-0

>  <i_i_glide_confnum>  (108) 
2

>  <i_i_glide_posenum>  (108) 
15

>  <r_i_glide_eff_state_penalty>  (108) 
0

>  <ligand_id>  (108) 
70

>  <original_smiles>  (108) 
CC(C)C1(O)OC2(O)CC13C1(CC4(O)COC(C)(O)C4(C)C(=O)O1)C1(O)C(O)C4(O)C(=O)C1(O)C1(CO1)C(C)(O)C(C)(C)OC1[S+]([O-])CC5(O)C6(C(C)C)SSC15C15OC1CCC6C(OC5=O)C243

>  <smiles>  (108) 
[H]OC1([H])C2(O[H])C(=O)C3(O[H])C4(OC4([H])[H])C(O[H])(C([H])([H])[H])C(C([H])([H])[H])(C([H])([H])[H])OC4([H])S(=O)C([H])([H])C5(O[H])C46SSC5(C([H])(C([H])([H])[H])C([H])([H])[H])C4([H])C([H])([H])C([H])([H])C5([H])OC56C(=O)OC4([H])C24C2(O[H])OC(O[H])(C([H])(C([H])([H])[H])C([H])([H])[H])C4(C2([H])[H])C2(OC(=O)C4(C([H])([H])[H])C(O[H])(C([H])([H])[H])OC([H])([H])C4(O[H])C2([H])[H])C13O[H]

$$$$
70:2:2
     RDKit          3D

126138  0  0  1  0  0  0  0  0999 V2000
    5.6589    5.3663    5.9313 C   0  0  0  0  0  0  0  0  0  0  0  0
    4.6209    4.5301    6.7685 C   0  0  0  0  0  0  0  0  0  0  0  0
    5.3757    4.5205    8.0785 C   0  0  0  0  0  0  0  0  0  0  0  0
    4.2840    3.1075    6.1189 C   0  0  1  0  0  0  0  0  0  0  0  0
    3.8079    3.4038    4.8113 O   0  0  0  0  0  0  0  0  0  0  0  0
    5.5205    2.5893    6.0753 O   0  0  0  0  0  0  0  0  0  0  0  0
    5.3358    1.2325    6.2920 C   0  0  2  0  0  0  0  0  0  0  0  0
    6.5507    0.5709    5.9830 O   0  0  0  0  0  0  0  0  0  0  0  0
    4.0211    0.7933    5.5707 C   0  0  0  0  0  0  0  0  0  0  0  0
    3.5507    1.7427    6.6719 C   0  0  2  0  0  0  0  0  0  0  0  0
    2.0255    1.9095    7.1996 C   0  0  2  0  0  0  0  0  0  0  0  0
    1.0979    0.8566    6.5178 C   0  0  0  0  0  0  0  0  0  0  0  0
   -0.3968    1.0824    6.7275 C   0  0  2  0  0  0  0  0  0  0  0  0
   -0.7081    0.8474    8.0902 O   0  0  0  0  0  0  0  0  0  0  0  0
   -1.2181    0.0898    5.8919 C   0  0  0  0  0  0  0  0  0  0  0  0
   -1.2606    0.6976    4.6206 O   0  0  0  0  0  0  0  0  0  0  0  0
   -1.2931    2.0900    4.7217 C   0  0  1  0  0  0  0  0  0  0  0  0
   -0.4365    2.5781    3.5313 C   0  0  0  0  0  0  0  0  0  0  0  0
   -2.5980    2.5633    4.4812 O   0  0  0  0  0  0  0  0  0  0  0  0
   -0.8019    2.4799    6.1907 C   0  0  1  0  0  0  0  0  0  0  0  0
   -1.9709    3.0879    7.0384 C   0  0  0  0  0  0  0  0  0  0  0  0
    0.3594    3.5443    6.2293 C   0  0  0  0  0  0  0  0  0  0  0  0
    0.1395    4.7148    5.9170 O   0  0  0  0  0  0  0  0  0  0  0  0
    1.6142    3.1461    6.5924 O   0  0  0  0  0  0  0  0  0  0  0  0
    1.8976    2.0656    8.8433 C   0  0  2  0  0  0  0  0  0  0  0  0
    0.8305    2.9299    9.2019 O   0  0  0  0  0  0  0  0  0  0  0  0
    3.1869    2.8380    9.1484 C   0  0  1  0  0  0  0  0  0  0  0  0
    3.1516    3.7343   10.2836 O   0  0  0  0  0  0  0  0  0  0  0  0
    4.3715    1.7106    9.0617 C   0  0  1  0  0  0  0  0  0  0  0  0
    5.6960    2.0566    9.4793 O   0  0  0  0  0  0  0  0  0  0  0  0
    3.6342    1.0610   10.2361 C   0  0  0  0  0  0  0  0  0  0  0  0
    4.1230    0.8736   11.3493 O   0  0  0  0  0  0  0  0  0  0  0  0
    2.1307    0.8542    9.9028 C   0  0  2  0  0  0  0  0  0  0  0  0
    1.9624   -0.2187    9.1383 O   0  0  0  0  0  0  0  0  0  0  0  0
    1.1774    0.4551   11.0677 C   0  0  1  0  0  0  0  0  0  0  0  0
    0.8586    1.5774   12.0077 C   0  0  0  0  0  0  0  0  0  0  0  0
   -0.1081    1.0705   11.0660 O   0  0  0  0  0  0  0  0  0  0  0  0
    1.1687   -1.0609   11.7232 C   0  0  1  0  0  0  0  0  0  0  0  0
    2.3897   -1.2528   12.6214 C   0  0  0  0  0  0  0  0  0  0  0  0
    0.1524   -0.9607   12.7056 O   0  0  0  0  0  0  0  0  0  0  0  0
    0.7891   -2.4093   10.8968 C   0  0  0  0  0  0  0  0  0  0  0  0
    0.1525   -3.4969   11.8192 C   0  0  0  0  0  0  0  0  0  0  0  0
   -0.2928   -2.1235    9.8177 C   0  0  0  0  0  0  0  0  0  0  0  0
    1.9657   -3.2242   10.5052 O   0  0  0  0  0  0  0  0  0  0  0  0
    2.0530   -3.9398    9.2380 C   0  0  2  0  0  0  0  0  0  0  0  0
    1.9109   -5.7482    8.9174 S   0  0  0  0  0  0  0  0  0  0  0  0
    0.4268   -6.1287    9.0029 O   0  0  0  0  0  0  0  0  0  0  0  0
    2.3261   -5.3272    7.1153 C   0  0  0  0  0  0  0  0  0  0  0  0
    3.6707   -4.4802    7.2265 C   0  0  1  0  0  0  0  0  0  0  0  0
    4.4288   -5.6511    7.3688 O   0  0  0  0  0  0  0  0  0  0  0  0
    4.3522   -3.3628    6.1903 C   0  0  1  0  0  0  0  0  0  0  0  0
    5.0689   -4.0708    4.9413 C   0  0  0  0  0  0  0  0  0  0  0  0
    4.1232   -4.9150    4.0300 C   0  0  0  0  0  0  0  0  0  0  0  0
    6.2894   -5.0017    5.1960 C   0  0  0  0  0  0  0  0  0  0  0  0
    2.8722   -2.6515    5.5387 S   0  0  0  0  0  0  0  0  0  0  0  0
    2.4467   -2.3211    7.4187 S   0  0  0  0  0  0  0  0  0  0  0  0
    3.3277   -3.6118    8.4213 C   0  0  1  0  0  0  0  0  0  0  0  0
    4.6954   -3.3573    9.2379 C   0  0  1  0  0  0  0  0  0  0  0  0
    5.4050   -4.3059   10.0707 O   0  0  0  0  0  0  0  0  0  0  0  0
    6.0568   -3.9948    8.8227 C   0  0  2  0  0  0  0  0  0  0  0  0
    7.1410   -3.0106    8.4789 C   0  0  0  0  0  0  0  0  0  0  0  0
    6.7802   -2.3651    7.1171 C   0  0  0  0  0  0  0  0  0  0  0  0
    5.2851   -2.0125    6.7579 C   0  0  2  0  0  0  0  0  0  0  0  0
    4.9305   -0.7340    7.8454 C   0  0  2  0  0  0  0  0  0  0  0  0
    4.3893   -1.1394    9.0682 O   0  0  0  0  0  0  0  0  0  0  0  0
    4.8384   -2.0322    9.8568 C   0  0  0  0  0  0  0  0  0  0  0  0
    5.3648   -1.8032   10.9469 O   0  0  0  0  0  0  0  0  0  0  0  0
    4.5384    0.8878    7.6170 C   0  0  2  0  0  0  0  0  0  0  0  0
    6.6143    4.8493    5.8160 H   0  0  0  0  0  0  0  0  0  0  0  0
    5.8947    6.2854    6.4737 H   0  0  0  0  0  0  0  0  0  0  0  0
    5.3297    5.6801    4.9513 H   0  0  0  0  0  0  0  0  0  0  0  0
    3.6970    5.0888    6.8669 H   0  0  0  0  0  0  0  0  0  0  0  0
    6.2501    3.8876    8.1100 H   0  0  0  0  0  0  0  0  0  0  0  0
    4.8898    4.1691    8.9201 H   0  0  0  0  0  0  0  0  0  0  0  0
    5.4614    5.4685    8.5816 H   0  0  0  0  0  0  0  0  0  0  0  0
    3.7891    2.6106    4.3135 H   0  0  0  0  0  0  0  0  0  0  0  0
    7.2012    0.9757    6.5305 H   0  0  0  0  0  0  0  0  0  0  0  0
    3.9038    1.1030    4.5175 H   0  0  0  0  0  0  0  0  0  0  0  0
    3.6390   -0.2028    5.6397 H   0  0  0  0  0  0  0  0  0  0  0  0
    1.2752    0.9378    5.4500 H   0  0  0  0  0  0  0  0  0  0  0  0
    1.3659   -0.1578    6.7168 H   0  0  0  0  0  0  0  0  0  0  0  0
   -0.2030    1.4628    8.6152 H   0  0  0  0  0  0  0  0  0  0  0  0
   -0.7361   -0.8882    5.8187 H   0  0  0  0  0  0  0  0  0  0  0  0
   -2.2391   -0.0779    6.2485 H   0  0  0  0  0  0  0  0  0  0  0  0
   -0.8264    2.1736    2.5936 H   0  0  0  0  0  0  0  0  0  0  0  0
    0.5942    2.2430    3.6371 H   0  0  0  0  0  0  0  0  0  0  0  0
   -0.4584    3.6637    3.4598 H   0  0  0  0  0  0  0  0  0  0  0  0
   -2.8797    2.2240    3.6491 H   0  0  0  0  0  0  0  0  0  0  0  0
   -2.8222    2.4128    7.1334 H   0  0  0  0  0  0  0  0  0  0  0  0
   -2.3510    4.0236    6.6229 H   0  0  0  0  0  0  0  0  0  0  0  0
   -1.6509    3.3274    8.0557 H   0  0  0  0  0  0  0  0  0  0  0  0
    0.9083    3.1775   10.1065 H   0  0  0  0  0  0  0  0  0  0  0  0
    3.1021    3.5628    8.3783 H   0  0  0  0  0  0  0  0  0  0  0  0
    3.1563    3.3029   11.1224 H   0  0  0  0  0  0  0  0  0  0  0  0
    6.0728    2.6178    8.7995 H   0  0  0  0  0  0  0  0  0  0  0  0
    2.1794   -0.9621    9.6772 H   0  0  0  0  0  0  0  0  0  0  0  0
    0.6697    1.3918   13.0560 H   0  0  0  0  0  0  0  0  0  0  0  0
    1.2833    2.5474   11.7581 H   0  0  0  0  0  0  0  0  0  0  0  0
    3.2675   -1.4595   12.0308 H   0  0  0  0  0  0  0  0  0  0  0  0
    2.2700   -2.0975   13.3040 H   0  0  0  0  0  0  0  0  0  0  0  0
    2.6091   -0.3759   13.2339 H   0  0  0  0  0  0  0  0  0  0  0  0
   -0.6695   -0.6782   12.3198 H   0  0  0  0  0  0  0  0  0  0  0  0
   -0.8266   -3.2067   12.2030 H   0  0  0  0  0  0  0  0  0  0  0  0
    0.7835   -3.7310   12.6770 H   0  0  0  0  0  0  0  0  0  0  0  0
   -0.0017   -4.4373   11.2873 H   0  0  0  0  0  0  0  0  0  0  0  0
   -1.0203   -1.4114   10.2019 H   0  0  0  0  0  0  0  0  0  0  0  0
   -0.8449   -3.0215    9.5377 H   0  0  0  0  0  0  0  0  0  0  0  0
    0.0918   -1.7019    8.8951 H   0  0  0  0  0  0  0  0  0  0  0  0
    1.1130   -3.7504    8.7222 H   0  0  0  0  0  0  0  0  0  0  0  0
    2.3887   -6.2526    6.5344 H   0  0  0  0  0  0  0  0  0  0  0  0
    1.4813   -4.7830    6.6944 H   0  0  0  0  0  0  0  0  0  0  0  0
    4.4835   -6.0668    6.5234 H   0  0  0  0  0  0  0  0  0  0  0  0
    5.4407   -3.2687    4.3023 H   0  0  0  0  0  0  0  0  0  0  0  0
    3.6212   -5.7038    4.5828 H   0  0  0  0  0  0  0  0  0  0  0  0
    4.6802   -5.3958    3.2271 H   0  0  0  0  0  0  0  0  0  0  0  0
    3.3646   -4.3177    3.5283 H   0  0  0  0  0  0  0  0  0  0  0  0
    6.0955   -5.8591    5.8127 H   0  0  0  0  0  0  0  0  0  0  0  0
    7.1776   -4.6267    5.6524 H   0  0  0  0  0  0  0  0  0  0  0  0
    6.7422   -5.3387    4.2725 H   0  0  0  0  0  0  0  0  0  0  0  0
    6.2980   -4.9595    8.3888 H   0  0  0  0  0  0  0  0  0  0  0  0
    7.2912   -2.2188    9.2154 H   0  0  0  0  0  0  0  0  0  0  0  0
    8.1034   -3.5228    8.4272 H   0  0  0  0  0  0  0  0  0  0  0  0
    7.4574   -1.5471    6.9145 H   0  0  0  0  0  0  0  0  0  0  0  0
    7.2029   -2.9543    6.3664 H   0  0  0  0  0  0  0  0  0  0  0  0
    5.3999   -1.4956    5.8120 H   0  0  0  0  0  0  0  0  0  0  0  0
    5.9502   -0.5375    8.1770 H   0  0  0  0  0  0  0  0  0  0  0  0
  1  2  1  0
  1 69  1  0
  1 70  1  0
  1 71  1  0
  2  3  1  0
  2  4  1  0
  2 72  1  0
  3 73  1  0
  3 74  1  0
  3 75  1  0
  4 10  1  0
  4  5  1  6
  4  6  1  0
  5 76  1  0
  6  7  1  0
 68  7  1  6
  7  8  1  6
  7  9  1  0
  8 77  1  0
 10  9  1  6
  9 78  1  0
  9 79  1  0
 10 68  1  0
 10 11  1  0
 11 24  1  6
 11 12  1  0
 11 25  1  0
 12 13  1  0
 12 80  1  0
 12 81  1  0
 13 20  1  0
 13 14  1  1
 13 15  1  0
 14 82  1  0
 15 16  1  0
 15 83  1  0
 15 84  1  0
 16 17  1  0
 17 18  1  0
 17 19  1  6
 17 20  1  0
 18 85  1  0
 18 86  1  0
 18 87  1  0
 19 88  1  0
 20 21  1  1
 20 22  1  0
 21 89  1  0
 21 90  1  0
 21 91  1  0
 22 23  2  0
 22 24  1  0
 25 33  1  0
 25 26  1  6
 25 27  1  0
 26 92  1  0
 27 28  1  0
 27 29  1  0
 27 93  1  6
 28 94  1  0
 29 68  1  0
 29 30  1  1
 29 31  1  0
 30 95  1  0
 31 32  2  0
 31 33  1  0
 33 34  1  6
 33 35  1  0
 34 96  1  0
 35 37  1  6
 35 36  1  0
 35 38  1  0
 36 37  1  0
 36 97  1  0
 36 98  1  0
 38 39  1  0
 38 40  1  1
 38 41  1  0
 39 99  1  0
 39100  1  0
 39101  1  0
 40102  1  0
 41 42  1  0
 41 43  1  0
 41 44  1  0
 42103  1  0
 42104  1  0
 42105  1  0
 43106  1  0
 43107  1  0
 43108  1  0
 44 45  1  0
 45 57  1  0
 45 46  1  0
 45109  1  6
 46 47  2  0
 46 48  1  6
 48 49  1  0
 48110  1  0
 48111  1  0
 49 57  1  0
 49 50  1  1
 49 51  1  0
 50112  1  0
 51 63  1  0
 51 52  1  6
 51 55  1  0
 52 53  1  0
 52 54  1  0
 52113  1  0
 53114  1  0
 53115  1  0
 53116  1  0
 54117  1  0
 54118  1  0
 54119  1  0
 55 56  1  0
 57 56  1  6
 57 58  1  0
 58 60  1  0
 58 66  1  0
 58 59  1  1
 59 60  1  0
 60 61  1  0
 60120  1  6
 61 62  1  0
 61121  1  0
 61122  1  0
 62 63  1  0
 62123  1  0
 62124  1  0
 63 64  1  0
 63125  1  6
 64 65  1  0
 64 68  1  0
 64126  1  1
 65 66  1  0
 66 67  2  0
M  END
>  <i_m_ct_stereo_status>  (109) 
1

>  <s_m_source_file>  (109) 
/var/tmp/pbs.5075288.sched01/tmpqqnbnjfs/192vg5g1vka.sdf

>  <i_m_source_file_index>  (109) 
6

>  <i_lp_mmshare_version>  (109) 
48012

>  <i_f3d_flags>  (109) 
0

>  <s_epik_input>  (109) 
W0NIM11bQ0hdKFtDSDNdKVtDQEBdMShbT0hdKU9bQ0BdKFtPSF0pKFtDSDJdMilbQ0BdMyhbQ0BdKFtPSF0pKEM0PU8pW0NAQEhdNVtPSF0pW0NIXShPQzY9TylbQ0BIXShbQ0BAXShTUzcpKFtDSF0oW0NIM10pW0NIM10pW0NAXTgoW09IXSlbQ0gyXVtTK105W08tXSlbQ0gyXVtDSDJdW0NIXShPJTEwKUM2JTEwW0NAQF03OFtDQEBIXTlPQyhbQ0gzXSkoW0NIM10pW0NAXShbQ0gzXSkoW09IXSlDNihbQ0gyXU82KVtDQEBdNChbT0hdKVtDQF01KFtPSF0pW0NAQF00KFtDQF0xMjMpW0NIMl1bQ0BAXTEoW09IXSlbQ0BAXShbQ0gzXSkoQyg9TylPNClbQ0BdKFtDSDNdKShbT0hdKU9bQ0gyXTE=

>  <s_epik_cmdline>  (109) 
J2VwaWtfcHl0aG9uJywgJy1waHQnLCAnMi4wJywgJy1waCcsICc3LjAnLCAnLXRuJywgJzgnLCAnLW1hJywgJzIwMCcsICctaW1hZScsICc8aW5maWxlLm1hZT4nLCAnLW9tYWUnLCAnPG91dGZpbGUubWFlPic=

>  <r_lp_tautomer_probability>  (109) 
1

>  <r_epik_Ionization_Penalty>  (109) 
0.000298321

>  <r_epik_Ionization_Penalty_Charging>  (109) 
0

>  <r_epik_Ionization_Penalty_Neutral>  (109) 
0.000298321

>  <r_epik_State_Penalty>  (109) 
-0

>  <r_epik_Charging_Adjusted_Penalty>  (109) 
0

>  <i_epik_Tot_Q>  (109) 
0

>  <i_epik_Tot_abs_Q>  (109) 
2

>  <s_epik_Chemistry_Notes>  (109) 
This compound has an ester and may undergo hydrolysis at high or low pH. This compound contains an acetal/aminal-like group ( X-CH(R)-Y where X, Y are N, S, or O) that may be acid/base labile, releasing an aldehyde.

>  <s_lp_Force_Field>  (109) 
OPLS3e

>  <r_lp_Energy>  (109) 
429.785

>  <b_lp_Chiralities_Consistent>  (109) 
1

>  <s_lp_Variant>  (109) 
70:0-3

>  <s_i_glide_gridfile>  (109) 
pfpi4k_grid

>  <i_i_glide_lignum>  (109) 
6

>  <i_i_glide_rotatable_bonds>  (109) 
12

>  <r_i_docking_score>  (109) 
-0.895593

>  <r_i_glide_ligand_efficiency>  (109) 
-0.0131705

>  <r_i_glide_ligand_efficiency_sa>  (109) 
-0.0537574

>  <r_i_glide_ligand_efficiency_ln>  (109) 
-0.171586

>  <r_i_glide_gscore>  (109) 
-0.895593

>  <r_i_glide_lipo>  (109) 
-0.135679

>  <r_i_glide_hbond>  (109) 
0

>  <r_i_glide_metal>  (109) 
-0

>  <r_i_glide_rewards>  (109) 
-0.0256066

>  <r_i_glide_evdw>  (109) 
-25.4864

>  <r_i_glide_ecoul>  (109) 
-7.0941

>  <r_i_glide_erotb>  (109) 
0

>  <r_i_glide_esite>  (109) 
-0.0168913

>  <r_i_glide_emodel>  (109) 
-23.4168

>  <r_i_glide_energy>  (109) 
-32.5805

>  <r_i_glide_einternal>  (109) 
8.33852

>  <r_i_glide_intrahb_reward>  (109) 
-0

>  <i_i_glide_confnum>  (109) 
2

>  <i_i_glide_posenum>  (109) 
10

>  <r_i_glide_eff_state_penalty>  (109) 
0

>  <ligand_id>  (109) 
70

>  <original_smiles>  (109) 
CC(C)C1(O)OC2(O)CC13C1(CC4(O)COC(C)(O)C4(C)C(=O)O1)C1(O)C(O)C4(O)C(=O)C1(O)C1(CO1)C(C)(O)C(C)(C)OC1[S+]([O-])CC5(O)C6(C(C)C)SSC15C15OC1CCC6C(OC5=O)C243

>  <smiles>  (109) 
[H]OC1([H])C2(O[H])C(=O)C3(O[H])C4(OC4([H])[H])C(O[H])(C([H])([H])[H])C(C([H])([H])[H])(C([H])([H])[H])OC4([H])S(=O)C([H])([H])C5(O[H])C46SSC5(C([H])(C([H])([H])[H])C([H])([H])[H])C4([H])C([H])([H])C([H])([H])C5([H])OC56C(=O)OC4([H])C24C2(O[H])OC(O[H])(C([H])(C([H])([H])[H])C([H])([H])[H])C4(C2([H])[H])C2(OC(=O)C4(C([H])([H])[H])C(O[H])(C([H])([H])[H])OC([H])([H])C4(O[H])C2([H])[H])C13O[H]

$$$$
76:2:0
     RDKit          3D

143152  0  0  1  0  0  0  0  0999 V2000
    5.7688   -0.8955   11.4094 C   0  0  0  0  0  0  0  0  0  0  0  0
    4.7604   -1.0305   10.5155 C   0  0  0  0  0  0  0  0  0  0  0  0
    3.3995   -1.4822   10.9419 C   0  0  2  0  0  0  0  0  0  0  0  0
    2.8795   -1.3733   12.3704 C   0  0  0  0  0  0  0  0  0  0  0  0
    1.3293   -1.3128   12.3111 C   0  0  1  0  0  0  0  0  0  0  0  0
    0.8825    0.0205   12.4935 O   0  0  0  0  0  0  0  0  0  0  0  0
    0.6395   -2.0379   11.0738 C   0  0  1  0  0  0  0  0  0  0  0  0
   -0.6775   -1.5762   10.8702 O   0  0  0  0  0  0  0  0  0  0  0  0
    1.4771   -2.5342    9.7435 C   0  0  2  0  0  0  0  0  0  0  0  0
    1.0244   -4.0299    9.7004 C   0  0  0  0  0  0  0  0  0  0  0  0
    2.8853   -2.7466   10.3141 C   0  0  0  0  0  0  0  0  0  0  0  0
    1.4436   -1.7563    8.1912 C   0  0  2  0  0  0  0  0  0  0  0  0
   -0.1119   -1.6942    8.0577 C   0  0  0  0  0  0  0  0  0  0  0  0
    1.7487   -2.7846    6.8042 C   0  0  2  0  0  0  0  0  0  0  0  0
    1.0190   -4.2066    6.7316 C   0  0  0  0  0  0  0  0  0  0  0  0
   -0.3976   -4.1609    6.1358 C   0  0  0  0  0  0  0  0  0  0  0  0
    1.3970   -5.5067    7.0809 C   0  0  0  0  0  0  0  0  0  0  0  0
    2.5927   -6.2816    7.7501 C   0  0  0  0  0  0  0  0  0  0  0  0
    4.0628   -5.8370    7.5782 C   0  0  2  0  0  0  0  0  0  0  0  0
    4.8203   -5.4465    8.7776 O   0  0  0  0  0  0  0  0  0  0  0  0
    5.4357   -4.3547    8.0016 C   0  0  2  0  0  0  0  0  0  0  0  0
    5.6499   -3.1590    8.7767 O   0  0  0  0  0  0  0  0  0  0  0  0
    5.1125   -1.9758    8.1776 C   0  0  0  0  0  0  0  0  0  0  0  0
    4.8564   -0.6930    9.0010 C   0  0  2  0  0  0  0  0  0  0  0  0
    6.1410   -0.1202    8.7642 O   0  0  0  0  0  0  0  0  0  0  0  0
    3.6587    0.2495    8.2909 C   0  0  2  0  0  0  0  0  0  0  0  0
    4.1943    0.1527    6.9856 O   0  0  0  0  0  0  0  0  0  0  0  0
    3.7818    1.8179    8.6283 C   0  0  2  0  0  0  0  0  0  0  0  0
    5.0516    2.3491    9.3849 C   0  0  0  0  0  0  0  0  0  0  0  0
    2.5165    2.0275    9.9588 S   0  0  0  0  0  0  0  0  0  0  0  0
    3.1295    1.5646   11.2908 O   0  0  0  0  0  0  0  0  0  0  0  0
    1.3372    0.7527    9.3527 C   0  0  1  0  0  0  0  0  0  0  0  0
   -0.0667    1.4334    9.4417 C   0  0  0  0  0  0  0  0  0  0  0  0
   -0.8119    1.8419    8.1725 C   0  0  2  0  0  0  0  0  0  0  0  0
   -0.1635    1.2825    6.9154 C   0  0  1  0  0  0  0  0  0  0  0  0
   -0.8832    1.7850    5.6210 C   0  0  0  0  0  0  0  0  0  0  0  0
   -1.5670    3.1527    5.6589 C   0  0  0  0  0  0  0  0  0  0  0  0
   -1.7985    3.7770    4.6285 O   0  0  0  0  0  0  0  0  0  0  0  0
   -2.0031    3.5784    6.8586 O   0  0  0  0  0  0  0  0  0  0  0  0
   -1.3260    3.3148    8.0899 C   0  0  0  0  0  0  0  0  0  0  0  0
   -2.4184    3.5526    9.1549 C   0  0  0  0  0  0  0  0  0  0  0  0
   -0.2337    4.3847    8.2103 C   0  0  0  0  0  0  0  0  0  0  0  0
    1.3957    0.9001    6.9278 C   0  0  1  0  0  0  0  0  0  0  0  0
    1.3880    0.0795    5.8154 O   0  0  0  0  0  0  0  0  0  0  0  0
    2.3221    2.1204    6.4422 C   0  0  1  0  0  0  0  0  0  0  0  0
    1.6627    3.1097    5.6283 O   0  0  0  0  0  0  0  0  0  0  0  0
    1.8106    3.1577    4.2694 C   0  0  0  0  0  0  0  0  0  0  0  0
    1.1064    4.3437    3.6201 C   0  0  0  0  0  0  0  0  0  0  0  0
    2.4441    2.3526    3.5906 O   0  0  0  0  0  0  0  0  0  0  0  0
    3.3674    2.7961    7.4232 C   0  0  1  0  0  0  0  0  0  0  0  0
    2.7546    3.9358    8.0098 O   0  0  0  0  0  0  0  0  0  0  0  0
    4.6076    3.4927    6.6885 C   0  0  0  0  0  0  0  0  0  0  0  0
    4.2895    4.5551    5.5999 C   0  0  0  0  0  0  0  0  0  0  0  0
    5.6867    2.5546    6.0998 C   0  0  0  0  0  0  0  0  0  0  0  0
    1.9884   -0.0765    8.1420 C   0  0  2  0  0  0  0  0  0  0  0  0
    4.1859   -4.4189    7.1152 C   0  0  1  0  0  0  0  0  0  0  0  0
    3.9900   -3.9656    5.6437 C   0  0  1  0  0  0  0  0  0  0  0  0
    5.3458   -3.5272    5.0159 C   0  0  0  0  0  0  0  0  0  0  0  0
    5.9168   -4.7802    4.3271 C   0  0  0  0  0  0  0  0  0  0  0  0
    4.8341   -5.8816    4.2665 C   0  0  1  0  0  0  0  0  0  0  0  0
    5.1871   -7.0172    4.9997 O   0  0  0  0  0  0  0  0  0  0  0  0
    3.5659   -5.1944    4.7465 C   0  0  0  0  0  0  0  0  0  0  0  0
    2.9515   -2.7211    5.6430 C   0  0  1  0  0  0  0  0  0  0  0  0
    2.6178   -2.1520    4.1328 C   0  0  0  0  0  0  0  0  0  0  0  0
    1.1621   -2.3264    3.6102 C   0  0  0  0  0  0  0  0  0  0  0  0
    3.2359   -0.7571    3.8058 C   0  0  0  0  0  0  0  0  0  0  0  0
    3.2542   -2.8259    3.0575 O   0  0  0  0  0  0  0  0  0  0  0  0
    6.7473   -0.5466   11.1246 H   0  0  0  0  0  0  0  0  0  0  0  0
    5.6169   -1.1250   12.4522 H   0  0  0  0  0  0  0  0  0  0  0  0
    2.9318   -0.6747   10.4690 H   0  0  0  0  0  0  0  0  0  0  0  0
    3.1984   -2.2465   12.9432 H   0  0  0  0  0  0  0  0  0  0  0  0
    3.2907   -0.5042   12.8852 H   0  0  0  0  0  0  0  0  0  0  0  0
    0.9759   -1.8010   13.2247 H   0  0  0  0  0  0  0  0  0  0  0  0
   -0.0404    0.0208   12.7083 H   0  0  0  0  0  0  0  0  0  0  0  0
    0.3735   -2.9335   11.6265 H   0  0  0  0  0  0  0  0  0  0  0  0
   -1.0821   -1.3831   11.7117 H   0  0  0  0  0  0  0  0  0  0  0  0
    1.8173   -4.5865    9.2562 H   0  0  0  0  0  0  0  0  0  0  0  0
    0.0768   -4.2654    9.2236 H   0  0  0  0  0  0  0  0  0  0  0  0
    0.9735   -4.5431   10.6596 H   0  0  0  0  0  0  0  0  0  0  0  0
    3.5333   -3.2038    9.6087 H   0  0  0  0  0  0  0  0  0  0  0  0
    2.8953   -3.5133   11.0969 H   0  0  0  0  0  0  0  0  0  0  0  0
   -0.5138   -1.6309    7.0532 H   0  0  0  0  0  0  0  0  0  0  0  0
   -0.5491   -0.8775    8.6001 H   0  0  0  0  0  0  0  0  0  0  0  0
   -0.6130   -2.5694    8.4377 H   0  0  0  0  0  0  0  0  0  0  0  0
    1.1070   -2.2651    6.1324 H   0  0  0  0  0  0  0  0  0  0  0  0
   -0.5814   -3.3181    5.4750 H   0  0  0  0  0  0  0  0  0  0  0  0
   -1.1390   -4.1340    6.9336 H   0  0  0  0  0  0  0  0  0  0  0  0
   -0.5992   -5.0519    5.5426 H   0  0  0  0  0  0  0  0  0  0  0  0
    0.6133   -6.2372    6.8853 H   0  0  0  0  0  0  0  0  0  0  0  0
    2.3500   -6.5743    8.7733 H   0  0  0  0  0  0  0  0  0  0  0  0
    2.5505   -7.2334    7.2329 H   0  0  0  0  0  0  0  0  0  0  0  0
    4.6348   -6.5631    7.0470 H   0  0  0  0  0  0  0  0  0  0  0  0
    6.3433   -4.6727    7.4637 H   0  0  0  0  0  0  0  0  0  0  0  0
    5.6796   -1.7827    7.2666 H   0  0  0  0  0  0  0  0  0  0  0  0
    4.0962   -2.1487    7.8990 H   0  0  0  0  0  0  0  0  0  0  0  0
    6.2665   -0.1151    7.8259 H   0  0  0  0  0  0  0  0  0  0  0  0
    3.6563    0.6442    6.3836 H   0  0  0  0  0  0  0  0  0  0  0  0
    5.9684    2.3500    8.7999 H   0  0  0  0  0  0  0  0  0  0  0  0
    5.2740    1.7716   10.2830 H   0  0  0  0  0  0  0  0  0  0  0  0
    4.9025    3.3783    9.7100 H   0  0  0  0  0  0  0  0  0  0  0  0
    1.2128    0.0957   10.1684 H   0  0  0  0  0  0  0  0  0  0  0  0
   -0.7339    0.7695    9.9920 H   0  0  0  0  0  0  0  0  0  0  0  0
   -0.0144    2.2771   10.1268 H   0  0  0  0  0  0  0  0  0  0  0  0
   -1.7542    1.2888    8.2376 H   0  0  0  0  0  0  0  0  0  0  0  0
   -0.6682    0.3364    6.8765 H   0  0  0  0  0  0  0  0  0  0  0  0
   -0.2580    1.7196    4.7349 H   0  0  0  0  0  0  0  0  0  0  0  0
   -1.7053    1.1057    5.3837 H   0  0  0  0  0  0  0  0  0  0  0  0
   -2.0422    3.4186   10.1712 H   0  0  0  0  0  0  0  0  0  0  0  0
   -3.2577    2.8705    9.0185 H   0  0  0  0  0  0  0  0  0  0  0  0
   -2.8172    4.5647    9.0800 H   0  0  0  0  0  0  0  0  0  0  0  0
    0.3970    4.2349    9.0872 H   0  0  0  0  0  0  0  0  0  0  0  0
   -0.6672    5.3838    8.2845 H   0  0  0  0  0  0  0  0  0  0  0  0
    0.3958    4.3955    7.3262 H   0  0  0  0  0  0  0  0  0  0  0  0
    1.2109    0.6160    5.0511 H   0  0  0  0  0  0  0  0  0  0  0  0
    3.0104    1.6678    5.7415 H   0  0  0  0  0  0  0  0  0  0  0  0
    0.5975    4.9525    4.3659 H   0  0  0  0  0  0  0  0  0  0  0  0
    0.3722    3.9901    2.8949 H   0  0  0  0  0  0  0  0  0  0  0  0
    1.8180    4.9760    3.0882 H   0  0  0  0  0  0  0  0  0  0  0  0
    2.4938    4.5297    7.3189 H   0  0  0  0  0  0  0  0  0  0  0  0
    5.1126    4.0918    7.4526 H   0  0  0  0  0  0  0  0  0  0  0  0
    4.1996    4.0963    4.6166 H   0  0  0  0  0  0  0  0  0  0  0  0
    5.1122    5.2628    5.4839 H   0  0  0  0  0  0  0  0  0  0  0  0
    3.3927    5.1456    5.7972 H   0  0  0  0  0  0  0  0  0  0  0  0
    5.2840    1.9157    5.3113 H   0  0  0  0  0  0  0  0  0  0  0  0
    6.1586    1.9078    6.8371 H   0  0  0  0  0  0  0  0  0  0  0  0
    6.4925    3.1544    5.7147 H   0  0  0  0  0  0  0  0  0  0  0  0
    3.4385   -3.9879    7.7443 H   0  0  0  0  0  0  0  0  0  0  0  0
    5.2360   -2.7180    4.2769 H   0  0  0  0  0  0  0  0  0  0  0  0
    6.0570   -3.1069    5.7391 H   0  0  0  0  0  0  0  0  0  0  0  0
    6.2088   -4.4707    3.3240 H   0  0  0  0  0  0  0  0  0  0  0  0
    6.8207   -5.0852    4.8653 H   0  0  0  0  0  0  0  0  0  0  0  0
    4.7229   -6.1932    3.2289 H   0  0  0  0  0  0  0  0  0  0  0  0
    6.0953   -7.1281    4.8692 H   0  0  0  0  0  0  0  0  0  0  0  0
    2.9278   -5.9316    5.2198 H   0  0  0  0  0  0  0  0  0  0  0  0
    2.9544   -4.9126    3.9016 H   0  0  0  0  0  0  0  0  0  0  0  0
    3.5367   -1.8879    5.9820 H   0  0  0  0  0  0  0  0  0  0  0  0
    0.4099   -1.7760    4.1780 H   0  0  0  0  0  0  0  0  0  0  0  0
    0.8792   -3.3865    3.5948 H   0  0  0  0  0  0  0  0  0  0  0  0
    1.0560   -1.9768    2.5741 H   0  0  0  0  0  0  0  0  0  0  0  0
    2.7836   -0.3110    2.9142 H   0  0  0  0  0  0  0  0  0  0  0  0
    4.3075   -0.8225    3.6156 H   0  0  0  0  0  0  0  0  0  0  0  0
    3.1628   -0.0342    4.6013 H   0  0  0  0  0  0  0  0  0  0  0  0
    3.0506   -2.3491    2.2602 H   0  0  0  0  0  0  0  0  0  0  0  0
  1  2  2  0
  1 68  1  0
  1 69  1  0
  2 24  1  0
  2  3  1  0
  3 11  1  0
  3  4  1  0
  3 70  1  6
  4  5  1  0
  4 71  1  0
  4 72  1  0
  5  6  1  0
  5  7  1  0
  5 73  1  1
  6 74  1  0
  7  8  1  0
  7  9  1  0
  7 75  1  1
  8 76  1  0
  9 10  1  6
  9 11  1  0
  9 12  1  0
 10 77  1  0
 10 78  1  0
 10 79  1  0
 11 80  1  0
 11 81  1  0
 55 12  1  6
 12 13  1  6
 12 14  1  0
 13 82  1  0
 13 83  1  0
 13 84  1  0
 14 63  1  0
 14 15  1  0
 14 85  1  6
 15 16  1  0
 15 17  2  3
 16 86  1  0
 16 87  1  0
 16 88  1  0
 17 18  1  0
 17 89  1  0
 18 19  1  0
 18 90  1  0
 18 91  1  0
 19 56  1  0
 19 20  1  0
 19 92  1  6
 20 21  1  0
 21 22  1  0
 21 56  1  0
 21 93  1  6
 22 23  1  0
 23 24  1  0
 23 94  1  0
 23 95  1  0
 24 25  1  1
 24 26  1  0
 25 96  1  0
 26 55  1  0
 26 27  1  6
 26 28  1  0
 27 97  1  0
 28 50  1  0
 28 29  1  1
 30 28  1  6
 29 98  1  0
 29 99  1  0
 29100  1  0
 30 31  2  0
 30 32  1  0
 32 55  1  0
 32 33  1  0
 32101  1  1
 33 34  1  0
 33102  1  0
 33103  1  0
 34 40  1  0
 34 35  1  0
 34104  1  1
 35 36  1  0
 35 43  1  0
 35105  1  1
 36 37  1  0
 36106  1  0
 36107  1  0
 37 38  2  0
 37 39  1  0
 39 40  1  0
 40 41  1  0
 40 42  1  0
 41108  1  0
 41109  1  0
 41110  1  0
 42111  1  0
 42112  1  0
 42113  1  0
 43 44  1  6
 43 45  1  0
 43 55  1  0
 44114  1  0
 45 46  1  0
 45 50  1  0
 45115  1  6
 46 47  1  0
 47 48  1  0
 47 49  2  0
 48116  1  0
 48117  1  0
 48118  1  0
 50 51  1  1
 50 52  1  0
 51119  1  0
 52 53  1  0
 52 54  1  0
 52120  1  0
 53121  1  0
 53122  1  0
 53123  1  0
 54124  1  0
 54125  1  0
 54126  1  0
 56 57  1  0
 56127  1  1
 57 62  1  6
 57 58  1  0
 57 63  1  0
 58 59  1  0
 58128  1  0
 58129  1  0
 59 60  1  0
 59130  1  0
 59131  1  0
 60 61  1  0
 60 62  1  0
 60132  1  6
 61133  1  0
 62134  1  0
 62135  1  0
 63 64  1  0
 63136  1  1
 64 65  1  0
 64 66  1  0
 64 67  1  0
 65137  1  0
 65138  1  0
 65139  1  0
 66140  1  0
 66141  1  0
 66142  1  0
 67143  1  0
M  END
>  <i_m_ct_stereo_status>  (110) 
1

>  <s_m_source_file>  (110) 
/var/tmp/pbs.5075288.sched01/tmpqqnbnjfs/192vg5g1vka.sdf

>  <i_m_source_file_index>  (110) 
13

>  <i_lp_mmshare_version>  (110) 
48012

>  <i_f3d_flags>  (110) 
0

>  <s_epik_input>  (110) 
W0NIM11DMShbQ0gzXSlPQyg9TylbQ0gyXVtDQEBIXShbQ0BAXTIoW09IXSlbQ0BASF0oT0MoPU8pW0NIM10pW0NAXTMoW09IXSlbQ0hdKFtDSDNdKVtDSDNdKVtDQEhdMVtDSDJdW0NAQEhdNFtTK10oW08tXSlbQ0BAXTMoW0NIM10pW0NAQF01KFtPSF0pW0NAQF0oW09IXSkoQyg9W0NIMl0pW0NAQEhdKFtDSDJdNilbQ0gyXVtDQEBIXShbT0hdKVtDQEBIXShbT0hdKVtDQEBdNihbQ0gzXSlbQ0BdNyhbQ0BAXTI0NSlbQ0gzXSlbQ0gyXU9bQ0BASF04W0NASF05W0NAXTEoW0NIMl1bQ0gyXVtDQEBIXShbT0hdKVtDSDJdMSlbQ0BASF0oQyhbQ0gzXSkoW0NIM10pW09IXSlbQ0BIXTcvQyhbQ0gzXSk9W0NIXVxbQ0gyXVtDQEBIXTlPOA==

>  <s_epik_cmdline>  (110) 
J2VwaWtfcHl0aG9uJywgJy1waHQnLCAnMi4wJywgJy1waCcsICc3LjAnLCAnLXRuJywgJzgnLCAnLW1hJywgJzIwMCcsICctaW1hZScsICc8aW5maWxlLm1hZT4nLCAnLW9tYWUnLCAnPG91dGZpbGUubWFlPic=

>  <r_lp_tautomer_probability>  (110) 
1

>  <r_epik_Ionization_Penalty>  (110) 
3.60621e-06

>  <r_epik_Ionization_Penalty_Charging>  (110) 
0

>  <r_epik_Ionization_Penalty_Neutral>  (110) 
3.60621e-06

>  <r_epik_State_Penalty>  (110) 
-0

>  <r_epik_Charging_Adjusted_Penalty>  (110) 
0

>  <i_epik_Tot_Q>  (110) 
0

>  <i_epik_Tot_abs_Q>  (110) 
2

>  <s_epik_Chemistry_Notes>  (110) 
This compound has an ester and may undergo hydrolysis at high or low pH. This compound contains an acetal/aminal-like group ( X-CH(R)-Y where X, Y are N, S, or O) that may be acid/base labile, releasing an aldehyde.

>  <s_lp_Force_Field>  (110) 
OPLS3e

>  <r_lp_Energy>  (110) 
384.459

>  <b_lp_Chiralities_Consistent>  (110) 
1

>  <s_lp_Variant>  (110) 
76:0-3

>  <s_i_glide_gridfile>  (110) 
pfpi4k_grid

>  <i_i_glide_lignum>  (110) 
13

>  <i_i_glide_rotatable_bonds>  (110) 
12

>  <r_i_docking_score>  (110) 
-2.06953

>  <r_i_glide_ligand_efficiency>  (110) 
-0.0308885

>  <r_i_glide_ligand_efficiency_sa>  (110) 
-0.125455

>  <r_i_glide_ligand_efficiency_ln>  (110) 
-0.397628

>  <r_i_glide_gscore>  (110) 
-2.06953

>  <r_i_glide_lipo>  (110) 
-0.092258

>  <r_i_glide_hbond>  (110) 
0

>  <r_i_glide_metal>  (110) 
-0

>  <r_i_glide_rewards>  (110) 
-0.00384523

>  <r_i_glide_evdw>  (110) 
-25.5164

>  <r_i_glide_ecoul>  (110) 
-4.86185

>  <r_i_glide_erotb>  (110) 
0.0480374

>  <r_i_glide_esite>  (110) 
-0.0163678

>  <r_i_glide_emodel>  (110) 
-30.2618

>  <r_i_glide_energy>  (110) 
-30.3783

>  <r_i_glide_einternal>  (110) 
1.55388

>  <r_i_glide_intrahb_reward>  (110) 
-0

>  <i_i_glide_confnum>  (110) 
2

>  <i_i_glide_posenum>  (110) 
36

>  <r_i_glide_eff_state_penalty>  (110) 
0

>  <ligand_id>  (110) 
76

>  <original_smiles>  (110) 
C=C1C2CC(O)C(O)C(C)(C2)C2(C)C3C(C)=CCC4OC(OCC1(O)C1(O)C5(C)[S+]([O-])C6CC7C(CC(=O)OC7(C)C)C(O)(C(OC(C)=O)C5(O)C(C)C)C621)C4C1(CCC(O)C1)C3C(C)(C)O

>  <smiles>  (110) 
[H]OC1([H])C([H])([H])C([H])([H])C2(C1([H])[H])C1([H])C3([H])OC([H])([H])C4(O[H])C(=C([H])[H])C5([H])C([H])([H])C([H])(O[H])C([H])(O[H])C(C([H])([H])[H])(C5([H])[H])C(C([H])([H])[H])(C([H])(C(C([H])([H])[H])=C([H])C([H])([H])C1([H])O3)C2([H])C(O[H])(C([H])([H])[H])C([H])([H])[H])C12C3([H])S(=O)C(C([H])([H])[H])(C(O[H])(C([H])(C([H])([H])[H])C([H])([H])[H])C([H])(OC(=O)C([H])([H])[H])C1(O[H])C1([H])C([H])([H])C(=O)OC(C([H])([H])[H])(C([H])([H])[H])C1([H])C3([H])[H])C42O[H]

$$$$
78:1:0
     RDKit          3D

128137  0  0  1  0  0  0  0  0999 V2000
   -0.8239    0.5316    8.5487 C   0  0  0  0  0  0  0  0  0  0  0  0
   -0.9277    0.6524    7.2254 C   0  0  0  0  0  0  0  0  0  0  0  0
   -1.9770    1.6353    6.6630 C   0  0  0  0  0  0  0  0  0  0  0  0
   -0.0261   -0.0963    6.1894 C   0  0  1  0  0  0  0  0  0  0  0  0
   -0.6001    0.0313    4.8798 O   0  0  0  0  0  0  0  0  0  0  0  0
   -1.7928   -0.6911    4.5392 C   0  0  0  0  0  0  0  0  0  0  0  0
    1.3070    0.7955    6.0598 C   0  0  0  0  0  0  0  0  0  0  0  0
    2.5929    0.2824    5.2928 C   0  0  1  0  0  0  0  0  0  0  0  0
    2.0865   -0.5857    4.3215 O   0  0  0  0  0  0  0  0  0  0  0  0
    3.1195    1.2831    4.2165 C   0  0  1  0  0  0  0  0  0  0  0  0
    3.2528    2.5985    4.7655 O   0  0  0  0  0  0  0  0  0  0  0  0
    2.8503    3.6471    3.8932 C   0  0  0  0  0  0  0  0  0  0  0  0
    4.5001    0.7171    3.8406 C   0  0  0  0  0  0  0  0  0  0  0  0
    4.8805   -0.4691    4.7870 C   0  0  2  0  0  0  0  0  0  0  0  0
    6.2011   -0.2119    5.2713 O   0  0  0  0  0  0  0  0  0  0  0  0
    7.2301    0.2645    4.4022 C   0  0  0  0  0  0  0  0  0  0  0  0
    4.9213   -2.0051    4.1946 C   0  0  1  0  0  0  0  0  0  0  0  0
    4.0078   -3.1696    4.5517 C   0  0  1  0  0  0  0  0  0  0  0  0
    2.6501   -3.2043    5.1494 C   0  0  0  0  0  0  0  0  0  0  0  0
    2.5632   -3.0945    6.6813 C   0  0  2  0  0  0  0  0  0  0  0  0
    1.4515   -2.1256    7.2190 C   0  0  2  0  0  0  0  0  0  0  0  0
    1.3250   -2.3913    8.7212 C   0  0  2  0  0  0  0  0  0  0  0  0
    2.4064   -1.5903    9.5403 C   0  0  0  0  0  0  0  0  0  0  0  0
    3.3816   -0.5987    8.7741 C   0  0  0  0  0  0  0  0  0  0  0  0
    4.1683   -1.0913    7.4586 C   0  0  1  0  0  0  0  0  0  0  0  0
    5.5594   -0.8872    7.8803 O   0  0  0  0  0  0  0  0  0  0  0  0
    6.6823   -1.7768    7.6472 C   0  0  0  0  0  0  0  0  0  0  0  0
    3.9588   -2.6207    7.2996 C   0  0  1  0  0  0  0  0  0  0  0  0
    4.3130   -3.3380    8.4747 O   0  0  0  0  0  0  0  0  0  0  0  0
    3.9549   -0.1832    6.0792 C   0  0  2  0  0  0  0  0  0  0  0  0
    4.3553    1.0751    6.6343 O   0  0  0  0  0  0  0  0  0  0  0  0
    1.4697   -4.2741    8.8827 S   0  0  0  0  0  0  0  0  0  0  0  0
    2.5249   -4.6461    9.8772 O   0  0  0  0  0  0  0  0  0  0  0  0
    2.0674   -4.4948    7.1143 C   0  0  2  0  0  0  0  0  0  0  0  0
    2.7585   -5.9004    6.7401 C   0  0  1  0  0  0  0  0  0  0  0  0
    1.9749   -6.8889    5.8168 C   0  0  1  0  0  0  0  0  0  0  0  0
    0.4600   -6.7263    5.6460 C   0  0  0  0  0  0  0  0  0  0  0  0
    0.3425   -6.0273    4.4213 O   0  0  0  0  0  0  0  0  0  0  0  0
    1.4197   -6.1250    3.6249 C   0  0  0  0  0  0  0  0  0  0  0  0
    1.4829   -5.6843    2.4824 O   0  0  0  0  0  0  0  0  0  0  0  0
    2.5616   -6.8490    4.3792 C   0  0  1  0  0  0  0  0  0  0  0  0
    4.0680   -6.3347    4.4174 C   0  0  1  0  0  0  0  0  0  0  0  0
    5.0427   -7.5476    4.0845 C   0  0  1  0  0  0  0  0  0  0  0  0
    4.5310   -8.3484    3.0143 O   0  0  0  0  0  0  0  0  0  0  0  0
    5.1698   -9.6087    2.8492 C   0  0  0  0  0  0  0  0  0  0  0  0
    6.3910   -6.9741    3.6104 C   0  0  0  0  0  0  0  0  0  0  0  0
    6.1711   -5.4571    3.4570 C   0  0  1  0  0  0  0  0  0  0  0  0
    6.9582   -4.9210    2.4031 O   0  0  0  0  0  0  0  0  0  0  0  0
    8.3317   -5.2871    2.4042 C   0  0  0  0  0  0  0  0  0  0  0  0
    4.6308   -5.2824    3.2516 C   0  0  1  0  0  0  0  0  0  0  0  0
    4.2336   -5.9042    2.0208 O   0  0  0  0  0  0  0  0  0  0  0  0
    4.6414   -5.5933    0.7718 C   0  0  0  0  0  0  0  0  0  0  0  0
    4.2076   -6.6501   -0.2133 C   0  0  0  0  0  0  0  0  0  0  0  0
    5.2649   -4.5884    0.4116 O   0  0  0  0  0  0  0  0  0  0  0  0
    4.0969   -3.7668    3.2074 C   0  0  2  0  0  0  0  0  0  0  0  0
    4.8885   -2.5452    2.7842 N   0  0  1  0  0  0  0  0  0  0  0  0
    4.2457   -1.7392    1.7153 C   0  0  0  0  0  0  0  0  0  0  0  0
    4.1582   -6.0521    6.0137 C   0  0  1  0  0  0  0  0  0  0  0  0
    5.2815   -5.3920    6.6103 O   0  0  0  0  0  0  0  0  0  0  0  0
    6.4945   -6.1279    6.7955 C   0  0  0  0  0  0  0  0  0  0  0  0
    0.1955   -1.6835    6.4119 C   0  0  1  0  0  0  0  0  0  0  0  0
   -0.9345   -2.4043    6.8777 O   0  0  0  0  0  0  0  0  0  0  0  0
   -1.4804    1.0979    9.1950 H   0  0  0  0  0  0  0  0  0  0  0  0
   -0.1091   -0.1098    9.0503 H   0  0  0  0  0  0  0  0  0  0  0  0
   -2.5699    1.1941    5.8898 H   0  0  0  0  0  0  0  0  0  0  0  0
   -1.4629    2.5102    6.2457 H   0  0  0  0  0  0  0  0  0  0  0  0
   -2.6432    1.9809    7.4671 H   0  0  0  0  0  0  0  0  0  0  0  0
   -2.1577   -0.2713    3.6051 H   0  0  0  0  0  0  0  0  0  0  0  0
   -2.5889   -0.5926    5.2755 H   0  0  0  0  0  0  0  0  0  0  0  0
   -1.5882   -1.7473    4.3659 H   0  0  0  0  0  0  0  0  0  0  0  0
    0.9883    1.7185    5.5772 H   0  0  0  0  0  0  0  0  0  0  0  0
    1.6092    1.1463    7.0429 H   0  0  0  0  0  0  0  0  0  0  0  0
    1.4707   -0.0983    3.8119 H   0  0  0  0  0  0  0  0  0  0  0  0
    2.5027    1.3501    3.3130 H   0  0  0  0  0  0  0  0  0  0  0  0
    2.9639    4.6068    4.3944 H   0  0  0  0  0  0  0  0  0  0  0  0
    1.8025    3.5438    3.6124 H   0  0  0  0  0  0  0  0  0  0  0  0
    3.4423    3.6728    2.9811 H   0  0  0  0  0  0  0  0  0  0  0  0
    4.6496    0.5410    2.7764 H   0  0  0  0  0  0  0  0  0  0  0  0
    5.1338    1.5537    4.0864 H   0  0  0  0  0  0  0  0  0  0  0  0
    8.1977    0.1436    4.8867 H   0  0  0  0  0  0  0  0  0  0  0  0
    7.1895    1.3454    4.2606 H   0  0  0  0  0  0  0  0  0  0  0  0
    7.2454   -0.2139    3.4163 H   0  0  0  0  0  0  0  0  0  0  0  0
    5.8951   -2.3817    4.4887 H   0  0  0  0  0  0  0  0  0  0  0  0
    4.6644   -3.8439    5.0645 H   0  0  0  0  0  0  0  0  0  0  0  0
    1.8936   -2.7611    4.5230 H   0  0  0  0  0  0  0  0  0  0  0  0
    2.3362   -4.1976    4.9092 H   0  0  0  0  0  0  0  0  0  0  0  0
    1.8597   -1.1698    7.1645 H   0  0  0  0  0  0  0  0  0  0  0  0
    0.3421   -2.1487    9.1069 H   0  0  0  0  0  0  0  0  0  0  0  0
    1.8572   -0.9760   10.2583 H   0  0  0  0  0  0  0  0  0  0  0  0
    2.9759   -2.2343   10.2070 H   0  0  0  0  0  0  0  0  0  0  0  0
    2.8274    0.3040    8.5532 H   0  0  0  0  0  0  0  0  0  0  0  0
    4.1051   -0.2376    9.4966 H   0  0  0  0  0  0  0  0  0  0  0  0
    7.5375   -1.4150    8.2229 H   0  0  0  0  0  0  0  0  0  0  0  0
    7.0016   -1.8506    6.6073 H   0  0  0  0  0  0  0  0  0  0  0  0
    6.4971   -2.7950    7.9817 H   0  0  0  0  0  0  0  0  0  0  0  0
    4.8193   -2.9335    6.7573 H   0  0  0  0  0  0  0  0  0  0  0  0
    3.6821   -3.2137    9.1344 H   0  0  0  0  0  0  0  0  0  0  0  0
    4.3072    1.7379    5.9705 H   0  0  0  0  0  0  0  0  0  0  0  0
    1.1017   -4.5410    6.6357 H   0  0  0  0  0  0  0  0  0  0  0  0
    2.8705   -6.3931    7.7006 H   0  0  0  0  0  0  0  0  0  0  0  0
    2.1423   -7.8909    6.2186 H   0  0  0  0  0  0  0  0  0  0  0  0
   -0.0124   -7.7016    5.5351 H   0  0  0  0  0  0  0  0  0  0  0  0
   -0.0420   -6.2299    6.4781 H   0  0  0  0  0  0  0  0  0  0  0  0
    2.5129   -7.8597    3.9898 H   0  0  0  0  0  0  0  0  0  0  0  0
    5.1784   -8.2131    4.9332 H   0  0  0  0  0  0  0  0  0  0  0  0
    4.7731  -10.0901    1.9566 H   0  0  0  0  0  0  0  0  0  0  0  0
    4.9639  -10.2496    3.7061 H   0  0  0  0  0  0  0  0  0  0  0  0
    6.2540   -9.5432    2.7248 H   0  0  0  0  0  0  0  0  0  0  0  0
    7.2141   -7.2173    4.2882 H   0  0  0  0  0  0  0  0  0  0  0  0
    6.6197   -7.3931    2.6322 H   0  0  0  0  0  0  0  0  0  0  0  0
    6.4454   -4.9156    4.3601 H   0  0  0  0  0  0  0  0  0  0  0  0
    8.8363   -4.7443    1.6060 H   0  0  0  0  0  0  0  0  0  0  0  0
    8.4597   -6.3501    2.2052 H   0  0  0  0  0  0  0  0  0  0  0  0
    8.8208   -5.0831    3.3512 H   0  0  0  0  0  0  0  0  0  0  0  0
    3.1236   -6.6154   -0.2947 H   0  0  0  0  0  0  0  0  0  0  0  0
    4.5072   -7.6560    0.1043 H   0  0  0  0  0  0  0  0  0  0  0  0
    4.5928   -6.4544   -1.2071 H   0  0  0  0  0  0  0  0  0  0  0  0
    3.1127   -3.7054    2.7233 H   0  0  0  0  0  0  0  0  0  0  0  0
    3.3355   -1.2427    2.0726 H   0  0  0  0  0  0  0  0  0  0  0  0
    3.9699   -2.3766    0.8749 H   0  0  0  0  0  0  0  0  0  0  0  0
    4.9482   -1.0002    1.3297 H   0  0  0  0  0  0  0  0  0  0  0  0
    4.3431   -7.0584    6.3866 H   0  0  0  0  0  0  0  0  0  0  0  0
    7.2087   -5.5403    7.3715 H   0  0  0  0  0  0  0  0  0  0  0  0
    6.9622   -6.3472    5.8813 H   0  0  0  0  0  0  0  0  0  0  0  0
    6.3240   -7.0624    7.3227 H   0  0  0  0  0  0  0  0  0  0  0  0
    0.2878   -2.1055    5.4226 H   0  0  0  0  0  0  0  0  0  0  0  0
   -0.7754   -3.3235    6.7699 H   0  0  0  0  0  0  0  0  0  0  0  0
    5.8222   -2.8580    2.4810 H   0  0  0  0  0  0  0  0  0  0  0  0
  1  2  2  0
  1 63  1  0
  1 64  1  0
  2  3  1  0
  2  4  1  0
  3 65  1  0
  3 66  1  0
  3 67  1  0
  4 61  1  0
  4  5  1  6
  4  7  1  0
  5  6  1  0
  6 68  1  0
  6 69  1  0
  6 70  1  0
  7  8  1  0
  7 71  1  0
  7 72  1  0
  8 30  1  0
  8  9  1  6
  8 10  1  0
  9 73  1  0
 10 11  1  0
 10 13  1  0
 10 74  1  6
 11 12  1  0
 12 75  1  0
 12 76  1  0
 12 77  1  0
 13 14  1  0
 13 78  1  0
 13 79  1  0
 14 30  1  0
 14 15  1  1
 14 17  1  0
 15 16  1  0
 16 80  1  0
 16 81  1  0
 16 82  1  0
 17 56  1  0
 17 18  1  0
 17 83  1  1
 18 55  1  0
 18 19  1  0
 18 84  1  1
 20 19  1  6
 19 85  1  0
 19 86  1  0
 20 28  1  0
 20 34  1  0
 20 21  1  0
 21 22  1  0
 21 61  1  0
 21 87  1  1
 22 23  1  0
 32 22  1  6
 22 88  1  1
 23 24  1  0
 23 89  1  0
 23 90  1  0
 24 25  1  0
 24 91  1  0
 24 92  1  0
 25 26  1  1
 25 28  1  0
 25 30  1  0
 26 27  1  0
 27 93  1  0
 27 94  1  0
 27 95  1  0
 28 29  1  0
 28 96  1  6
 29 97  1  0
 30 31  1  1
 31 98  1  0
 32 33  2  0
 32 34  1  0
 34 35  1  0
 34 99  1  6
 35 58  1  0
 35 36  1  0
 35100  1  1
 36 41  1  0
 36 37  1  0
 36101  1  1
 37 38  1  0
 37102  1  0
 37103  1  0
 38 39  1  0
 39 40  2  0
 39 41  1  0
 41 42  1  0
 41104  1  6
 42 50  1  6
 42 43  1  0
 42 58  1  0
 43 44  1  0
 43 46  1  0
 43105  1  1
 44 45  1  0
 45106  1  0
 45107  1  0
 45108  1  0
 46 47  1  0
 46109  1  0
 46110  1  0
 47 48  1  0
 47 50  1  0
 47111  1  1
 48 49  1  0
 49112  1  0
 49113  1  0
 49114  1  0
 50 51  1  6
 50 55  1  0
 51 52  1  0
 52 53  1  0
 52 54  2  0
 53115  1  0
 53116  1  0
 53117  1  0
 55 56  1  0
 55118  1  6
 56 57  1  0
 56128  1  6
 57119  1  0
 57120  1  0
 57121  1  0
 58 59  1  0
 58122  1  1
 59 60  1  0
 60123  1  0
 60124  1  0
 60125  1  0
 61 62  1  0
 61126  1  6
 62127  1  0
M  CHG  1  56   1
M  END
>  <i_m_ct_stereo_status>  (111) 
1

>  <s_m_source_file>  (111) 
/var/tmp/pbs.5075288.sched01/tmpqqnbnjfs/192vg5g1vka.sdf

>  <i_m_source_file_index>  (111) 
17

>  <i_lp_mmshare_version>  (111) 
48012

>  <i_f3d_flags>  (111) 
0

>  <s_epik_input>  (111) 
W0NAXTEyM1tDQEBIXTRbQ0BASF01W0NIMl1bQ0gyXVtDQEBdKE9bQ0gzXSkoW0NASF0yW09IXSlbQ0BdNihbT0hdKVtDQEBdKFtPSF0pKFtDSDJdW0NAQF0oQyg9W0NIMl0pW0NIM10pKE9bQ0gzXSlbQ0BASF00W09IXSlbQ0BASF0oT1tDSDNdKVtDSDJdW0NAXTYoT1tDSDNdKVtDQEhdN1tDQEBIXShbQ0gyXTEpW0NAQEhdKE43W0NIM10pW0NAXTgoT0MoPU8pW0NIM10pW0NAXTkoW0NAQEhdKE9bQ0gzXSlbQ0gyXVtDQEhdOE9bQ0gzXSlbQ0BIXTFbQ0BIXShbQ0gyXU9DMT1PKVtDQEhdKFtDQEhdM1tTK101W08tXSlbQ0BASF05T1tDSDNd

>  <s_epik_cmdline>  (111) 
J2VwaWtfcHl0aG9uJywgJy1waHQnLCAnMi4wJywgJy1waCcsICc3LjAnLCAnLXRuJywgJzgnLCAnLW1hJywgJzIwMCcsICctaW1hZScsICc8aW5maWxlLm1hZT4nLCAnLW9tYWUnLCAnPG91dGZpbGUubWFlPic=

>  <r_epik_Ionization_Penalty>  (111) 
0.0353856

>  <r_epik_Ionization_Penalty_Charging>  (111) 
0.0353702

>  <r_epik_Ionization_Penalty_Neutral>  (111) 
1.53385e-05

>  <r_epik_State_Penalty>  (111) 
0.0294836

>  <r_epik_Charging_Adjusted_Penalty>  (111) 
0.0648538

>  <i_epik_Tot_Q>  (111) 
1

>  <i_epik_Tot_abs_Q>  (111) 
3

>  <s_epik_Chemistry_Notes>  (111) 
This compound has an ester and may undergo hydrolysis at high or low pH.

>  <s_lp_Force_Field>  (111) 
OPLS3e

>  <r_lp_Energy>  (111) 
302.926

>  <b_lp_Chiralities_Consistent>  (111) 
1

>  <s_lp_Variant>  (111) 
78:0-2

>  <s_i_glide_gridfile>  (111) 
pfpi4k_grid

>  <i_i_glide_lignum>  (111) 
17

>  <i_i_glide_rotatable_bonds>  (111) 
14

>  <r_i_docking_score>  (111) 
-2.14495

>  <r_i_glide_ligand_efficiency>  (111) 
-0.034596

>  <r_i_glide_ligand_efficiency_sa>  (111) 
-0.136927

>  <r_i_glide_ligand_efficiency_ln>  (111) 
-0.418353

>  <r_i_glide_gscore>  (111) 
-2.14495

>  <r_i_glide_lipo>  (111) 
-0.252062

>  <r_i_glide_hbond>  (111) 
0

>  <r_i_glide_metal>  (111) 
-0

>  <r_i_glide_rewards>  (111) 
-0.602083

>  <r_i_glide_evdw>  (111) 
-15.0723

>  <r_i_glide_ecoul>  (111) 
-5.90836

>  <r_i_glide_erotb>  (111) 
0.0547842

>  <r_i_glide_esite>  (111) 
-0.0133501

>  <r_i_glide_emodel>  (111) 
-12.1824

>  <r_i_glide_energy>  (111) 
-20.9806

>  <r_i_glide_einternal>  (111) 
23.3475

>  <r_i_glide_intrahb_reward>  (111) 
-0.5

>  <i_i_glide_confnum>  (111) 
4

>  <i_i_glide_posenum>  (111) 
23

>  <r_i_glide_eff_state_penalty>  (111) 
0

>  <ligand_id>  (111) 
78

>  <original_smiles>  (111) 
C=C(C)C1(OC)CC2(O)C(OC)CC3(OC)C4C5CC67C(C(CCC(OC)(C6O)C23O)[S+]([O-])C7C2C3COC(=O)C3C3(C(OC)CC(OC)C3(OC(C)=O)C5N4C)C2OC)C1O

>  <smiles>  (111) 
[H]OC1([H])C(OC([H])([H])[H])(C(=C([H])[H])C([H])([H])[H])C([H])([H])C2(O[H])C([H])(OC([H])([H])[H])C([H])([H])C3(OC([H])([H])[H])C2(O[H])C2(OC([H])([H])[H])C([H])([H])C([H])([H])C4([H])S(=O)C5([H])C6([H])C([H])(OC([H])([H])[H])C7(C([H])(OC([H])([H])[H])C([H])([H])C([H])(OC([H])([H])[H])C7(OC(=O)C([H])([H])[H])C7([H])C([H])(C([H])([H])C5(C2([H])O[H])C14[H])C3([H])[N+]7([H])C([H])([H])[H])C1([H])C(=O)OC([H])([H])C16[H]

$$$$
78:1:1
     RDKit          3D

128137  0  0  1  0  0  0  0  0999 V2000
   -2.5437    3.2562   10.2716 C   0  0  0  0  0  0  0  0  0  0  0  0
   -2.1893    3.9263    9.1577 C   0  0  0  0  0  0  0  0  0  0  0  0
   -2.8027    5.2938    8.9598 C   0  0  0  0  0  0  0  0  0  0  0  0
   -1.2189    3.4650    8.0313 C   0  0  1  0  0  0  0  0  0  0  0  0
   -1.7426    3.8672    6.7444 O   0  0  0  0  0  0  0  0  0  0  0  0
   -2.9087    3.2121    6.2202 C   0  0  0  0  0  0  0  0  0  0  0  0
    0.0951    4.3712    8.1648 C   0  0  0  0  0  0  0  0  0  0  0  0
    1.4218    4.0371    7.3671 C   0  0  1  0  0  0  0  0  0  0  0  0
    0.9787    3.3879    6.2115 O   0  0  0  0  0  0  0  0  0  0  0  0
    1.9963    5.2507    6.5688 C   0  0  1  0  0  0  0  0  0  0  0  0
    2.0460    6.4149    7.3934 O   0  0  0  0  0  0  0  0  0  0  0  0
    2.3095    7.6233    6.6924 C   0  0  0  0  0  0  0  0  0  0  0  0
    3.4102    4.7956    6.1496 C   0  0  0  0  0  0  0  0  0  0  0  0
    3.7332    3.4309    6.8486 C   0  0  2  0  0  0  0  0  0  0  0  0
    5.0495    3.5695    7.4148 O   0  0  0  0  0  0  0  0  0  0  0  0
    6.1762    3.9110    6.5988 C   0  0  0  0  0  0  0  0  0  0  0  0
    3.7987    2.0422    5.9658 C   0  0  1  0  0  0  0  0  0  0  0  0
    2.8855    0.8288    6.0084 C   0  0  1  0  0  0  0  0  0  0  0  0
    1.5148    0.6465    6.5128 C   0  0  0  0  0  0  0  0  0  0  0  0
    1.3615    0.4361    8.0175 C   0  0  2  0  0  0  0  0  0  0  0  0
    0.2160    1.2648    8.6898 C   0  0  2  0  0  0  0  0  0  0  0  0
    0.0403    0.6736   10.0966 C   0  0  2  0  0  0  0  0  0  0  0  0
    1.0565    1.3051   11.1233 C   0  0  0  0  0  0  0  0  0  0  0  0
    2.0447    2.4424   10.6279 C   0  0  0  0  0  0  0  0  0  0  0  0
    2.8964    2.2522    9.2776 C   0  0  1  0  0  0  0  0  0  0  0  0
    4.2593    2.3610    9.8107 O   0  0  0  0  0  0  0  0  0  0  0  0
    5.4182    1.5644    9.4459 C   0  0  0  0  0  0  0  0  0  0  0  0
    2.7160    0.7799    8.7927 C   0  0  1  0  0  0  0  0  0  0  0  0
    3.0426   -0.1645    9.8048 O   0  0  0  0  0  0  0  0  0  0  0  0
    2.7402    3.4258    8.1073 C   0  0  2  0  0  0  0  0  0  0  0  0
    3.0867    4.5372    8.9327 O   0  0  0  0  0  0  0  0  0  0  0  0
    0.2690   -1.1862    9.8585 S   0  0  0  0  0  0  0  0  0  0  0  0
    1.2597   -1.7768   10.8321 O   0  0  0  0  0  0  0  0  0  0  0  0
    0.8904   -1.0339    8.1163 C   0  0  2  0  0  0  0  0  0  0  0  0
    1.6135   -2.3173    7.4937 C   0  0  1  0  0  0  0  0  0  0  0  0
    0.9020   -3.0970    6.3528 C   0  0  1  0  0  0  0  0  0  0  0  0
   -0.6134   -2.9102    6.1476 C   0  0  0  0  0  0  0  0  0  0  0  0
   -0.6931   -1.9720    5.0915 O   0  0  0  0  0  0  0  0  0  0  0  0
    0.4456   -1.8892    4.3493 C   0  0  0  0  0  0  0  0  0  0  0  0
    0.5751   -1.2038    3.3527 O   0  0  0  0  0  0  0  0  0  0  0  0
    1.5558   -2.7573    4.9906 C   0  0  1  0  0  0  0  0  0  0  0  0
    3.0367   -2.2369    5.1962 C   0  0  1  0  0  0  0  0  0  0  0  0
    4.0694   -3.3239    4.6566 C   0  0  1  0  0  0  0  0  0  0  0  0
    3.6010   -3.9136    3.4295 O   0  0  0  0  0  0  0  0  0  0  0  0
    4.2920   -5.0887    3.0259 C   0  0  0  0  0  0  0  0  0  0  0  0
    5.4163   -2.6331    4.3772 C   0  0  0  0  0  0  0  0  0  0  0  0
    5.1413   -1.1291    4.5645 C   0  0  1  0  0  0  0  0  0  0  0  0
    5.9166   -0.2924    3.7016 O   0  0  0  0  0  0  0  0  0  0  0  0
    6.8357    0.5633    4.4011 C   0  0  0  0  0  0  0  0  0  0  0  0
    3.6028   -0.9661    4.3126 C   0  0  1  0  0  0  0  0  0  0  0  0
    3.3039   -1.3771    2.9585 O   0  0  0  0  0  0  0  0  0  0  0  0
    3.5587   -0.6518    1.8215 C   0  0  0  0  0  0  0  0  0  0  0  0
    3.3210   -1.4976    0.5630 C   0  0  0  0  0  0  0  0  0  0  0  0
    3.9223    0.4992    1.7580 O   0  0  0  0  0  0  0  0  0  0  0  0
    3.0399    0.5270    4.5772 C   0  0  2  0  0  0  0  0  0  0  0  0
    3.8030    1.8411    4.4602 N   0  0  1  0  0  0  0  0  0  0  0  0
    3.1821    2.8570    3.5639 C   0  0  0  0  0  0  0  0  0  0  0  0
    3.0359   -2.2992    6.8208 C   0  0  1  0  0  0  0  0  0  0  0  0
    4.1158   -1.7610    7.6121 O   0  0  0  0  0  0  0  0  0  0  0  0
    5.3537   -2.5194    7.6640 C   0  0  0  0  0  0  0  0  0  0  0  0
   -0.9841    1.8786    7.9095 C   0  0  1  0  0  0  0  0  0  0  0  0
   -2.1482    1.1077    8.0405 O   0  0  0  0  0  0  0  0  0  0  0  0
   -3.2267    3.6918   10.9952 H   0  0  0  0  0  0  0  0  0  0  0  0
   -2.1847    2.2900   10.5260 H   0  0  0  0  0  0  0  0  0  0  0  0
   -3.3541    5.3607    8.0295 H   0  0  0  0  0  0  0  0  0  0  0  0
   -2.0704    6.1038    9.0364 H   0  0  0  0  0  0  0  0  0  0  0  0
   -3.5450    5.4297    9.7342 H   0  0  0  0  0  0  0  0  0  0  0  0
   -3.2606    3.7373    5.3358 H   0  0  0  0  0  0  0  0  0  0  0  0
   -3.7339    3.1392    6.9342 H   0  0  0  0  0  0  0  0  0  0  0  0
   -2.6818    2.2139    5.8504 H   0  0  0  0  0  0  0  0  0  0  0  0
   -0.2310    5.3678    7.8654 H   0  0  0  0  0  0  0  0  0  0  0  0
    0.3185    4.4968    9.2252 H   0  0  0  0  0  0  0  0  0  0  0  0
    0.3332    3.9424    5.8120 H   0  0  0  0  0  0  0  0  0  0  0  0
    1.4037    5.5044    5.6885 H   0  0  0  0  0  0  0  0  0  0  0  0
    2.3226    8.4474    7.4020 H   0  0  0  0  0  0  0  0  0  0  0  0
    1.5435    7.8413    5.9488 H   0  0  0  0  0  0  0  0  0  0  0  0
    3.2783    7.6082    6.1957 H   0  0  0  0  0  0  0  0  0  0  0  0
    3.5807    4.8244    5.0798 H   0  0  0  0  0  0  0  0  0  0  0  0
    4.0975    5.5399    6.5466 H   0  0  0  0  0  0  0  0  0  0  0  0
    7.0869    3.7003    7.1646 H   0  0  0  0  0  0  0  0  0  0  0  0
    6.2015    4.9702    6.3263 H   0  0  0  0  0  0  0  0  0  0  0  0
    6.2361    3.3182    5.7008 H   0  0  0  0  0  0  0  0  0  0  0  0
    4.7511    1.6032    6.2605 H   0  0  0  0  0  0  0  0  0  0  0  0
    3.5427    0.0712    6.3702 H   0  0  0  0  0  0  0  0  0  0  0  0
    0.7925    1.2112    5.9497 H   0  0  0  0  0  0  0  0  0  0  0  0
    1.2389   -0.2773    6.0552 H   0  0  0  0  0  0  0  0  0  0  0  0
    0.6174    2.2092    8.8697 H   0  0  0  0  0  0  0  0  0  0  0  0
   -0.9608    0.7767   10.4935 H   0  0  0  0  0  0  0  0  0  0  0  0
    0.4539    1.7436   11.9204 H   0  0  0  0  0  0  0  0  0  0  0  0
    1.6026    0.5372   11.6681 H   0  0  0  0  0  0  0  0  0  0  0  0
    1.4804    3.3623   10.5758 H   0  0  0  0  0  0  0  0  0  0  0  0
    2.7261    2.6482   11.4453 H   0  0  0  0  0  0  0  0  0  0  0  0
    6.2377    1.8009   10.1295 H   0  0  0  0  0  0  0  0  0  0  0  0
    5.7870    1.7047    8.4282 H   0  0  0  0  0  0  0  0  0  0  0  0
    5.2465    0.4970    9.5455 H   0  0  0  0  0  0  0  0  0  0  0  0
    3.6050    0.5974    8.2383 H   0  0  0  0  0  0  0  0  0  0  0  0
    2.3827   -0.1701   10.4579 H   0  0  0  0  0  0  0  0  0  0  0  0
    3.0454    5.3247    8.4281 H   0  0  0  0  0  0  0  0  0  0  0  0
   -0.0580   -0.9766    7.6049 H   0  0  0  0  0  0  0  0  0  0  0  0
    1.6893   -3.0005    8.3362 H   0  0  0  0  0  0  0  0  0  0  0  0
    1.0572   -4.1615    6.5423 H   0  0  0  0  0  0  0  0  0  0  0  0
   -1.0428   -3.8568    5.8139 H   0  0  0  0  0  0  0  0  0  0  0  0
   -1.1676   -2.6105    7.0401 H   0  0  0  0  0  0  0  0  0  0  0  0
    1.5246   -3.6545    4.3880 H   0  0  0  0  0  0  0  0  0  0  0  0
    4.1676   -4.1551    5.3490 H   0  0  0  0  0  0  0  0  0  0  0  0
    3.9376   -5.3725    2.0374 H   0  0  0  0  0  0  0  0  0  0  0  0
    4.0775   -5.9036    3.7158 H   0  0  0  0  0  0  0  0  0  0  0  0
    5.3753   -4.9655    2.9601 H   0  0  0  0  0  0  0  0  0  0  0  0
    6.1928   -3.0271    5.0248 H   0  0  0  0  0  0  0  0  0  0  0  0
    5.7230   -2.8045    3.3344 H   0  0  0  0  0  0  0  0  0  0  0  0
    5.3267   -0.8245    5.5928 H   0  0  0  0  0  0  0  0  0  0  0  0
    7.4285    1.0984    3.7212 H   0  0  0  0  0  0  0  0  0  0  0  0
    7.5297    0.1047    5.1226 H   0  0  0  0  0  0  0  0  0  0  0  0
    6.2872    1.3163    4.9540 H   0  0  0  0  0  0  0  0  0  0  0  0
    2.2640   -1.7760    0.4756 H   0  0  0  0  0  0  0  0  0  0  0  0
    3.9654   -2.3779    0.6208 H   0  0  0  0  0  0  0  0  0  0  0  0
    3.6086   -0.8883   -0.2949 H   0  0  0  0  0  0  0  0  0  0  0  0
    2.0799    0.6887    4.0635 H   0  0  0  0  0  0  0  0  0  0  0  0
    2.2665    3.2492    3.9908 H   0  0  0  0  0  0  0  0  0  0  0  0
    2.9693    2.4483    2.5892 H   0  0  0  0  0  0  0  0  0  0  0  0
    3.8626    3.6710    3.3942 H   0  0  0  0  0  0  0  0  0  0  0  0
    3.2295   -3.3683    6.9828 H   0  0  0  0  0  0  0  0  0  0  0  0
    6.0310   -2.0450    8.4176 H   0  0  0  0  0  0  0  0  0  0  0  0
    5.8529   -2.5353    6.8030 H   0  0  0  0  0  0  0  0  0  0  0  0
    5.1658   -3.5622    8.0069 H   0  0  0  0  0  0  0  0  0  0  0  0
   -0.8178    1.6833    6.8624 H   0  0  0  0  0  0  0  0  0  0  0  0
   -2.8735    1.7046    7.9653 H   0  0  0  0  0  0  0  0  0  0  0  0
    4.7623    1.5938    4.1219 H   0  0  0  0  0  0  0  0  0  0  0  0
  1  2  2  0
  1 63  1  0
  1 64  1  0
  2  3  1  0
  2  4  1  0
  3 65  1  0
  3 66  1  0
  3 67  1  0
  4 61  1  0
  4  5  1  6
  4  7  1  0
  5  6  1  0
  6 68  1  0
  6 69  1  0
  6 70  1  0
  7  8  1  0
  7 71  1  0
  7 72  1  0
  8 30  1  0
  8  9  1  6
  8 10  1  0
  9 73  1  0
 10 11  1  0
 10 13  1  0
 10 74  1  6
 11 12  1  0
 12 75  1  0
 12 76  1  0
 12 77  1  0
 13 14  1  0
 13 78  1  0
 13 79  1  0
 14 30  1  0
 14 15  1  1
 14 17  1  0
 15 16  1  0
 16 80  1  0
 16 81  1  0
 16 82  1  0
 17 56  1  0
 17 18  1  0
 17 83  1  1
 18 55  1  0
 18 19  1  0
 18 84  1  1
 20 19  1  6
 19 85  1  0
 19 86  1  0
 20 28  1  0
 20 34  1  0
 20 21  1  0
 21 22  1  0
 21 61  1  0
 21 87  1  1
 22 23  1  0
 32 22  1  1
 22 88  1  1
 23 24  1  0
 23 89  1  0
 23 90  1  0
 24 25  1  0
 24 91  1  0
 24 92  1  0
 25 26  1  1
 25 28  1  0
 25 30  1  0
 26 27  1  0
 27 93  1  0
 27 94  1  0
 27 95  1  0
 28 29  1  0
 28 96  1  6
 29 97  1  0
 30 31  1  1
 31 98  1  0
 32 33  2  0
 32 34  1  0
 34 35  1  0
 34 99  1  6
 35 58  1  0
 35 36  1  0
 35100  1  1
 36 41  1  0
 36 37  1  0
 36101  1  1
 37 38  1  0
 37102  1  0
 37103  1  0
 38 39  1  0
 39 40  2  0
 39 41  1  0
 41 42  1  0
 41104  1  6
 42 50  1  1
 42 43  1  0
 42 58  1  0
 43 44  1  0
 43 46  1  0
 43105  1  1
 44 45  1  0
 45106  1  0
 45107  1  0
 45108  1  0
 46 47  1  0
 46109  1  0
 46110  1  0
 47 48  1  0
 47 50  1  0
 47111  1  1
 48 49  1  0
 49112  1  0
 49113  1  0
 49114  1  0
 50 51  1  6
 50 55  1  0
 51 52  1  0
 52 53  1  0
 52 54  2  0
 53115  1  0
 53116  1  0
 53117  1  0
 55 56  1  0
 55118  1  6
 56 57  1  0
 56128  1  6
 57119  1  0
 57120  1  0
 57121  1  0
 58 59  1  0
 58122  1  6
 59 60  1  0
 60123  1  0
 60124  1  0
 60125  1  0
 61 62  1  0
 61126  1  6
 62127  1  0
M  CHG  1  56   1
M  END
>  <i_m_ct_stereo_status>  (112) 
1

>  <s_m_source_file>  (112) 
/var/tmp/pbs.5075288.sched01/tmpqqnbnjfs/192vg5g1vka.sdf

>  <i_m_source_file_index>  (112) 
17

>  <i_lp_mmshare_version>  (112) 
48012

>  <i_f3d_flags>  (112) 
0

>  <s_epik_input>  (112) 
W0NAXTEyM1tDQEBIXTRbQ0BASF01W0NIMl1bQ0gyXVtDQEBdKE9bQ0gzXSkoW0NASF0yW09IXSlbQ0BdNihbT0hdKVtDQEBdKFtPSF0pKFtDSDJdW0NAQF0oQyg9W0NIMl0pW0NIM10pKE9bQ0gzXSlbQ0BASF00W09IXSlbQ0BASF0oT1tDSDNdKVtDSDJdW0NAXTYoT1tDSDNdKVtDQEhdN1tDQEBIXShbQ0gyXTEpW0NAQEhdKE43W0NIM10pW0NAXTgoT0MoPU8pW0NIM10pW0NAXTkoW0NAQEhdKE9bQ0gzXSlbQ0gyXVtDQEhdOE9bQ0gzXSlbQ0BIXTFbQ0BIXShbQ0gyXU9DMT1PKVtDQEhdKFtDQEhdM1tTK101W08tXSlbQ0BASF05T1tDSDNd

>  <s_epik_cmdline>  (112) 
J2VwaWtfcHl0aG9uJywgJy1waHQnLCAnMi4wJywgJy1waCcsICc3LjAnLCAnLXRuJywgJzgnLCAnLW1hJywgJzIwMCcsICctaW1hZScsICc8aW5maWxlLm1hZT4nLCAnLW9tYWUnLCAnPG91dGZpbGUubWFlPic=

>  <r_epik_Ionization_Penalty>  (112) 
0.0353856

>  <r_epik_Ionization_Penalty_Charging>  (112) 
0.0353702

>  <r_epik_Ionization_Penalty_Neutral>  (112) 
1.53385e-05

>  <r_epik_State_Penalty>  (112) 
0.0294836

>  <r_epik_Charging_Adjusted_Penalty>  (112) 
0.0648538

>  <i_epik_Tot_Q>  (112) 
1

>  <i_epik_Tot_abs_Q>  (112) 
3

>  <s_epik_Chemistry_Notes>  (112) 
This compound has an ester and may undergo hydrolysis at high or low pH.

>  <s_lp_Force_Field>  (112) 
OPLS3e

>  <r_lp_Energy>  (112) 
302.926

>  <b_lp_Chiralities_Consistent>  (112) 
1

>  <s_lp_Variant>  (112) 
78:0-2

>  <s_i_glide_gridfile>  (112) 
pfpi4k_grid

>  <i_i_glide_lignum>  (112) 
17

>  <i_i_glide_rotatable_bonds>  (112) 
14

>  <r_i_docking_score>  (112) 
-0.165033

>  <r_i_glide_ligand_efficiency>  (112) 
-0.00266182

>  <r_i_glide_ligand_efficiency_sa>  (112) 
-0.0105352

>  <r_i_glide_ligand_efficiency_ln>  (112) 
-0.0321882

>  <r_i_glide_gscore>  (112) 
-0.165033

>  <r_i_glide_lipo>  (112) 
-0.430388

>  <r_i_glide_hbond>  (112) 
0

>  <r_i_glide_metal>  (112) 
-0

>  <r_i_glide_rewards>  (112) 
-0.0268113

>  <r_i_glide_evdw>  (112) 
-13.5819

>  <r_i_glide_ecoul>  (112) 
-3.33873

>  <r_i_glide_erotb>  (112) 
0.0547842

>  <r_i_glide_esite>  (112) 
-0.0673953

>  <r_i_glide_emodel>  (112) 
-0.63914

>  <r_i_glide_energy>  (112) 
-16.9206

>  <r_i_glide_einternal>  (112) 
16.864

>  <r_i_glide_intrahb_reward>  (112) 
-0

>  <i_i_glide_confnum>  (112) 
2

>  <i_i_glide_posenum>  (112) 
40

>  <r_i_glide_eff_state_penalty>  (112) 
0

>  <ligand_id>  (112) 
78

>  <original_smiles>  (112) 
C=C(C)C1(OC)CC2(O)C(OC)CC3(OC)C4C5CC67C(C(CCC(OC)(C6O)C23O)[S+]([O-])C7C2C3COC(=O)C3C3(C(OC)CC(OC)C3(OC(C)=O)C5N4C)C2OC)C1O

>  <smiles>  (112) 
[H]OC1([H])C(OC([H])([H])[H])(C(=C([H])[H])C([H])([H])[H])C([H])([H])C2(O[H])C([H])(OC([H])([H])[H])C([H])([H])C3(OC([H])([H])[H])C2(O[H])C2(OC([H])([H])[H])C([H])([H])C([H])([H])C4([H])S(=O)C5([H])C6([H])C([H])(OC([H])([H])[H])C7(C([H])(OC([H])([H])[H])C([H])([H])C([H])(OC([H])([H])[H])C7(OC(=O)C([H])([H])[H])C7([H])C([H])(C([H])([H])C5(C2([H])O[H])C14[H])C3([H])[N+]7([H])C([H])([H])[H])C1([H])C(=O)OC([H])([H])C16[H]

$$$$
78:3:0
     RDKit          3D

127136  0  0  1  0  0  0  0  0999 V2000
    2.2019   -9.2080    1.6604 C   0  0  0  0  0  0  0  0  0  0  0  0
    1.4215   -8.9398    2.7331 C   0  0  0  0  0  0  0  0  0  0  0  0
    0.0355   -9.5797    2.8083 C   0  0  0  0  0  0  0  0  0  0  0  0
    1.8984   -8.0164    3.8828 C   0  0  1  0  0  0  0  0  0  0  0  0
    1.0307   -8.1370    5.0335 O   0  0  0  0  0  0  0  0  0  0  0  0
    0.8713   -9.3797    5.7302 C   0  0  0  0  0  0  0  0  0  0  0  0
    3.3895   -8.4318    4.3661 C   0  0  0  0  0  0  0  0  0  0  0  0
    4.2960   -7.4615    5.2673 C   0  0  1  0  0  0  0  0  0  0  0  0
    3.3614   -6.6857    5.9466 O   0  0  0  0  0  0  0  0  0  0  0  0
    4.8562   -8.0779    6.6028 C   0  0  1  0  0  0  0  0  0  0  0  0
    5.4736   -9.3517    6.3870 O   0  0  0  0  0  0  0  0  0  0  0  0
    4.7386  -10.4929    6.8166 C   0  0  0  0  0  0  0  0  0  0  0  0
    5.9151   -7.0528    7.0810 C   0  0  0  0  0  0  0  0  0  0  0  0
    6.1383   -5.9427    5.9741 C   0  0  2  0  0  0  0  0  0  0  0  0
    7.5716   -5.7750    5.8175 O   0  0  0  0  0  0  0  0  0  0  0  0
    8.3523   -5.3564    6.9404 C   0  0  0  0  0  0  0  0  0  0  0  0
    5.5839   -4.4274    6.2313 C   0  0  1  0  0  0  0  0  0  0  0  0
    4.5064   -3.6475    5.5213 C   0  0  1  0  0  0  0  0  0  0  0  0
    3.3403   -4.1268    4.7422 C   0  0  0  0  0  0  0  0  0  0  0  0
    3.6315   -4.4846    3.2816 C   0  0  2  0  0  0  0  0  0  0  0  0
    2.9403   -5.7990    2.7840 C   0  0  2  0  0  0  0  0  0  0  0  0
    3.0385   -5.8390    1.2622 C   0  0  2  0  0  0  0  0  0  0  0  0
    4.4224   -6.3900    0.7752 C   0  0  0  0  0  0  0  0  0  0  0  0
    5.4932   -6.8885    1.8364 C   0  0  0  0  0  0  0  0  0  0  0  0
    5.8492   -6.0243    3.1611 C   0  0  1  0  0  0  0  0  0  0  0  0
    7.2605   -5.6651    3.1164 O   0  0  0  0  0  0  0  0  0  0  0  0
    8.2747   -6.5214    2.5770 C   0  0  0  0  0  0  0  0  0  0  0  0
    5.2049   -4.6033    2.9913 C   0  0  1  0  0  0  0  0  0  0  0  0
    5.6072   -4.0356    1.7530 O   0  0  0  0  0  0  0  0  0  0  0  0
    5.6107   -6.7129    4.6534 C   0  0  2  0  0  0  0  0  0  0  0  0
    6.4349   -7.8643    4.4505 O   0  0  0  0  0  0  0  0  0  0  0  0
    2.6737   -4.0568    0.7665 S   0  0  0  0  0  0  0  0  0  0  0  0
    3.7597   -3.4812   -0.1480 O   0  0  0  0  0  0  0  0  0  0  0  0
    2.8507   -3.3934    2.5066 C   0  0  2  0  0  0  0  0  0  0  0  0
    3.0058   -1.7988    2.6905 C   0  0  1  0  0  0  0  0  0  0  0  0
    1.8068   -0.9796    3.2846 C   0  0  1  0  0  0  0  0  0  0  0  0
    0.4028   -1.5754    3.2928 C   0  0  0  0  0  0  0  0  0  0  0  0
    0.2380   -2.0892    4.5985 O   0  0  0  0  0  0  0  0  0  0  0  0
    1.0810   -1.5348    5.4954 C   0  0  0  0  0  0  0  0  0  0  0  0
    1.0247   -1.7468    6.6996 O   0  0  0  0  0  0  0  0  0  0  0  0
    2.0787   -0.6238    4.7654 C   0  0  1  0  0  0  0  0  0  0  0  0
    3.6331   -0.6476    5.0469 C   0  0  1  0  0  0  0  0  0  0  0  0
    4.1627    0.8291    5.2448 C   0  0  1  0  0  0  0  0  0  0  0  0
    3.2812    1.5804    6.0837 O   0  0  0  0  0  0  0  0  0  0  0  0
    3.4647    2.9901    6.0631 C   0  0  0  0  0  0  0  0  0  0  0  0
    5.5507    0.7195    5.9192 C   0  0  0  0  0  0  0  0  0  0  0  0
    5.6788   -0.7116    6.4308 C   0  0  1  0  0  0  0  0  0  0  0  0
    6.3992   -0.7990    7.6557 O   0  0  0  0  0  0  0  0  0  0  0  0
    7.8023   -0.6447    7.5393 C   0  0  0  0  0  0  0  0  0  0  0  0
    4.2368   -1.2951    6.4552 C   0  0  1  0  0  0  0  0  0  0  0  0
    3.4464   -0.6367    7.4775 O   0  0  0  0  0  0  0  0  0  0  0  0
    3.5906   -0.7349    8.8156 C   0  0  0  0  0  0  0  0  0  0  0  0
    2.5232    0.0627    9.5421 C   0  0  0  0  0  0  0  0  0  0  0  0
    4.4335   -1.3692    9.4413 O   0  0  0  0  0  0  0  0  0  0  0  0
    4.1733   -2.8695    6.7228 C   0  0  2  0  0  0  0  0  0  0  0  0
    5.2044   -3.6795    7.4571 N   0  0  0  0  0  0  0  0  0  0  0  0
    4.6032   -4.4360    8.5376 C   0  0  0  0  0  0  0  0  0  0  0  0
    4.1135   -1.1065    3.5673 C   0  0  1  0  0  0  0  0  0  0  0  0
    5.4721   -1.4541    3.3350 O   0  0  0  0  0  0  0  0  0  0  0  0
    5.9444   -1.2590    2.0001 C   0  0  0  0  0  0  0  0  0  0  0  0
    1.6966   -6.4777    3.4660 C   0  0  1  0  0  0  0  0  0  0  0  0
    0.5518   -6.2633    2.6521 O   0  0  0  0  0  0  0  0  0  0  0  0
    1.8400   -9.8525    0.8799 H   0  0  0  0  0  0  0  0  0  0  0  0
    3.1978   -8.8201    1.5391 H   0  0  0  0  0  0  0  0  0  0  0  0
   -0.7064   -8.8561    3.1555 H   0  0  0  0  0  0  0  0  0  0  0  0
    0.0239  -10.4329    3.4695 H   0  0  0  0  0  0  0  0  0  0  0  0
   -0.3057   -9.8984    1.8053 H   0  0  0  0  0  0  0  0  0  0  0  0
   -0.0687   -9.3022    6.2873 H   0  0  0  0  0  0  0  0  0  0  0  0
    1.6505   -9.4938    6.5060 H   0  0  0  0  0  0  0  0  0  0  0  0
    0.8113  -10.2399    5.0969 H   0  0  0  0  0  0  0  0  0  0  0  0
    3.2770   -9.4007    4.8606 H   0  0  0  0  0  0  0  0  0  0  0  0
    4.0036   -8.7086    3.5118 H   0  0  0  0  0  0  0  0  0  0  0  0
    2.7192   -7.2669    6.3355 H   0  0  0  0  0  0  0  0  0  0  0  0
    4.1077   -8.2052    7.3902 H   0  0  0  0  0  0  0  0  0  0  0  0
    5.3077  -11.3930    6.5706 H   0  0  0  0  0  0  0  0  0  0  0  0
    3.7625  -10.5943    6.3428 H   0  0  0  0  0  0  0  0  0  0  0  0
    4.5896  -10.4608    7.8955 H   0  0  0  0  0  0  0  0  0  0  0  0
    5.6777   -6.6576    8.0575 H   0  0  0  0  0  0  0  0  0  0  0  0
    6.8379   -7.6101    7.2364 H   0  0  0  0  0  0  0  0  0  0  0  0
    9.3887   -5.2491    6.6061 H   0  0  0  0  0  0  0  0  0  0  0  0
    8.3585   -6.0820    7.7474 H   0  0  0  0  0  0  0  0  0  0  0  0
    8.0490   -4.3938    7.3460 H   0  0  0  0  0  0  0  0  0  0  0  0
    6.4447   -3.8506    5.9007 H   0  0  0  0  0  0  0  0  0  0  0  0
    5.0409   -2.9304    4.9731 H   0  0  0  0  0  0  0  0  0  0  0  0
    2.6437   -4.7028    5.3245 H   0  0  0  0  0  0  0  0  0  0  0  0
    2.7028   -3.2671    4.7326 H   0  0  0  0  0  0  0  0  0  0  0  0
    3.5942   -6.5473    3.0788 H   0  0  0  0  0  0  0  0  0  0  0  0
    2.2730   -6.4801    0.8189 H   0  0  0  0  0  0  0  0  0  0  0  0
    4.2336   -7.2370    0.1189 H   0  0  0  0  0  0  0  0  0  0  0  0
    4.8815   -5.6929    0.0805 H   0  0  0  0  0  0  0  0  0  0  0  0
    5.2788   -7.9229    2.1202 H   0  0  0  0  0  0  0  0  0  0  0  0
    6.3548   -7.0085    1.1886 H   0  0  0  0  0  0  0  0  0  0  0  0
    9.2518   -6.3413    3.0384 H   0  0  0  0  0  0  0  0  0  0  0  0
    8.4080   -6.3217    1.5168 H   0  0  0  0  0  0  0  0  0  0  0  0
    8.0838   -7.5842    2.6749 H   0  0  0  0  0  0  0  0  0  0  0  0
    5.8313   -3.9456    3.5642 H   0  0  0  0  0  0  0  0  0  0  0  0
    6.5543   -4.0713    1.7334 H   0  0  0  0  0  0  0  0  0  0  0  0
    6.4133   -8.3699    5.2641 H   0  0  0  0  0  0  0  0  0  0  0  0
    1.8332   -3.5866    2.8314 H   0  0  0  0  0  0  0  0  0  0  0  0
    3.1125   -1.4401    1.6648 H   0  0  0  0  0  0  0  0  0  0  0  0
    1.7498   -0.0466    2.7188 H   0  0  0  0  0  0  0  0  0  0  0  0
   -0.3283   -0.7769    3.1467 H   0  0  0  0  0  0  0  0  0  0  0  0
    0.2391   -2.3189    2.5174 H   0  0  0  0  0  0  0  0  0  0  0  0
    1.6707    0.3735    4.9457 H   0  0  0  0  0  0  0  0  0  0  0  0
    4.2402    1.3891    4.3130 H   0  0  0  0  0  0  0  0  0  0  0  0
    2.7731    3.4438    6.7722 H   0  0  0  0  0  0  0  0  0  0  0  0
    3.2483    3.3978    5.0783 H   0  0  0  0  0  0  0  0  0  0  0  0
    4.4721    3.2902    6.3534 H   0  0  0  0  0  0  0  0  0  0  0  0
    6.3514    0.9504    5.2229 H   0  0  0  0  0  0  0  0  0  0  0  0
    5.6369    1.4173    6.7533 H   0  0  0  0  0  0  0  0  0  0  0  0
    6.2394   -1.2850    5.6997 H   0  0  0  0  0  0  0  0  0  0  0  0
    8.2514   -0.7335    8.5299 H   0  0  0  0  0  0  0  0  0  0  0  0
    8.0660    0.3355    7.1389 H   0  0  0  0  0  0  0  0  0  0  0  0
    8.2333   -1.4196    6.9083 H   0  0  0  0  0  0  0  0  0  0  0  0
    1.5268   -0.2699    9.2362 H   0  0  0  0  0  0  0  0  0  0  0  0
    2.6221    1.1225    9.3038 H   0  0  0  0  0  0  0  0  0  0  0  0
    2.6147   -0.0656   10.6212 H   0  0  0  0  0  0  0  0  0  0  0  0
    3.1730   -3.1499    7.0605 H   0  0  0  0  0  0  0  0  0  0  0  0
    4.0495   -3.7858    9.2120 H   0  0  0  0  0  0  0  0  0  0  0  0
    5.3802   -4.8906    9.1467 H   0  0  0  0  0  0  0  0  0  0  0  0
    3.9131   -5.2000    8.1813 H   0  0  0  0  0  0  0  0  0  0  0  0
    4.1168   -0.1574    3.0336 H   0  0  0  0  0  0  0  0  0  0  0  0
    6.9444   -1.6754    1.9297 H   0  0  0  0  0  0  0  0  0  0  0  0
    6.0215   -0.2017    1.7098 H   0  0  0  0  0  0  0  0  0  0  0  0
    5.3407   -1.8107    1.2831 H   0  0  0  0  0  0  0  0  0  0  0  0
    1.4494   -5.9442    4.3758 H   0  0  0  0  0  0  0  0  0  0  0  0
    0.5489   -6.9589    2.0095 H   0  0  0  0  0  0  0  0  0  0  0  0
  1  2  2  0
  1 63  1  0
  1 64  1  0
  2  3  1  0
  2  4  1  0
  3 65  1  0
  3 66  1  0
  3 67  1  0
  4 61  1  0
  4  5  1  1
  4  7  1  0
  5  6  1  0
  6 68  1  0
  6 69  1  0
  6 70  1  0
  7  8  1  0
  7 71  1  0
  7 72  1  0
  8 30  1  0
  8  9  1  1
  8 10  1  0
  9 73  1  0
 10 11  1  0
 10 13  1  0
 10 74  1  1
 11 12  1  0
 12 75  1  0
 12 76  1  0
 12 77  1  0
 13 14  1  0
 13 78  1  0
 13 79  1  0
 14 30  1  0
 14 15  1  6
 14 17  1  0
 15 16  1  0
 16 80  1  0
 16 81  1  0
 16 82  1  0
 17 56  1  0
 17 18  1  0
 17 83  1  6
 18 55  1  0
 18 19  1  0
 18 84  1  6
 20 19  1  1
 19 85  1  0
 19 86  1  0
 20 28  1  0
 20 34  1  0
 20 21  1  0
 21 22  1  0
 21 61  1  0
 21 87  1  1
 22 23  1  0
 32 22  1  1
 22 88  1  6
 23 24  1  0
 23 89  1  0
 23 90  1  0
 24 25  1  0
 24 91  1  0
 24 92  1  0
 25 26  1  6
 25 28  1  0
 25 30  1  0
 26 27  1  0
 27 93  1  0
 27 94  1  0
 27 95  1  0
 28 29  1  0
 28 96  1  1
 29 97  1  0
 30 31  1  6
 31 98  1  0
 32 33  2  0
 32 34  1  0
 34 35  1  0
 34 99  1  1
 35 58  1  0
 35 36  1  0
 35100  1  6
 36 41  1  0
 36 37  1  0
 36101  1  6
 37 38  1  0
 37102  1  0
 37103  1  0
 38 39  1  0
 39 40  2  0
 39 41  1  0
 41 42  1  0
 41104  1  6
 42 50  1  1
 42 43  1  0
 42 58  1  0
 43 44  1  0
 43 46  1  0
 43105  1  6
 44 45  1  0
 45106  1  0
 45107  1  0
 45108  1  0
 46 47  1  0
 46109  1  0
 46110  1  0
 47 48  1  0
 47 50  1  0
 47111  1  6
 48 49  1  0
 49112  1  0
 49113  1  0
 49114  1  0
 50 51  1  1
 50 55  1  0
 51 52  1  0
 52 53  1  0
 52 54  2  0
 53115  1  0
 53116  1  0
 53117  1  0
 55 56  1  0
 55118  1  1
 56 57  1  0
 57119  1  0
 57120  1  0
 57121  1  0
 58 59  1  0
 58122  1  6
 59 60  1  0
 60123  1  0
 60124  1  0
 60125  1  0
 61 62  1  0
 61126  1  1
 62127  1  0
M  END
>  <i_m_ct_stereo_status>  (113) 
1

>  <s_m_source_file>  (113) 
/var/tmp/pbs.5075288.sched01/tmpqqnbnjfs/192vg5g1vka.sdf

>  <i_m_source_file_index>  (113) 
19

>  <i_lp_mmshare_version>  (113) 
48012

>  <i_f3d_flags>  (113) 
0

>  <s_epik_input>  (113) 
W0NAXTEyM1tDQEBIXTRbQ0BASF01W0NIMl1bQ0gyXVtDQEBdKE9bQ0gzXSkoW0NASF0yW09IXSlbQ0BdNihbT0hdKVtDQEBdKFtPSF0pKFtDSDJdW0NAQF0oQyg9W0NIMl0pW0NIM10pKE9bQ0gzXSlbQ0BASF00W09IXSlbQ0BASF0oT1tDSDNdKVtDSDJdW0NAXTYoT1tDSDNdKVtDQEhdN1tDQEBIXShbQ0gyXTEpW0NAQEhdKE43W0NIM10pW0NAXTgoT0MoPU8pW0NIM10pW0NAXTkoW0NAQEhdKE9bQ0gzXSlbQ0gyXVtDQEhdOE9bQ0gzXSlbQ0BIXTFbQ0BIXShbQ0gyXU9DMT1PKVtDQEhdKFtDQEhdM1tTK101W08tXSlbQ0BASF05T1tDSDNd

>  <s_epik_cmdline>  (113) 
J2VwaWtfcHl0aG9uJywgJy1waHQnLCAnMi4wJywgJy1waCcsICc3LjAnLCAnLXRuJywgJzgnLCAnLW1hJywgJzIwMCcsICctaW1hZScsICc8aW5maWxlLm1hZT4nLCAnLW9tYWUnLCAnPG91dGZpbGUubWFlPic=

>  <r_epik_Ionization_Penalty>  (113) 
1.68749

>  <r_epik_Ionization_Penalty_Charging>  (113) 
0

>  <r_epik_Ionization_Penalty_Neutral>  (113) 
1.68749

>  <r_epik_State_Penalty>  (113) 
1.79243

>  <r_epik_Charging_Adjusted_Penalty>  (113) 
1.79243

>  <i_epik_Tot_Q>  (113) 
0

>  <i_epik_Tot_abs_Q>  (113) 
2

>  <s_epik_Chemistry_Notes>  (113) 
This compound has an ester and may undergo hydrolysis at high or low pH.

>  <s_lp_Force_Field>  (113) 
OPLS3e

>  <r_lp_Energy>  (113) 
304.31

>  <b_lp_Chiralities_Consistent>  (113) 
1

>  <s_lp_Variant>  (113) 
78:0-4

>  <s_i_glide_gridfile>  (113) 
pfpi4k_grid

>  <i_i_glide_lignum>  (113) 
19

>  <i_i_glide_rotatable_bonds>  (113) 
14

>  <r_i_docking_score>  (113) 
-2.7356

>  <r_i_glide_ligand_efficiency>  (113) 
-0.0441225

>  <r_i_glide_ligand_efficiency_sa>  (113) 
-0.174632

>  <r_i_glide_ligand_efficiency_ln>  (113) 
-0.533553

>  <r_i_glide_gscore>  (113) 
-2.7356

>  <r_i_glide_lipo>  (113) 
-0.643846

>  <r_i_glide_hbond>  (113) 
0

>  <r_i_glide_metal>  (113) 
-0

>  <r_i_glide_rewards>  (113) 
0

>  <r_i_glide_evdw>  (113) 
-29.1752

>  <r_i_glide_ecoul>  (113) 
-4.41931

>  <r_i_glide_erotb>  (113) 
0.0549013

>  <r_i_glide_esite>  (113) 
-0.0249967

>  <r_i_glide_emodel>  (113) 
-32.657

>  <r_i_glide_energy>  (113) 
-33.5945

>  <r_i_glide_einternal>  (113) 
7.00533

>  <r_i_glide_intrahb_reward>  (113) 
-0

>  <i_i_glide_confnum>  (113) 
4

>  <i_i_glide_posenum>  (113) 
25

>  <r_i_glide_eff_state_penalty>  (113) 
0

>  <ligand_id>  (113) 
78

>  <original_smiles>  (113) 
C=C(C)C1(OC)CC2(O)C(OC)CC3(OC)C4C5CC67C(C(CCC(OC)(C6O)C23O)[S+]([O-])C7C2C3COC(=O)C3C3(C(OC)CC(OC)C3(OC(C)=O)C5N4C)C2OC)C1O

>  <smiles>  (113) 
[H]OC1([H])C(OC([H])([H])[H])(C(=C([H])[H])C([H])([H])[H])C([H])([H])C2(O[H])C([H])(OC([H])([H])[H])C([H])([H])C3(OC([H])([H])[H])C4([H])N(C([H])([H])[H])C5([H])C4([H])C([H])([H])C46C([H])(O[H])C(OC([H])([H])[H])(C([H])([H])C([H])([H])C([H])(S(=O)C4([H])C4([H])C([H])(OC([H])([H])[H])C7(C([H])(OC([H])([H])[H])C([H])([H])C([H])(OC([H])([H])[H])C57OC(=O)C([H])([H])[H])C5([H])C(=O)OC([H])([H])C54[H])C16[H])C23O[H]

$$$$
78:3:1
     RDKit          3D

127136  0  0  1  0  0  0  0  0999 V2000
   -1.6756    0.8938    7.0542 C   0  0  0  0  0  0  0  0  0  0  0  0
   -1.5231    1.0522    5.7159 C   0  0  0  0  0  0  0  0  0  0  0  0
   -2.3020    2.2242    5.0925 C   0  0  0  0  0  0  0  0  0  0  0  0
   -0.6603    0.1736    4.7899 C   0  0  1  0  0  0  0  0  0  0  0  0
   -1.4134   -0.0755    3.5677 O   0  0  0  0  0  0  0  0  0  0  0  0
   -1.3330    0.8223    2.4410 C   0  0  0  0  0  0  0  0  0  0  0  0
    0.7187    0.9418    4.4324 C   0  0  0  0  0  0  0  0  0  0  0  0
    1.9537    0.1920    3.7271 C   0  0  1  0  0  0  0  0  0  0  0  0
    1.3861   -0.8711    3.0116 O   0  0  0  0  0  0  0  0  0  0  0  0
    2.4643    0.8585    2.4060 C   0  0  1  0  0  0  0  0  0  0  0  0
    2.6723    2.2515    2.5836 O   0  0  0  0  0  0  0  0  0  0  0  0
    1.6593    3.1167    2.0292 C   0  0  0  0  0  0  0  0  0  0  0  0
    3.8202    0.1342    2.1450 C   0  0  0  0  0  0  0  0  0  0  0  0
    4.2115   -0.7664    3.3655 C   0  0  2  0  0  0  0  0  0  0  0  0
    5.5823   -0.4375    3.6785 O   0  0  0  0  0  0  0  0  0  0  0  0
    6.5407   -0.6833    2.6686 C   0  0  0  0  0  0  0  0  0  0  0  0
    4.1761   -2.3789    3.2034 C   0  0  1  0  0  0  0  0  0  0  0  0
    3.2437   -3.3825    3.8663 C   0  0  1  0  0  0  0  0  0  0  0  0
    1.9001   -3.2241    4.4657 C   0  0  0  0  0  0  0  0  0  0  0  0
    1.8672   -2.7147    5.9142 C   0  0  2  0  0  0  0  0  0  0  0  0
    0.7948   -1.6108    6.2097 C   0  0  2  0  0  0  0  0  0  0  0  0
    0.7327   -1.4743    7.7369 C   0  0  2  0  0  0  0  0  0  0  0  0
    1.8470   -0.4859    8.2739 C   0  0  0  0  0  0  0  0  0  0  0  0
    2.8746    0.2133    7.2739 C   0  0  0  0  0  0  0  0  0  0  0  0
    3.5792   -0.6366    6.1090 C   0  0  1  0  0  0  0  0  0  0  0  0
    4.9856   -0.3328    6.3703 O   0  0  0  0  0  0  0  0  0  0  0  0
    6.0286   -1.3061    6.5646 C   0  0  0  0  0  0  0  0  0  0  0  0
    3.2922   -2.1510    6.3711 C   0  0  1  0  0  0  0  0  0  0  0  0
    3.6199   -2.5271    7.7013 O   0  0  0  0  0  0  0  0  0  0  0  0
    3.3387   -0.1175    4.5434 C   0  0  2  0  0  0  0  0  0  0  0  0
    3.8242    1.2112    4.7427 O   0  0  0  0  0  0  0  0  0  0  0  0
    0.7991   -3.2343    8.3572 S   0  0  0  0  0  0  0  0  0  0  0  0
    1.8573   -3.3604    9.4473 O   0  0  0  0  0  0  0  0  0  0  0  0
    1.3324   -3.9263    6.7088 C   0  0  2  0  0  0  0  0  0  0  0  0
    1.9708   -5.3892    6.7172 C   0  0  1  0  0  0  0  0  0  0  0  0
    1.1362   -6.5481    6.0993 C   0  0  1  0  0  0  0  0  0  0  0  0
   -0.3663   -6.3606    5.8907 C   0  0  0  0  0  0  0  0  0  0  0  0
   -0.4887   -6.0430    4.5227 O   0  0  0  0  0  0  0  0  0  0  0  0
    0.5707   -6.3857    3.7825 C   0  0  0  0  0  0  0  0  0  0  0  0
    0.6295   -6.2538    2.5641 O   0  0  0  0  0  0  0  0  0  0  0  0
    1.6950   -6.9194    4.6985 C   0  0  1  0  0  0  0  0  0  0  0  0
    3.2225   -6.4597    4.5865 C   0  0  1  0  0  0  0  0  0  0  0  0
    4.1504   -7.7538    4.5850 C   0  0  1  0  0  0  0  0  0  0  0  0
    3.5867   -8.7968    3.7866 O   0  0  0  0  0  0  0  0  0  0  0  0
    4.1995  -10.0682    3.9383 C   0  0  0  0  0  0  0  0  0  0  0  0
    5.5102   -7.3685    3.9568 C   0  0  0  0  0  0  0  0  0  0  0  0
    5.3295   -5.9322    3.4113 C   0  0  1  0  0  0  0  0  0  0  0  0
    6.1318   -5.6854    2.2632 O   0  0  0  0  0  0  0  0  0  0  0  0
    7.5209   -5.9503    2.4398 C   0  0  0  0  0  0  0  0  0  0  0  0
    3.7946   -5.7638    3.1778 C   0  0  1  0  0  0  0  0  0  0  0  0
    3.3584   -6.7188    2.1829 O   0  0  0  0  0  0  0  0  0  0  0  0
    3.8373   -6.8854    0.9239 C   0  0  0  0  0  0  0  0  0  0  0  0
    3.8395   -5.6501    0.0632 C   0  0  0  0  0  0  0  0  0  0  0  0
    4.2397   -8.0044    0.5069 O   0  0  0  0  0  0  0  0  0  0  0  0
    3.3023   -4.3155    2.7183 C   0  0  2  0  0  0  0  0  0  0  0  0
    4.1279   -3.2499    2.0320 N   0  0  0  0  0  0  0  0  0  0  0  0
    3.4670   -2.6911    0.8113 C   0  0  0  0  0  0  0  0  0  0  0  0
    3.3473   -5.7741    6.0509 C   0  0  1  0  0  0  0  0  0  0  0  0
    4.4847   -5.0085    6.4589 O   0  0  0  0  0  0  0  0  0  0  0  0
    5.6726   -5.7006    6.8476 C   0  0  0  0  0  0  0  0  0  0  0  0
   -0.4677   -1.3461    5.3207 C   0  0  1  0  0  0  0  0  0  0  0  0
   -1.6194   -1.8812    5.9518 O   0  0  0  0  0  0  0  0  0  0  0  0
   -2.3150    1.5454    7.6149 H   0  0  0  0  0  0  0  0  0  0  0  0
   -1.1332    0.1137    7.5002 H   0  0  0  0  0  0  0  0  0  0  0  0
   -2.8938    1.9034    4.2160 H   0  0  0  0  0  0  0  0  0  0  0  0
   -1.6325    3.0579    4.8317 H   0  0  0  0  0  0  0  0  0  0  0  0
   -3.0286    2.5906    5.8122 H   0  0  0  0  0  0  0  0  0  0  0  0
   -2.1550    0.6484    1.7429 H   0  0  0  0  0  0  0  0  0  0  0  0
   -0.4307    0.6839    1.8472 H   0  0  0  0  0  0  0  0  0  0  0  0
   -1.3860    1.8803    2.6900 H   0  0  0  0  0  0  0  0  0  0  0  0
    0.4303    1.7952    3.8675 H   0  0  0  0  0  0  0  0  0  0  0  0
    1.1077    1.4247    5.3335 H   0  0  0  0  0  0  0  0  0  0  0  0
    0.9267   -0.5157    2.2782 H   0  0  0  0  0  0  0  0  0  0  0  0
    1.8451    0.7216    1.5155 H   0  0  0  0  0  0  0  0  0  0  0  0
    1.9590    4.1600    2.2252 H   0  0  0  0  0  0  0  0  0  0  0  0
    0.6832    2.9837    2.4846 H   0  0  0  0  0  0  0  0  0  0  0  0
    1.5871    2.9431    1.0064 H   0  0  0  0  0  0  0  0  0  0  0  0
    3.8441   -0.3240    1.1674 H   0  0  0  0  0  0  0  0  0  0  0  0
    4.5317    0.9229    1.9939 H   0  0  0  0  0  0  0  0  0  0  0  0
    7.5043   -0.3240    3.0651 H   0  0  0  0  0  0  0  0  0  0  0  0
    6.3582   -0.1518    1.7405 H   0  0  0  0  0  0  0  0  0  0  0  0
    6.5947   -1.7381    2.3583 H   0  0  0  0  0  0  0  0  0  0  0  0
    5.1161   -2.6516    3.6903 H   0  0  0  0  0  0  0  0  0  0  0  0
    3.8825   -3.9137    4.5413 H   0  0  0  0  0  0  0  0  0  0  0  0
    1.1488   -2.9200    3.7579 H   0  0  0  0  0  0  0  0  0  0  0  0
    1.5368   -4.2283    4.5024 H   0  0  0  0  0  0  0  0  0  0  0  0
    1.2746   -0.7429    5.9214 H   0  0  0  0  0  0  0  0  0  0  0  0
   -0.2109   -1.2339    8.1891 H   0  0  0  0  0  0  0  0  0  0  0  0
    1.3156    0.3394    8.7482 H   0  0  0  0  0  0  0  0  0  0  0  0
    2.3957   -0.9136    9.1110 H   0  0  0  0  0  0  0  0  0  0  0  0
    2.4124    1.1041    6.8579 H   0  0  0  0  0  0  0  0  0  0  0  0
    3.6623    0.6582    7.8867 H   0  0  0  0  0  0  0  0  0  0  0  0
    6.9516   -0.8043    6.8526 H   0  0  0  0  0  0  0  0  0  0  0  0
    6.2105   -1.9008    5.6738 H   0  0  0  0  0  0  0  0  0  0  0  0
    5.8382   -1.9943    7.3772 H   0  0  0  0  0  0  0  0  0  0  0  0
    4.1142   -2.6490    5.9341 H   0  0  0  0  0  0  0  0  0  0  0  0
    3.0097   -2.1722    8.2791 H   0  0  0  0  0  0  0  0  0  0  0  0
    4.7069    1.1224    5.0517 H   0  0  0  0  0  0  0  0  0  0  0  0
    0.3472   -4.0381    6.2690 H   0  0  0  0  0  0  0  0  0  0  0  0
    2.0668   -5.6025    7.7804 H   0  0  0  0  0  0  0  0  0  0  0  0
    1.2637   -7.4099    6.7562 H   0  0  0  0  0  0  0  0  0  0  0  0
   -0.8274   -7.3293    6.0088 H   0  0  0  0  0  0  0  0  0  0  0  0
   -0.8616   -5.6574    6.5663 H   0  0  0  0  0  0  0  0  0  0  0  0
    1.6040   -8.0005    4.6003 H   0  0  0  0  0  0  0  0  0  0  0  0
    4.2730   -8.1726    5.5819 H   0  0  0  0  0  0  0  0  0  0  0  0
    3.7631  -10.7537    3.2127 H   0  0  0  0  0  0  0  0  0  0  0  0
    4.0068  -10.4498    4.9393 H   0  0  0  0  0  0  0  0  0  0  0  0
    5.2790  -10.0640    3.7708 H   0  0  0  0  0  0  0  0  0  0  0  0
    6.3382   -7.4597    4.6767 H   0  0  0  0  0  0  0  0  0  0  0  0
    5.7284   -8.0342    3.1207 H   0  0  0  0  0  0  0  0  0  0  0  0
    5.6296   -5.1837    4.1374 H   0  0  0  0  0  0  0  0  0  0  0  0
    8.0422   -5.7533    1.5028 H   0  0  0  0  0  0  0  0  0  0  0  0
    7.7255   -6.9894    2.6950 H   0  0  0  0  0  0  0  0  0  0  0  0
    7.9573   -5.3373    3.2244 H   0  0  0  0  0  0  0  0  0  0  0  0
    4.4871   -4.9138    0.5530 H   0  0  0  0  0  0  0  0  0  0  0  0
    2.7933   -5.2593    0.0159 H   0  0  0  0  0  0  0  0  0  0  0  0
    4.2285   -5.7730   -0.9558 H   0  0  0  0  0  0  0  0  0  0  0  0
    2.3110   -4.3429    2.2816 H   0  0  0  0  0  0  0  0  0  0  0  0
    3.1948   -3.4628    0.1200 H   0  0  0  0  0  0  0  0  0  0  0  0
    4.2181   -2.0794    0.3023 H   0  0  0  0  0  0  0  0  0  0  0  0
    2.5851   -2.1032    1.0638 H   0  0  0  0  0  0  0  0  0  0  0  0
    3.4914   -6.6446    6.6863 H   0  0  0  0  0  0  0  0  0  0  0  0
    6.4149   -5.0045    7.2305 H   0  0  0  0  0  0  0  0  0  0  0  0
    6.1296   -6.1857    6.0141 H   0  0  0  0  0  0  0  0  0  0  0  0
    5.4748   -6.4517    7.6079 H   0  0  0  0  0  0  0  0  0  0  0  0
   -0.4333   -1.9786    4.4426 H   0  0  0  0  0  0  0  0  0  0  0  0
   -2.3146   -1.7686    5.3473 H   0  0  0  0  0  0  0  0  0  0  0  0
  1  2  2  0
  1 63  1  0
  1 64  1  0
  2  3  1  0
  2  4  1  0
  3 65  1  0
  3 66  1  0
  3 67  1  0
  4 61  1  0
  4  5  1  6
  4  7  1  0
  5  6  1  0
  6 68  1  0
  6 69  1  0
  6 70  1  0
  7  8  1  0
  7 71  1  0
  7 72  1  0
  8 30  1  0
  8  9  1  6
  8 10  1  0
  9 73  1  0
 10 11  1  0
 10 13  1  0
 10 74  1  6
 11 12  1  0
 12 75  1  0
 12 76  1  0
 12 77  1  0
 13 14  1  0
 13 78  1  0
 13 79  1  0
 14 30  1  0
 14 15  1  1
 14 17  1  0
 15 16  1  0
 16 80  1  0
 16 81  1  0
 16 82  1  0
 17 56  1  0
 17 18  1  0
 17 83  1  1
 18 55  1  0
 18 19  1  0
 18 84  1  1
 20 19  1  6
 19 85  1  0
 19 86  1  0
 20 28  1  0
 20 34  1  0
 20 21  1  0
 21 22  1  0
 21 61  1  0
 21 87  1  6
 22 23  1  0
 32 22  1  6
 22 88  1  6
 23 24  1  0
 23 89  1  0
 23 90  1  0
 24 25  1  0
 24 91  1  0
 24 92  1  0
 25 26  1  1
 25 28  1  0
 25 30  1  0
 26 27  1  0
 27 93  1  0
 27 94  1  0
 27 95  1  0
 28 29  1  0
 28 96  1  6
 29 97  1  0
 30 31  1  1
 31 98  1  0
 32 33  2  0
 32 34  1  0
 34 35  1  0
 34 99  1  6
 35 58  1  0
 35 36  1  0
 35100  1  1
 36 41  1  0
 36 37  1  0
 36101  1  1
 37 38  1  0
 37102  1  0
 37103  1  0
 38 39  1  0
 39 40  2  0
 39 41  1  0
 41 42  1  0
 41104  1  1
 42 50  1  6
 42 43  1  0
 42 58  1  0
 43 44  1  0
 43 46  1  0
 43105  1  1
 44 45  1  0
 45106  1  0
 45107  1  0
 45108  1  0
 46 47  1  0
 46109  1  0
 46110  1  0
 47 48  1  0
 47 50  1  0
 47111  1  1
 48 49  1  0
 49112  1  0
 49113  1  0
 49114  1  0
 50 51  1  6
 50 55  1  0
 51 52  1  0
 52 53  1  0
 52 54  2  0
 53115  1  0
 53116  1  0
 53117  1  0
 55 56  1  0
 55118  1  6
 56 57  1  0
 57119  1  0
 57120  1  0
 57121  1  0
 58 59  1  0
 58122  1  1
 59 60  1  0
 60123  1  0
 60124  1  0
 60125  1  0
 61 62  1  0
 61126  1  6
 62127  1  0
M  END
>  <i_m_ct_stereo_status>  (114) 
1

>  <s_m_source_file>  (114) 
/var/tmp/pbs.5075288.sched01/tmpqqnbnjfs/192vg5g1vka.sdf

>  <i_m_source_file_index>  (114) 
19

>  <i_lp_mmshare_version>  (114) 
48012

>  <i_f3d_flags>  (114) 
0

>  <s_epik_input>  (114) 
W0NAXTEyM1tDQEBIXTRbQ0BASF01W0NIMl1bQ0gyXVtDQEBdKE9bQ0gzXSkoW0NASF0yW09IXSlbQ0BdNihbT0hdKVtDQEBdKFtPSF0pKFtDSDJdW0NAQF0oQyg9W0NIMl0pW0NIM10pKE9bQ0gzXSlbQ0BASF00W09IXSlbQ0BASF0oT1tDSDNdKVtDSDJdW0NAXTYoT1tDSDNdKVtDQEhdN1tDQEBIXShbQ0gyXTEpW0NAQEhdKE43W0NIM10pW0NAXTgoT0MoPU8pW0NIM10pW0NAXTkoW0NAQEhdKE9bQ0gzXSlbQ0gyXVtDQEhdOE9bQ0gzXSlbQ0BIXTFbQ0BIXShbQ0gyXU9DMT1PKVtDQEhdKFtDQEhdM1tTK101W08tXSlbQ0BASF05T1tDSDNd

>  <s_epik_cmdline>  (114) 
J2VwaWtfcHl0aG9uJywgJy1waHQnLCAnMi4wJywgJy1waCcsICc3LjAnLCAnLXRuJywgJzgnLCAnLW1hJywgJzIwMCcsICctaW1hZScsICc8aW5maWxlLm1hZT4nLCAnLW9tYWUnLCAnPG91dGZpbGUubWFlPic=

>  <r_epik_Ionization_Penalty>  (114) 
1.68749

>  <r_epik_Ionization_Penalty_Charging>  (114) 
0

>  <r_epik_Ionization_Penalty_Neutral>  (114) 
1.68749

>  <r_epik_State_Penalty>  (114) 
1.79243

>  <r_epik_Charging_Adjusted_Penalty>  (114) 
1.79243

>  <i_epik_Tot_Q>  (114) 
0

>  <i_epik_Tot_abs_Q>  (114) 
2

>  <s_epik_Chemistry_Notes>  (114) 
This compound has an ester and may undergo hydrolysis at high or low pH.

>  <s_lp_Force_Field>  (114) 
OPLS3e

>  <r_lp_Energy>  (114) 
304.31

>  <b_lp_Chiralities_Consistent>  (114) 
1

>  <s_lp_Variant>  (114) 
78:0-4

>  <s_i_glide_gridfile>  (114) 
pfpi4k_grid

>  <i_i_glide_lignum>  (114) 
19

>  <i_i_glide_rotatable_bonds>  (114) 
14

>  <r_i_docking_score>  (114) 
-1.10306

>  <r_i_glide_ligand_efficiency>  (114) 
-0.0177913

>  <r_i_glide_ligand_efficiency_sa>  (114) 
-0.0704161

>  <r_i_glide_ligand_efficiency_ln>  (114) 
-0.215142

>  <r_i_glide_gscore>  (114) 
-1.10306

>  <r_i_glide_lipo>  (114) 
-0.127811

>  <r_i_glide_hbond>  (114) 
-0.0344751

>  <r_i_glide_metal>  (114) 
-0

>  <r_i_glide_rewards>  (114) 
-0.129506

>  <r_i_glide_evdw>  (114) 
-14.6244

>  <r_i_glide_ecoul>  (114) 
-3.43039

>  <r_i_glide_erotb>  (114) 
0.0549013

>  <r_i_glide_esite>  (114) 
-0.0485832

>  <r_i_glide_emodel>  (114) 
-0.529931

>  <r_i_glide_energy>  (114) 
-18.0548

>  <r_i_glide_einternal>  (114) 
30.4356

>  <r_i_glide_intrahb_reward>  (114) 
-0

>  <i_i_glide_confnum>  (114) 
1

>  <i_i_glide_posenum>  (114) 
14

>  <r_i_glide_eff_state_penalty>  (114) 
0

>  <ligand_id>  (114) 
78

>  <original_smiles>  (114) 
C=C(C)C1(OC)CC2(O)C(OC)CC3(OC)C4C5CC67C(C(CCC(OC)(C6O)C23O)[S+]([O-])C7C2C3COC(=O)C3C3(C(OC)CC(OC)C3(OC(C)=O)C5N4C)C2OC)C1O

>  <smiles>  (114) 
[H]OC1([H])C(OC([H])([H])[H])(C(=C([H])[H])C([H])([H])[H])C([H])([H])C2(O[H])C([H])(OC([H])([H])[H])C([H])([H])C3(OC([H])([H])[H])C4([H])N(C([H])([H])[H])C5([H])C4([H])C([H])([H])C46C([H])(O[H])C(OC([H])([H])[H])(C([H])([H])C([H])([H])C([H])(S(=O)C4([H])C4([H])C([H])(OC([H])([H])[H])C7(C([H])(OC([H])([H])[H])C([H])([H])C([H])(OC([H])([H])[H])C57OC(=O)C([H])([H])[H])C5([H])C(=O)OC([H])([H])C54[H])C16[H])C23O[H]

$$$$
78:3:2
     RDKit          3D

127136  0  0  1  0  0  0  0  0999 V2000
    3.2082   -7.5829    1.4338 C   0  0  0  0  0  0  0  0  0  0  0  0
    2.2446   -7.8845    2.2775 C   0  0  0  0  0  0  0  0  0  0  0  0
    1.6423   -9.2969    2.1297 C   0  0  0  0  0  0  0  0  0  0  0  0
    1.6772   -6.9264    3.4084 C   0  0  1  0  0  0  0  0  0  0  0  0
    0.2246   -7.0194    3.4609 O   0  0  0  0  0  0  0  0  0  0  0  0
   -0.5621   -7.1376    2.2660 C   0  0  0  0  0  0  0  0  0  0  0  0
    2.2062   -7.4261    4.8728 C   0  0  0  0  0  0  0  0  0  0  0  0
    2.1456   -6.5080    6.1720 C   0  0  1  0  0  0  0  0  0  0  0  0
    1.0620   -5.6650    5.8999 O   0  0  0  0  0  0  0  0  0  0  0  0
    1.4607   -7.1661    7.4142 C   0  0  1  0  0  0  0  0  0  0  0  0
    1.9664   -8.4852    7.6376 O   0  0  0  0  0  0  0  0  0  0  0  0
    1.2474   -9.2765    8.5728 C   0  0  0  0  0  0  0  0  0  0  0  0
    1.7919   -6.1959    8.5898 C   0  0  0  0  0  0  0  0  0  0  0  0
    2.8275   -5.1048    8.1265 C   0  0  2  0  0  0  0  0  0  0  0  0
    3.8589   -5.0548    9.1358 O   0  0  0  0  0  0  0  0  0  0  0  0
    3.5126   -4.7046   10.4807 C   0  0  0  0  0  0  0  0  0  0  0  0
    2.3508   -3.5686    7.9589 C   0  0  1  0  0  0  0  0  0  0  0  0
    2.2421   -2.7168    6.7114 C   0  0  1  0  0  0  0  0  0  0  0  0
    2.0814   -3.1056    5.3065 C   0  0  0  0  0  0  0  0  0  0  0  0
    3.3777   -3.4646    4.5758 C   0  0  2  0  0  0  0  0  0  0  0  0
    3.2836   -4.7499    3.6557 C   0  0  2  0  0  0  0  0  0  0  0  0
    4.5537   -4.7301    2.8018 C   0  0  2  0  0  0  0  0  0  0  0  0
    5.7621   -5.4166    3.5162 C   0  0  0  0  0  0  0  0  0  0  0  0
    5.6030   -5.9878    4.9994 C   0  0  0  0  0  0  0  0  0  0  0  0
    4.8212   -5.1326    6.1116 C   0  0  1  0  0  0  0  0  0  0  0  0
    5.7123   -5.0430    7.2609 O   0  0  0  0  0  0  0  0  0  0  0  0
    7.0092   -4.4313    7.2541 C   0  0  0  0  0  0  0  0  0  0  0  0
    4.6023   -3.6711    5.5950 C   0  0  1  0  0  0  0  0  0  0  0  0
    5.7813   -3.0734    5.1072 O   0  0  0  0  0  0  0  0  0  0  0  0
    3.4896   -5.8270    6.8315 C   0  0  2  0  0  0  0  0  0  0  0  0
    4.1535   -7.0131    7.2826 O   0  0  0  0  0  0  0  0  0  0  0  0
    4.7403   -2.9524    2.2640 S   0  0  0  0  0  0  0  0  0  0  0  0
    6.1601   -2.4354    2.4783 O   0  0  0  0  0  0  0  0  0  0  0  0
    3.5219   -2.3235    3.5269 C   0  0  2  0  0  0  0  0  0  0  0  0
    3.5655   -0.7586    3.8441 C   0  0  1  0  0  0  0  0  0  0  0  0
    2.3927    0.1281    3.3389 C   0  0  1  0  0  0  0  0  0  0  0  0
    1.4807   -0.3700    2.2048 C   0  0  0  0  0  0  0  0  0  0  0  0
    0.3569   -0.8560    2.9010 O   0  0  0  0  0  0  0  0  0  0  0  0
    0.2050   -0.3953    4.1427 C   0  0  0  0  0  0  0  0  0  0  0  0
   -0.7729   -0.6094    4.8621 O   0  0  0  0  0  0  0  0  0  0  0  0
    1.4376    0.4527    4.5172 C   0  0  1  0  0  0  0  0  0  0  0  0
    2.2078    0.3378    5.9096 C   0  0  1  0  0  0  0  0  0  0  0  0
    2.4617    1.7893    6.5198 C   0  0  1  0  0  0  0  0  0  0  0  0
    1.2828    2.5998    6.4214 O   0  0  0  0  0  0  0  0  0  0  0  0
    1.3459    3.7060    5.5365 C   0  0  0  0  0  0  0  0  0  0  0  0
    2.7522    1.6159    8.0329 C   0  0  0  0  0  0  0  0  0  0  0  0
    2.4642    0.1170    8.3583 C   0  0  1  0  0  0  0  0  0  0  0  0
    1.9737   -0.1403    9.6743 O   0  0  0  0  0  0  0  0  0  0  0  0
    2.8856    0.1667   10.7095 C   0  0  0  0  0  0  0  0  0  0  0  0
    1.4681   -0.3423    7.2392 C   0  0  1  0  0  0  0  0  0  0  0  0
    0.1470    0.2756    7.3373 O   0  0  0  0  0  0  0  0  0  0  0  0
   -0.3529    1.1814    8.2489 C   0  0  0  0  0  0  0  0  0  0  0  0
   -1.6673    1.7713    7.8051 C   0  0  0  0  0  0  0  0  0  0  0  0
    0.1208    1.5572    9.3134 O   0  0  0  0  0  0  0  0  0  0  0  0
    1.1416   -1.8951    7.2567 C   0  0  2  0  0  0  0  0  0  0  0  0
    1.1713   -2.7976    8.4668 N   0  0  0  0  0  0  0  0  0  0  0  0
   -0.0830   -3.5279    8.6586 C   0  0  0  0  0  0  0  0  0  0  0  0
    3.6325   -0.1525    5.2961 C   0  0  1  0  0  0  0  0  0  0  0  0
    4.7042   -0.6246    6.1273 O   0  0  0  0  0  0  0  0  0  0  0  0
    5.5114    0.3512    6.7858 C   0  0  0  0  0  0  0  0  0  0  0  0
    1.9461   -5.3574    3.0938 C   0  0  1  0  0  0  0  0  0  0  0  0
    1.8282   -5.0179    1.7166 O   0  0  0  0  0  0  0  0  0  0  0  0
    3.5521   -8.2507    0.6622 H   0  0  0  0  0  0  0  0  0  0  0  0
    3.6906   -6.6224    1.4556 H   0  0  0  0  0  0  0  0  0  0  0  0
    0.5573   -9.3621    2.1411 H   0  0  0  0  0  0  0  0  0  0  0  0
    2.0006   -9.9654    2.9198 H   0  0  0  0  0  0  0  0  0  0  0  0
    1.9211   -9.6525    1.1376 H   0  0  0  0  0  0  0  0  0  0  0  0
   -1.5542   -6.7383    2.4016 H   0  0  0  0  0  0  0  0  0  0  0  0
   -0.8146   -8.1678    2.0430 H   0  0  0  0  0  0  0  0  0  0  0  0
   -0.0981   -6.7217    1.3835 H   0  0  0  0  0  0  0  0  0  0  0  0
    1.6955   -8.3572    5.0866 H   0  0  0  0  0  0  0  0  0  0  0  0
    3.2345   -7.7485    4.7696 H   0  0  0  0  0  0  0  0  0  0  0  0
    0.8769   -5.1428    6.6586 H   0  0  0  0  0  0  0  0  0  0  0  0
    0.3773   -7.2846    7.3031 H   0  0  0  0  0  0  0  0  0  0  0  0
    1.7387  -10.2449    8.6724 H   0  0  0  0  0  0  0  0  0  0  0  0
    0.2265   -9.4548    8.2357 H   0  0  0  0  0  0  0  0  0  0  0  0
    1.2168   -8.8233    9.5642 H   0  0  0  0  0  0  0  0  0  0  0  0
    0.8950   -5.8091    9.0638 H   0  0  0  0  0  0  0  0  0  0  0  0
    2.2503   -6.8121    9.3674 H   0  0  0  0  0  0  0  0  0  0  0  0
    4.4306   -4.6721   11.0683 H   0  0  0  0  0  0  0  0  0  0  0  0
    2.8602   -5.4364   10.9565 H   0  0  0  0  0  0  0  0  0  0  0  0
    3.0442   -3.7239   10.5630 H   0  0  0  0  0  0  0  0  0  0  0  0
    3.1544   -3.0414    8.4815 H   0  0  0  0  0  0  0  0  0  0  0  0
    3.0565   -2.0278    6.7988 H   0  0  0  0  0  0  0  0  0  0  0  0
    1.1664   -3.6269    5.0939 H   0  0  0  0  0  0  0  0  0  0  0  0
    1.7273   -2.2101    4.8498 H   0  0  0  0  0  0  0  0  0  0  0  0
    3.4356   -5.5537    4.3059 H   0  0  0  0  0  0  0  0  0  0  0  0
    4.5095   -5.0947    1.7989 H   0  0  0  0  0  0  0  0  0  0  0  0
    6.0792   -6.2633    2.9048 H   0  0  0  0  0  0  0  0  0  0  0  0
    6.5943   -4.7528    3.4725 H   0  0  0  0  0  0  0  0  0  0  0  0
    5.1927   -6.9926    4.9316 H   0  0  0  0  0  0  0  0  0  0  0  0
    6.6183   -6.2104    5.3360 H   0  0  0  0  0  0  0  0  0  0  0  0
    7.5637   -4.7766    8.1267 H   0  0  0  0  0  0  0  0  0  0  0  0
    6.9388   -3.3506    7.3492 H   0  0  0  0  0  0  0  0  0  0  0  0
    7.6170   -4.6623    6.3840 H   0  0  0  0  0  0  0  0  0  0  0  0
    4.5955   -3.1021    6.5055 H   0  0  0  0  0  0  0  0  0  0  0  0
    5.6135   -2.1619    4.9307 H   0  0  0  0  0  0  0  0  0  0  0  0
    4.4216   -7.5139    6.5348 H   0  0  0  0  0  0  0  0  0  0  0  0
    2.6418   -2.4709    2.9104 H   0  0  0  0  0  0  0  0  0  0  0  0
    4.4550   -0.4212    3.3148 H   0  0  0  0  0  0  0  0  0  0  0  0
    2.8254    1.0640    2.9903 H   0  0  0  0  0  0  0  0  0  0  0  0
    1.1590    0.4642    1.5756 H   0  0  0  0  0  0  0  0  0  0  0  0
    1.9293   -1.1125    1.5458 H   0  0  0  0  0  0  0  0  0  0  0  0
    1.0686    1.4488    4.3571 H   0  0  0  0  0  0  0  0  0  0  0  0
    3.2784    2.3312    6.0384 H   0  0  0  0  0  0  0  0  0  0  0  0
    0.3895    4.2338    5.5765 H   0  0  0  0  0  0  0  0  0  0  0  0
    1.5156    3.4024    4.5006 H   0  0  0  0  0  0  0  0  0  0  0  0
    2.1406    4.3982    5.8278 H   0  0  0  0  0  0  0  0  0  0  0  0
    3.7323    1.9679    8.3432 H   0  0  0  0  0  0  0  0  0  0  0  0
    2.1631    2.2969    8.6172 H   0  0  0  0  0  0  0  0  0  0  0  0
    3.3691   -0.4835    8.2802 H   0  0  0  0  0  0  0  0  0  0  0  0
    2.3855    0.0467   11.6731 H   0  0  0  0  0  0  0  0  0  0  0  0
    3.2612    1.1957   10.6672 H   0  0  0  0  0  0  0  0  0  0  0  0
    3.7373   -0.5205   10.6790 H   0  0  0  0  0  0  0  0  0  0  0  0
   -2.3837    0.9578    7.6694 H   0  0  0  0  0  0  0  0  0  0  0  0
   -1.5282    2.3416    6.8791 H   0  0  0  0  0  0  0  0  0  0  0  0
   -1.9991    2.4461    8.5963 H   0  0  0  0  0  0  0  0  0  0  0  0
    0.2488   -2.0951    6.6761 H   0  0  0  0  0  0  0  0  0  0  0  0
   -0.9241   -2.8482    8.7044 H   0  0  0  0  0  0  0  0  0  0  0  0
   -0.0776   -4.0348    9.6182 H   0  0  0  0  0  0  0  0  0  0  0  0
   -0.2856   -4.2441    7.8757 H   0  0  0  0  0  0  0  0  0  0  0  0
    4.0728    0.7953    4.9712 H   0  0  0  0  0  0  0  0  0  0  0  0
    6.3121   -0.1038    7.3656 H   0  0  0  0  0  0  0  0  0  0  0  0
    4.9704    0.8563    7.5425 H   0  0  0  0  0  0  0  0  0  0  0  0
    5.9004    1.1266    6.1252 H   0  0  0  0  0  0  0  0  0  0  0  0
    1.1027   -4.8058    3.4934 H   0  0  0  0  0  0  0  0  0  0  0  0
    2.5472   -5.4121    1.2476 H   0  0  0  0  0  0  0  0  0  0  0  0
  1  2  2  0
  1 63  1  0
  1 64  1  0
  2  3  1  0
  2  4  1  0
  3 65  1  0
  3 66  1  0
  3 67  1  0
  4 61  1  0
  4  5  1  1
  4  7  1  0
  5  6  1  0
  6 68  1  0
  6 69  1  0
  6 70  1  0
  7  8  1  0
  7 71  1  0
  7 72  1  0
  8 30  1  0
  8  9  1  6
  8 10  1  0
  9 73  1  0
 10 11  1  0
 10 13  1  0
 10 74  1  6
 11 12  1  0
 12 75  1  0
 12 76  1  0
 12 77  1  0
 13 14  1  0
 13 78  1  0
 13 79  1  0
 14 30  1  0
 14 15  1  1
 14 17  1  0
 15 16  1  0
 16 80  1  0
 16 81  1  0
 16 82  1  0
 17 56  1  0
 17 18  1  0
 17 83  1  1
 18 55  1  0
 18 19  1  0
 18 84  1  6
 20 19  1  1
 19 85  1  0
 19 86  1  0
 20 28  1  0
 20 34  1  0
 20 21  1  0
 21 22  1  0
 21 61  1  0
 21 87  1  1
 22 23  1  0
 32 22  1  1
 22 88  1  6
 23 24  1  0
 23 89  1  0
 23 90  1  0
 24 25  1  0
 24 91  1  0
 24 92  1  0
 25 26  1  1
 25 28  1  0
 25 30  1  0
 26 27  1  0
 27 93  1  0
 27 94  1  0
 27 95  1  0
 28 29  1  0
 28 96  1  1
 29 97  1  0
 30 31  1  1
 31 98  1  0
 32 33  2  0
 32 34  1  0
 34 35  1  0
 34 99  1  6
 35 58  1  0
 35 36  1  0
 35100  1  6
 36 41  1  0
 36 37  1  0
 36101  1  6
 37 38  1  0
 37102  1  0
 37103  1  0
 38 39  1  0
 39 40  2  0
 39 41  1  0
 41 42  1  0
 41104  1  6
 42 50  1  1
 42 43  1  0
 42 58  1  0
 43 44  1  0
 43 46  1  0
 43105  1  6
 44 45  1  0
 45106  1  0
 45107  1  0
 45108  1  0
 46 47  1  0
 46109  1  0
 46110  1  0
 47 48  1  0
 47 50  1  0
 47111  1  6
 48 49  1  0
 49112  1  0
 49113  1  0
 49114  1  0
 50 51  1  1
 50 55  1  0
 51 52  1  0
 52 53  1  0
 52 54  2  0
 53115  1  0
 53116  1  0
 53117  1  0
 55 56  1  0
 55118  1  6
 56 57  1  0
 57119  1  0
 57120  1  0
 57121  1  0
 58 59  1  0
 58122  1  6
 59 60  1  0
 60123  1  0
 60124  1  0
 60125  1  0
 61 62  1  0
 61126  1  1
 62127  1  0
M  END
>  <i_m_ct_stereo_status>  (115) 
1

>  <s_m_source_file>  (115) 
/var/tmp/pbs.5075288.sched01/tmpqqnbnjfs/192vg5g1vka.sdf

>  <i_m_source_file_index>  (115) 
19

>  <i_lp_mmshare_version>  (115) 
48012

>  <i_f3d_flags>  (115) 
0

>  <s_epik_input>  (115) 
W0NAXTEyM1tDQEBIXTRbQ0BASF01W0NIMl1bQ0gyXVtDQEBdKE9bQ0gzXSkoW0NASF0yW09IXSlbQ0BdNihbT0hdKVtDQEBdKFtPSF0pKFtDSDJdW0NAQF0oQyg9W0NIMl0pW0NIM10pKE9bQ0gzXSlbQ0BASF00W09IXSlbQ0BASF0oT1tDSDNdKVtDSDJdW0NAXTYoT1tDSDNdKVtDQEhdN1tDQEBIXShbQ0gyXTEpW0NAQEhdKE43W0NIM10pW0NAXTgoT0MoPU8pW0NIM10pW0NAXTkoW0NAQEhdKE9bQ0gzXSlbQ0gyXVtDQEhdOE9bQ0gzXSlbQ0BIXTFbQ0BIXShbQ0gyXU9DMT1PKVtDQEhdKFtDQEhdM1tTK101W08tXSlbQ0BASF05T1tDSDNd

>  <s_epik_cmdline>  (115) 
J2VwaWtfcHl0aG9uJywgJy1waHQnLCAnMi4wJywgJy1waCcsICc3LjAnLCAnLXRuJywgJzgnLCAnLW1hJywgJzIwMCcsICctaW1hZScsICc8aW5maWxlLm1hZT4nLCAnLW9tYWUnLCAnPG91dGZpbGUubWFlPic=

>  <r_epik_Ionization_Penalty>  (115) 
1.68749

>  <r_epik_Ionization_Penalty_Charging>  (115) 
0

>  <r_epik_Ionization_Penalty_Neutral>  (115) 
1.68749

>  <r_epik_State_Penalty>  (115) 
1.79243

>  <r_epik_Charging_Adjusted_Penalty>  (115) 
1.79243

>  <i_epik_Tot_Q>  (115) 
0

>  <i_epik_Tot_abs_Q>  (115) 
2

>  <s_epik_Chemistry_Notes>  (115) 
This compound has an ester and may undergo hydrolysis at high or low pH.

>  <s_lp_Force_Field>  (115) 
OPLS3e

>  <r_lp_Energy>  (115) 
304.31

>  <b_lp_Chiralities_Consistent>  (115) 
1

>  <s_lp_Variant>  (115) 
78:0-4

>  <s_i_glide_gridfile>  (115) 
pfpi4k_grid

>  <i_i_glide_lignum>  (115) 
19

>  <i_i_glide_rotatable_bonds>  (115) 
14

>  <r_i_docking_score>  (115) 
-0.0676975

>  <r_i_glide_ligand_efficiency>  (115) 
-0.0010919

>  <r_i_glide_ligand_efficiency_sa>  (115) 
-0.0043216

>  <r_i_glide_ligand_efficiency_ln>  (115) 
-0.0132038

>  <r_i_glide_gscore>  (115) 
-0.0676975

>  <r_i_glide_lipo>  (115) 
-0.143543

>  <r_i_glide_hbond>  (115) 
0

>  <r_i_glide_metal>  (115) 
-0

>  <r_i_glide_rewards>  (115) 
-0.546493

>  <r_i_glide_evdw>  (115) 
-21.3621

>  <r_i_glide_ecoul>  (115) 
0.368162

>  <r_i_glide_erotb>  (115) 
0.0549013

>  <r_i_glide_esite>  (115) 
-0.0428835

>  <r_i_glide_emodel>  (115) 
-10.3202

>  <r_i_glide_energy>  (115) 
-20.9939

>  <r_i_glide_einternal>  (115) 
17.8834

>  <r_i_glide_intrahb_reward>  (115) 
-0.5

>  <i_i_glide_confnum>  (115) 
3

>  <i_i_glide_posenum>  (115) 
30

>  <r_i_glide_eff_state_penalty>  (115) 
0

>  <ligand_id>  (115) 
78

>  <original_smiles>  (115) 
C=C(C)C1(OC)CC2(O)C(OC)CC3(OC)C4C5CC67C(C(CCC(OC)(C6O)C23O)[S+]([O-])C7C2C3COC(=O)C3C3(C(OC)CC(OC)C3(OC(C)=O)C5N4C)C2OC)C1O

>  <smiles>  (115) 
[H]OC1([H])C(OC([H])([H])[H])(C(=C([H])[H])C([H])([H])[H])C([H])([H])C2(O[H])C([H])(OC([H])([H])[H])C([H])([H])C3(OC([H])([H])[H])C4([H])N(C([H])([H])[H])C5([H])C4([H])C([H])([H])C46C([H])(O[H])C(OC([H])([H])[H])(C([H])([H])C([H])([H])C([H])(S(=O)C4([H])C4([H])C([H])(OC([H])([H])[H])C7(C([H])(OC([H])([H])[H])C([H])([H])C([H])(OC([H])([H])[H])C57OC(=O)C([H])([H])[H])C5([H])C(=O)OC([H])([H])C54[H])C16[H])C23O[H]

$$$$
90:0:0
     RDKit          3D

107114  0  0  1  0  0  0  0  0999 V2000
    2.4515   -4.0720   -1.0203 C   0  0  0  0  0  0  0  0  0  0  0  0
    2.1086   -3.2626    0.0892 O   0  0  0  0  0  0  0  0  0  0  0  0
    3.0811   -2.6585    0.8711 C   0  0  1  0  0  0  0  0  0  0  0  0
    3.7151   -1.5587   -0.0132 C   0  0  0  0  0  0  0  0  0  0  0  0
    5.1515   -1.9989   -0.1638 C   0  0  0  0  0  0  0  0  0  0  0  0
    5.3327   -2.9956    0.9723 C   0  0  1  0  0  0  0  0  0  0  0  0
    6.2883   -4.1415    0.6006 C   0  0  0  0  0  0  0  0  0  0  0  0
    5.6619   -2.3224    2.3045 C   0  0  0  0  0  0  0  0  0  0  0  0
    4.5910   -2.4107    3.4327 C   0  0  1  0  0  0  0  0  0  0  0  0
    5.2801   -2.4327    4.6547 O   0  0  0  0  0  0  0  0  0  0  0  0
    3.3173   -1.4336    3.3235 C   0  0  2  0  0  0  0  0  0  0  0  0
    3.7827    0.0733    3.1245 C   0  0  1  0  0  0  0  0  0  0  0  0
    2.7303    1.2339    2.9463 C   0  0  0  0  0  0  0  0  0  0  0  0
    1.9105    1.5140    4.0943 O   0  0  0  0  0  0  0  0  0  0  0  0
    1.8220    2.8072    4.6912 C   0  0  1  0  0  0  0  0  0  0  0  0
    3.2777    3.3525    4.9430 C   0  0  0  0  0  0  0  0  0  0  0  0
    1.1423    3.8132    3.6844 C   0  0  0  0  0  0  0  0  0  0  0  0
   -0.2283    4.2517    4.2485 C   0  0  1  0  0  0  0  0  0  0  0  0
   -1.1866    4.4771    3.2175 O   0  0  0  0  0  0  0  0  0  0  0  0
   -0.5681    3.0813    5.2164 C   0  0  2  0  0  0  0  0  0  0  0  0
   -1.1889    1.8830    4.3753 C   0  0  0  0  0  0  0  0  0  0  0  0
   -0.5958    1.5203    3.1378 O   0  0  0  0  0  0  0  0  0  0  0  0
   -1.5186    3.3359    6.4239 C   0  0  1  0  0  0  0  0  0  0  0  0
   -2.9074    3.3397    6.1319 O   0  0  0  0  0  0  0  0  0  0  0  0
   -1.1021    2.2868    7.5132 C   0  0  1  0  0  0  0  0  0  0  0  0
   -1.0854    2.9535    8.9243 C   0  0  0  0  0  0  0  0  0  0  0  0
   -2.1743    1.3659    7.6401 O   0  0  0  0  0  0  0  0  0  0  0  0
    0.3114    1.6723    7.0641 C   0  0  1  0  0  0  0  0  0  0  0  0
    0.4061    0.0430    7.1729 C   0  0  2  0  0  0  0  0  0  0  0  0
   -0.6755   -0.5843    6.5239 O   0  0  0  0  0  0  0  0  0  0  0  0
    0.5488   -0.3662    8.6887 C   0  0  1  0  0  0  0  0  0  0  0  0
   -0.0791   -1.5768    9.0956 O   0  0  0  0  0  0  0  0  0  0  0  0
   -0.1431   -1.9431   10.4043 C   0  0  0  0  0  0  0  0  0  0  0  0
    0.5420   -0.9776   11.4005 C   0  0  0  0  0  0  0  0  0  0  0  0
   -0.7414   -2.9710   10.7280 O   0  0  0  0  0  0  0  0  0  0  0  0
    2.0647   -0.5254    8.4786 C   0  0  1  0  0  0  0  0  0  0  0  0
    2.9013   -1.5532    9.2945 C   0  0  0  0  0  0  0  0  0  0  0  0
    1.6833   -0.8550    7.0525 C   0  0  2  0  0  0  0  0  0  0  0  0
    2.6783   -0.6969    5.9075 C   0  0  1  0  0  0  0  0  0  0  0  0
    3.9590   -0.9750    6.4076 O   0  0  0  0  0  0  0  0  0  0  0  0
    4.8295    0.1208    6.1250 C   0  0  0  0  0  0  0  0  0  0  0  0
    5.1058    0.6277    4.3336 S   0  0  0  0  0  0  0  0  0  0  0  0
    6.4856    0.1565    3.8924 O   0  0  0  0  0  0  0  0  0  0  0  0
    2.3112   -1.4711    4.5723 C   0  0  1  0  0  0  0  0  0  0  0  0
    1.0421   -0.8814    4.3254 O   0  0  0  0  0  0  0  0  0  0  0  0
    1.9103   -2.9384    4.5636 C   0  0  0  0  0  0  0  0  0  0  0  0
    1.7599   -3.2902    3.0618 C   0  0  0  0  0  0  0  0  0  0  0  0
    2.3989   -2.1388    2.2001 C   0  0  2  0  0  0  0  0  0  0  0  0
    1.3980   -1.2414    1.7145 O   0  0  0  0  0  0  0  0  0  0  0  0
    0.7982    2.7799    5.9524 C   0  0  1  0  0  0  0  0  0  0  0  0
    1.3489    3.9506    6.8879 C   0  0  0  0  0  0  0  0  0  0  0  0
    2.3132    3.6626    7.6485 O   0  0  0  0  0  0  0  0  0  0  0  0
    0.8360    5.0848    6.8590 O   0  0  0  0  0  0  0  0  0  0  0  0
    4.0697   -3.5930    1.1290 O   0  0  0  0  0  0  0  0  0  0  0  0
    1.6901   -4.0080   -1.8045 H   0  0  0  0  0  0  0  0  0  0  0  0
    2.4799   -5.1055   -0.6855 H   0  0  0  0  0  0  0  0  0  0  0  0
    3.4106   -3.8359   -1.4824 H   0  0  0  0  0  0  0  0  0  0  0  0
    3.2251   -1.4661   -0.9813 H   0  0  0  0  0  0  0  0  0  0  0  0
    3.6130   -0.5781    0.4391 H   0  0  0  0  0  0  0  0  0  0  0  0
    5.2638   -2.4913   -1.1292 H   0  0  0  0  0  0  0  0  0  0  0  0
    5.8629   -1.1644   -0.1327 H   0  0  0  0  0  0  0  0  0  0  0  0
    7.2981   -3.7683    0.4436 H   0  0  0  0  0  0  0  0  0  0  0  0
    5.9646   -4.6325   -0.3149 H   0  0  0  0  0  0  0  0  0  0  0  0
    6.3204   -4.9030    1.3787 H   0  0  0  0  0  0  0  0  0  0  0  0
    6.5520   -2.8342    2.6205 H   0  0  0  0  0  0  0  0  0  0  0  0
    6.0118   -1.3044    2.1360 H   0  0  0  0  0  0  0  0  0  0  0  0
    4.2519   -3.4452    3.4445 H   0  0  0  0  0  0  0  0  0  0  0  0
    5.8474   -3.1970    4.6827 H   0  0  0  0  0  0  0  0  0  0  0  0
    4.3391    0.1261    2.1937 H   0  0  0  0  0  0  0  0  0  0  0  0
    3.2023    2.1329    2.5466 H   0  0  0  0  0  0  0  0  0  0  0  0
    2.0249    0.9945    2.1582 H   0  0  0  0  0  0  0  0  0  0  0  0
    3.2872    4.4091    5.2173 H   0  0  0  0  0  0  0  0  0  0  0  0
    3.9097    3.3244    4.0642 H   0  0  0  0  0  0  0  0  0  0  0  0
    3.7848    2.8131    5.7331 H   0  0  0  0  0  0  0  0  0  0  0  0
    1.7529    4.6921    3.4675 H   0  0  0  0  0  0  0  0  0  0  0  0
    1.0224    3.3287    2.7071 H   0  0  0  0  0  0  0  0  0  0  0  0
   -0.1047    5.1980    4.7831 H   0  0  0  0  0  0  0  0  0  0  0  0
   -0.7376    4.5752    2.3867 H   0  0  0  0  0  0  0  0  0  0  0  0
   -1.2070    0.9658    4.9554 H   0  0  0  0  0  0  0  0  0  0  0  0
   -2.2252    2.0933    4.1293 H   0  0  0  0  0  0  0  0  0  0  0  0
   -0.5167    2.3022    2.6013 H   0  0  0  0  0  0  0  0  0  0  0  0
   -1.3642    4.3337    6.8202 H   0  0  0  0  0  0  0  0  0  0  0  0
   -3.1162    2.5414    5.6499 H   0  0  0  0  0  0  0  0  0  0  0  0
   -0.3427    3.7496    9.0044 H   0  0  0  0  0  0  0  0  0  0  0  0
   -0.8710    2.2425    9.7239 H   0  0  0  0  0  0  0  0  0  0  0  0
   -2.0478    3.4149    9.1660 H   0  0  0  0  0  0  0  0  0  0  0  0
   -2.8901    1.8292    8.0573 H   0  0  0  0  0  0  0  0  0  0  0  0
    0.9126    1.8884    7.9360 H   0  0  0  0  0  0  0  0  0  0  0  0
   -0.4699   -0.5652    5.5956 H   0  0  0  0  0  0  0  0  0  0  0  0
    0.2471    0.4671    9.3119 H   0  0  0  0  0  0  0  0  0  0  0  0
    1.5653   -0.8974   11.1748 H   0  0  0  0  0  0  0  0  0  0  0  0
    0.3891   -1.3602   12.4089 H   0  0  0  0  0  0  0  0  0  0  0  0
    0.0308   -0.0114   11.3923 H   0  0  0  0  0  0  0  0  0  0  0  0
    2.5047    0.4622    8.5223 H   0  0  0  0  0  0  0  0  0  0  0  0
    2.4269   -2.5242    9.2773 H   0  0  0  0  0  0  0  0  0  0  0  0
    2.9999   -1.2533   10.3115 H   0  0  0  0  0  0  0  0  0  0  0  0
    3.8708   -1.6966    8.7910 H   0  0  0  0  0  0  0  0  0  0  0  0
    1.3822   -1.8985    7.0575 H   0  0  0  0  0  0  0  0  0  0  0  0
    2.6404    0.3702    5.7709 H   0  0  0  0  0  0  0  0  0  0  0  0
    4.4936    1.0084    6.6695 H   0  0  0  0  0  0  0  0  0  0  0  0
    5.8207   -0.0885    6.5228 H   0  0  0  0  0  0  0  0  0  0  0  0
    1.1769    0.0227    4.0420 H   0  0  0  0  0  0  0  0  0  0  0  0
    2.6827   -3.5302    5.0356 H   0  0  0  0  0  0  0  0  0  0  0  0
    1.0000   -3.1389    5.1231 H   0  0  0  0  0  0  0  0  0  0  0  0
    2.2312   -4.2516    2.8566 H   0  0  0  0  0  0  0  0  0  0  0  0
    0.7088   -3.4178    2.8566 H   0  0  0  0  0  0  0  0  0  0  0  0
    1.3580   -1.2547    0.7545 H   0  0  0  0  0  0  0  0  0  0  0  0
  1  2  1  0
  1 55  1  0
  1 56  1  0
  1 57  1  0
  3  2  1  6
  3 48  1  0
  3 54  1  0
  3  4  1  0
  4  5  1  0
  4 58  1  0
  4 59  1  0
  5  6  1  0
  5 60  1  0
  5 61  1  0
  6  7  1  6
  6  8  1  0
  6 54  1  0
  7 62  1  0
  7 63  1  0
  7 64  1  0
  8  9  1  0
  8 65  1  0
  8 66  1  0
  9 10  1  0
  9 11  1  0
  9 67  1  6
 10 68  1  0
 11 44  1  0
 11 48  1  6
 11 12  1  0
 12 42  1  0
 12 13  1  0
 12 69  1  6
 13 14  1  0
 13 70  1  0
 13 71  1  0
 14 15  1  0
 15 50  1  0
 15 16  1  1
 15 17  1  0
 16 72  1  0
 16 73  1  0
 16 74  1  0
 17 18  1  0
 17 75  1  0
 17 76  1  0
 18 19  1  0
 18 20  1  0
 18 77  1  1
 19 78  1  0
 20 50  1  0
 20 21  1  6
 20 23  1  0
 21 22  1  0
 21 79  1  0
 21 80  1  0
 22 81  1  0
 23 24  1  0
 23 25  1  0
 23 82  1  1
 24 83  1  0
 25 26  1  0
 25 27  1  1
 25 28  1  0
 26 84  1  0
 26 85  1  0
 26 86  1  0
 27 87  1  0
 28 29  1  0
 28 50  1  0
 28 88  1  1
 29 38  1  0
 29 30  1  6
 29 31  1  0
 30 89  1  0
 31 32  1  0
 31 36  1  0
 31 90  1  1
 32 33  1  0
 33 34  1  0
 33 35  2  0
 34 91  1  0
 34 92  1  0
 34 93  1  0
 36 37  1  0
 36 38  1  0
 36 94  1  6
 37 95  1  0
 37 96  1  0
 37 97  1  0
 38 39  1  0
 38 98  1  1
 39 40  1  0
 39 44  1  0
 39 99  1  6
 40 41  1  0
 42 41  1  1
 41100  1  0
 41101  1  0
 42 43  2  0
 44 45  1  6
 44 46  1  0
 45102  1  0
 46 47  1  0
 46103  1  0
 46104  1  0
 47 48  1  0
 47105  1  0
 47106  1  0
 48 49  1  6
 49107  1  0
 50 51  1  1
 51 52  1  0
 51 53  2  0
M  CHG  1  52  -1
M  END
>  <i_m_ct_stereo_status>  (116) 
1

>  <s_m_source_file>  (116) 
/var/tmp/pbs.5075288.sched01/tmpqqnbnjfs/192vg5g1vka.sdf

>  <i_m_source_file_index>  (116) 
41

>  <i_lp_mmshare_version>  (116) 
48012

>  <i_f3d_flags>  (116) 
0

>  <s_epik_input>  (116) 
W09IXVtDQEBIXTFbQ0gyXVtDQF0oTzIpKFtDSDNdKVtDSDJdW0NIMl1bQ0BdMihPW0NIM10pW0NAQF0zKFtPSF0pW0NIMl1bQ0gyXVtDQEBdNChbT0hdKVtDQEhdKE9bQ0gyXVtTK101W08tXSlbQ0BASF0oW0NASF0oW0NIM10pW0NAQEhdNk9DKD1PKVtDSDNdKVtDQF02KFtPSF0pW0NAQEhdN1tDQF0oW0NIM10pKFtPSF0pW0NASF0oW09IXSlbQ0BdKFtDQEBIXShbQ0gyXTgpW09IXSkoW0NIMl1bT0hdKVtDQF03KEMoPU8pW09IXSlbQ0BAXTgoW0NIM10pT1tDSDJdW0NAQEhdNVtDQF0xMzQ=

>  <s_epik_cmdline>  (116) 
J2VwaWtfcHl0aG9uJywgJy1waHQnLCAnMi4wJywgJy1waCcsICc3LjAnLCAnLXRuJywgJzgnLCAnLW1hJywgJzIwMCcsICctaW1hZScsICc8aW5maWxlLm1hZT4nLCAnLW9tYWUnLCAnPG91dGZpbGUubWFlPic=

>  <r_epik_Ionization_Penalty>  (116) 
0.000709942

>  <r_epik_Ionization_Penalty_Charging>  (116) 
0.000708801

>  <r_epik_Ionization_Penalty_Neutral>  (116) 
1.14186e-06

>  <r_epik_State_Penalty>  (116) 
0.000451457

>  <r_epik_Charging_Adjusted_Penalty>  (116) 
0.00116026

>  <i_epik_Tot_Q>  (116) 
-1

>  <i_epik_Tot_abs_Q>  (116) 
3

>  <s_epik_Chemistry_Notes>  (116) 
This compound has an ester and may undergo hydrolysis at high or low pH. This compound contains an acetal/aminal-like group ( X-CH(R)-Y where X, Y are N, S, or O) that may be acid/base labile, releasing an aldehyde.

>  <s_lp_Force_Field>  (116) 
OPLS3e

>  <r_lp_Energy>  (116) 
193.383

>  <b_lp_Chiralities_Consistent>  (116) 
1

>  <s_lp_Variant>  (116) 
90:0-1

>  <s_i_glide_gridfile>  (116) 
pfpi4k_grid

>  <i_i_glide_lignum>  (116) 
41

>  <i_i_glide_rotatable_bonds>  (116) 
13

>  <r_i_docking_score>  (116) 
-5.46722

>  <r_i_glide_ligand_efficiency>  (116) 
-0.101245

>  <r_i_glide_ligand_efficiency_sa>  (116) 
-0.382681

>  <r_i_glide_ligand_efficiency_ln>  (116) 
-1.09586

>  <r_i_glide_gscore>  (116) 
-5.46722

>  <r_i_glide_lipo>  (116) 
-0.281618

>  <r_i_glide_hbond>  (116) 
-0.160514

>  <r_i_glide_metal>  (116) 
-0

>  <r_i_glide_rewards>  (116) 
-1.63581

>  <r_i_glide_evdw>  (116) 
-20.4282

>  <r_i_glide_ecoul>  (116) 
-15.6721

>  <r_i_glide_erotb>  (116) 
0.0697144

>  <r_i_glide_esite>  (116) 
-0.0867719

>  <r_i_glide_emodel>  (116) 
-58.112

>  <r_i_glide_energy>  (116) 
-36.1002

>  <r_i_glide_einternal>  (116) 
13.8194

>  <r_i_glide_intrahb_reward>  (116) 
-1.5

>  <i_i_glide_confnum>  (116) 
5

>  <i_i_glide_posenum>  (116) 
13

>  <r_i_glide_eff_state_penalty>  (116) 
0

>  <ligand_id>  (116) 
90

>  <original_smiles>  (116) 
COC12CCC(C)(CC(O)C34C5COC6(C)CC(O)C7(CO)C(O)C(C)(O)C(C8(O)C(OC(C)=O)C(C)C8C(OC[S+]5[O-])C3(O)CCC14O)C67C(=O)O)O2

>  <smiles>  (116) 
[H]OC([H])([H])C12C([H])(O[H])C([H])([H])C3(C([H])([H])[H])OC([H])([H])C4([H])S(=O)C([H])([H])OC([H])(C5([H])C([H])(C([H])([H])[H])C([H])(OC(=O)C([H])([H])[H])C5(O[H])C([H])(C(O[H])(C([H])([H])[H])C1([H])O[H])C32C(=O)[O-])C1(O[H])C([H])([H])C([H])([H])C2(O[H])C3(OC([H])([H])[H])OC(C([H])([H])[H])(C([H])([H])C3([H])[H])C([H])([H])C([H])(O[H])C412

$$$$
90:0:1
     RDKit          3D

107114  0  0  1  0  0  0  0  0999 V2000
    2.4484   -4.0932   -1.0405 C   0  0  0  0  0  0  0  0  0  0  0  0
    2.0978   -3.2548    0.0571 O   0  0  0  0  0  0  0  0  0  0  0  0
    3.0775   -2.6609    0.8488 C   0  0  1  0  0  0  0  0  0  0  0  0
    3.7046   -1.5502   -0.0287 C   0  0  0  0  0  0  0  0  0  0  0  0
    5.1453   -1.9938   -0.1785 C   0  0  0  0  0  0  0  0  0  0  0  0
    5.3261   -2.9982    0.9587 C   0  0  1  0  0  0  0  0  0  0  0  0
    6.2873   -4.1342    0.5787 C   0  0  0  0  0  0  0  0  0  0  0  0
    5.6678   -2.3194    2.2922 C   0  0  0  0  0  0  0  0  0  0  0  0
    4.5961   -2.4038    3.4239 C   0  0  1  0  0  0  0  0  0  0  0  0
    5.2992   -2.4345    4.6505 O   0  0  0  0  0  0  0  0  0  0  0  0
    3.3137   -1.4359    3.3092 C   0  0  2  0  0  0  0  0  0  0  0  0
    3.7658    0.0715    3.1136 C   0  0  1  0  0  0  0  0  0  0  0  0
    2.7162    1.2288    2.9366 C   0  0  0  0  0  0  0  0  0  0  0  0
    1.9041    1.5030    4.0914 O   0  0  0  0  0  0  0  0  0  0  0  0
    1.8085    2.8007    4.6952 C   0  0  1  0  0  0  0  0  0  0  0  0
    3.2586    3.3446    4.9338 C   0  0  0  0  0  0  0  0  0  0  0  0
    1.1244    3.7935    3.6755 C   0  0  0  0  0  0  0  0  0  0  0  0
   -0.2440    4.2334    4.2608 C   0  0  1  0  0  0  0  0  0  0  0  0
   -1.2151    4.4980    3.2132 O   0  0  0  0  0  0  0  0  0  0  0  0
   -0.5794    3.0642    5.2158 C   0  0  2  0  0  0  0  0  0  0  0  0
   -1.1822    1.8532    4.3726 C   0  0  0  0  0  0  0  0  0  0  0  0
   -0.5984    1.5132    3.1280 O   0  0  0  0  0  0  0  0  0  0  0  0
   -1.5302    3.3209    6.4210 C   0  0  1  0  0  0  0  0  0  0  0  0
   -2.9267    3.3306    6.1176 O   0  0  0  0  0  0  0  0  0  0  0  0
   -1.1128    2.2722    7.5085 C   0  0  1  0  0  0  0  0  0  0  0  0
   -1.0966    2.9327    8.9220 C   0  0  0  0  0  0  0  0  0  0  0  0
   -2.1882    1.3443    7.6458 O   0  0  0  0  0  0  0  0  0  0  0  0
    0.2998    1.6561    7.0568 C   0  0  1  0  0  0  0  0  0  0  0  0
    0.3999    0.0255    7.1664 C   0  0  2  0  0  0  0  0  0  0  0  0
   -0.6935   -0.6073    6.5127 O   0  0  0  0  0  0  0  0  0  0  0  0
    0.5316   -0.3836    8.6725 C   0  0  1  0  0  0  0  0  0  0  0  0
   -0.1130   -1.5974    9.0688 O   0  0  0  0  0  0  0  0  0  0  0  0
   -0.1982   -1.9678   10.3845 C   0  0  0  0  0  0  0  0  0  0  0  0
    0.5372   -1.0214   11.3857 C   0  0  0  0  0  0  0  0  0  0  0  0
   -0.7807   -3.0071   10.7180 O   0  0  0  0  0  0  0  0  0  0  0  0
    2.0543   -0.5427    8.4767 C   0  0  1  0  0  0  0  0  0  0  0  0
    2.8963   -1.5657    9.2638 C   0  0  0  0  0  0  0  0  0  0  0  0
    1.6777   -0.8686    7.0298 C   0  0  2  0  0  0  0  0  0  0  0  0
    2.6656   -0.7082    5.8952 C   0  0  1  0  0  0  0  0  0  0  0  0
    3.9686   -0.9754    6.3647 O   0  0  0  0  0  0  0  0  0  0  0  0
    4.8202    0.1393    6.0992 C   0  0  0  0  0  0  0  0  0  0  0  0
    5.0922    0.6567    4.3234 S   0  0  0  0  0  0  0  0  0  0  0  0
    6.4680    0.1529    3.8966 O   0  0  0  0  0  0  0  0  0  0  0  0
    2.3080   -1.4800    4.5517 C   0  0  1  0  0  0  0  0  0  0  0  0
    1.0350   -0.8875    4.3091 O   0  0  0  0  0  0  0  0  0  0  0  0
    1.9093   -2.9521    4.5508 C   0  0  0  0  0  0  0  0  0  0  0  0
    1.7633   -3.3053    3.0455 C   0  0  0  0  0  0  0  0  0  0  0  0
    2.3918   -2.1424    2.1892 C   0  0  2  0  0  0  0  0  0  0  0  0
    1.3856   -1.2722    1.7026 O   0  0  0  0  0  0  0  0  0  0  0  0
    0.7946    2.7741    5.9536 C   0  0  1  0  0  0  0  0  0  0  0  0
    1.3493    3.9324    6.8967 C   0  0  0  0  0  0  0  0  0  0  0  0
    2.2950    3.6580    7.6458 O   0  0  0  0  0  0  0  0  0  0  0  0
    0.8299    5.0807    6.8611 O   0  0  0  0  0  0  0  0  0  0  0  0
    4.0624   -3.5919    1.1051 O   0  0  0  0  0  0  0  0  0  0  0  0
    1.6971   -4.0307   -1.8306 H   0  0  0  0  0  0  0  0  0  0  0  0
    2.4576   -5.1187   -0.6895 H   0  0  0  0  0  0  0  0  0  0  0  0
    3.4096   -3.8681   -1.4885 H   0  0  0  0  0  0  0  0  0  0  0  0
    3.2142   -1.4626   -1.0033 H   0  0  0  0  0  0  0  0  0  0  0  0
    3.5991   -0.5755    0.4226 H   0  0  0  0  0  0  0  0  0  0  0  0
    5.2554   -2.4865   -1.1465 H   0  0  0  0  0  0  0  0  0  0  0  0
    5.8503   -1.1589   -0.1495 H   0  0  0  0  0  0  0  0  0  0  0  0
    7.2974   -3.7639    0.4209 H   0  0  0  0  0  0  0  0  0  0  0  0
    5.9655   -4.6272   -0.3391 H   0  0  0  0  0  0  0  0  0  0  0  0
    6.3223   -4.8998    1.3531 H   0  0  0  0  0  0  0  0  0  0  0  0
    6.5576   -2.8299    2.6175 H   0  0  0  0  0  0  0  0  0  0  0  0
    6.0165   -1.3083    2.1215 H   0  0  0  0  0  0  0  0  0  0  0  0
    4.2633   -3.4344    3.4329 H   0  0  0  0  0  0  0  0  0  0  0  0
    5.7026   -1.5979    4.8060 H   0  0  0  0  0  0  0  0  0  0  0  0
    4.3292    0.1252    2.1889 H   0  0  0  0  0  0  0  0  0  0  0  0
    3.1867    2.1277    2.5353 H   0  0  0  0  0  0  0  0  0  0  0  0
    2.0147    0.9766    2.1491 H   0  0  0  0  0  0  0  0  0  0  0  0
    3.2729    4.4028    5.2106 H   0  0  0  0  0  0  0  0  0  0  0  0
    3.8946    3.3181    4.0538 H   0  0  0  0  0  0  0  0  0  0  0  0
    3.7706    2.8049    5.7246 H   0  0  0  0  0  0  0  0  0  0  0  0
    1.7240    4.6784    3.4519 H   0  0  0  0  0  0  0  0  0  0  0  0
    0.9901    3.3118    2.7105 H   0  0  0  0  0  0  0  0  0  0  0  0
   -0.1144    5.1748    4.7993 H   0  0  0  0  0  0  0  0  0  0  0  0
   -0.7735    4.5547    2.4075 H   0  0  0  0  0  0  0  0  0  0  0  0
   -1.1937    0.9414    4.9370 H   0  0  0  0  0  0  0  0  0  0  0  0
   -2.2242    2.0535    4.1164 H   0  0  0  0  0  0  0  0  0  0  0  0
   -0.5571    2.2937    2.5937 H   0  0  0  0  0  0  0  0  0  0  0  0
   -1.3735    4.3215    6.8133 H   0  0  0  0  0  0  0  0  0  0  0  0
   -3.1310    2.5759    5.5914 H   0  0  0  0  0  0  0  0  0  0  0  0
   -0.3538    3.7306    9.0035 H   0  0  0  0  0  0  0  0  0  0  0  0
   -0.8804    2.2140    9.7168 H   0  0  0  0  0  0  0  0  0  0  0  0
   -2.0637    3.3876    9.1654 H   0  0  0  0  0  0  0  0  0  0  0  0
   -2.8959    1.8177    8.0571 H   0  0  0  0  0  0  0  0  0  0  0  0
    0.9117    1.8663    7.9233 H   0  0  0  0  0  0  0  0  0  0  0  0
   -0.5215   -0.5443    5.5820 H   0  0  0  0  0  0  0  0  0  0  0  0
    0.2308    0.4436    9.3055 H   0  0  0  0  0  0  0  0  0  0  0  0
    1.5671   -0.9810   11.1426 H   0  0  0  0  0  0  0  0  0  0  0  0
    0.4223   -1.4150   12.4031 H   0  0  0  0  0  0  0  0  0  0  0  0
    0.0900   -0.0052   11.3467 H   0  0  0  0  0  0  0  0  0  0  0  0
    2.5074    0.4459    8.5240 H   0  0  0  0  0  0  0  0  0  0  0  0
    2.3995   -2.5456    9.2609 H   0  0  0  0  0  0  0  0  0  0  0  0
    3.0458   -1.2669   10.3015 H   0  0  0  0  0  0  0  0  0  0  0  0
    3.8753   -1.7038    8.7837 H   0  0  0  0  0  0  0  0  0  0  0  0
    1.3929   -1.9159    7.0456 H   0  0  0  0  0  0  0  0  0  0  0  0
    2.6196    0.3635    5.7619 H   0  0  0  0  0  0  0  0  0  0  0  0
    4.4813    1.0150    6.6658 H   0  0  0  0  0  0  0  0  0  0  0  0
    5.8112   -0.0780    6.5003 H   0  0  0  0  0  0  0  0  0  0  0  0
    1.1666    0.0272    4.0685 H   0  0  0  0  0  0  0  0  0  0  0  0
    2.6870   -3.5419    5.0250 H   0  0  0  0  0  0  0  0  0  0  0  0
    1.0037   -3.1612    5.1126 H   0  0  0  0  0  0  0  0  0  0  0  0
    2.2356   -4.2629    2.8475 H   0  0  0  0  0  0  0  0  0  0  0  0
    0.7114   -3.4387    2.8445 H   0  0  0  0  0  0  0  0  0  0  0  0
    1.3559   -1.2801    0.7347 H   0  0  0  0  0  0  0  0  0  0  0  0
  1  2  1  0
  1 55  1  0
  1 56  1  0
  1 57  1  0
  3  2  1  6
  3 48  1  0
  3 54  1  0
  3  4  1  0
  4  5  1  0
  4 58  1  0
  4 59  1  0
  5  6  1  0
  5 60  1  0
  5 61  1  0
  6  7  1  6
  6  8  1  0
  6 54  1  0
  7 62  1  0
  7 63  1  0
  7 64  1  0
  8  9  1  0
  8 65  1  0
  8 66  1  0
  9 10  1  0
  9 11  1  0
  9 67  1  6
 10 68  1  0
 11 44  1  0
 11 48  1  6
 11 12  1  0
 12 42  1  0
 12 13  1  0
 12 69  1  6
 13 14  1  0
 13 70  1  0
 13 71  1  0
 14 15  1  0
 15 50  1  0
 15 16  1  1
 15 17  1  0
 16 72  1  0
 16 73  1  0
 16 74  1  0
 17 18  1  0
 17 75  1  0
 17 76  1  0
 18 19  1  0
 18 20  1  0
 18 77  1  1
 19 78  1  0
 20 50  1  0
 20 21  1  6
 20 23  1  0
 21 22  1  0
 21 79  1  0
 21 80  1  0
 22 81  1  0
 23 24  1  0
 23 25  1  0
 23 82  1  1
 24 83  1  0
 25 26  1  0
 25 27  1  1
 25 28  1  0
 26 84  1  0
 26 85  1  0
 26 86  1  0
 27 87  1  0
 28 29  1  0
 28 50  1  0
 28 88  1  1
 29 38  1  0
 29 30  1  6
 29 31  1  0
 30 89  1  0
 31 32  1  0
 31 36  1  0
 31 90  1  1
 32 33  1  0
 33 34  1  0
 33 35  2  0
 34 91  1  0
 34 92  1  0
 34 93  1  0
 36 37  1  0
 36 38  1  0
 36 94  1  6
 37 95  1  0
 37 96  1  0
 37 97  1  0
 38 39  1  0
 38 98  1  1
 39 40  1  0
 39 44  1  0
 39 99  1  6
 40 41  1  0
 42 41  1  1
 41100  1  0
 41101  1  0
 42 43  2  0
 44 45  1  6
 44 46  1  0
 45102  1  0
 46 47  1  0
 46103  1  0
 46104  1  0
 47 48  1  0
 47105  1  0
 47106  1  0
 48 49  1  6
 49107  1  0
 50 51  1  1
 51 52  1  0
 51 53  2  0
M  CHG  1  52  -1
M  END
>  <i_m_ct_stereo_status>  (117) 
1

>  <s_m_source_file>  (117) 
/var/tmp/pbs.5075288.sched01/tmpqqnbnjfs/192vg5g1vka.sdf

>  <i_m_source_file_index>  (117) 
41

>  <i_lp_mmshare_version>  (117) 
48012

>  <i_f3d_flags>  (117) 
0

>  <s_epik_input>  (117) 
W09IXVtDQEBIXTFbQ0gyXVtDQF0oTzIpKFtDSDNdKVtDSDJdW0NIMl1bQ0BdMihPW0NIM10pW0NAQF0zKFtPSF0pW0NIMl1bQ0gyXVtDQEBdNChbT0hdKVtDQEhdKE9bQ0gyXVtTK101W08tXSlbQ0BASF0oW0NASF0oW0NIM10pW0NAQEhdNk9DKD1PKVtDSDNdKVtDQF02KFtPSF0pW0NAQEhdN1tDQF0oW0NIM10pKFtPSF0pW0NASF0oW09IXSlbQ0BdKFtDQEBIXShbQ0gyXTgpW09IXSkoW0NIMl1bT0hdKVtDQF03KEMoPU8pW09IXSlbQ0BAXTgoW0NIM10pT1tDSDJdW0NAQEhdNVtDQF0xMzQ=

>  <s_epik_cmdline>  (117) 
J2VwaWtfcHl0aG9uJywgJy1waHQnLCAnMi4wJywgJy1waCcsICc3LjAnLCAnLXRuJywgJzgnLCAnLW1hJywgJzIwMCcsICctaW1hZScsICc8aW5maWxlLm1hZT4nLCAnLW9tYWUnLCAnPG91dGZpbGUubWFlPic=

>  <r_epik_Ionization_Penalty>  (117) 
0.000709942

>  <r_epik_Ionization_Penalty_Charging>  (117) 
0.000708801

>  <r_epik_Ionization_Penalty_Neutral>  (117) 
1.14186e-06

>  <r_epik_State_Penalty>  (117) 
0.000451457

>  <r_epik_Charging_Adjusted_Penalty>  (117) 
0.00116026

>  <i_epik_Tot_Q>  (117) 
-1

>  <i_epik_Tot_abs_Q>  (117) 
3

>  <s_epik_Chemistry_Notes>  (117) 
This compound has an ester and may undergo hydrolysis at high or low pH. This compound contains an acetal/aminal-like group ( X-CH(R)-Y where X, Y are N, S, or O) that may be acid/base labile, releasing an aldehyde.

>  <s_lp_Force_Field>  (117) 
OPLS3e

>  <r_lp_Energy>  (117) 
193.383

>  <b_lp_Chiralities_Consistent>  (117) 
1

>  <s_lp_Variant>  (117) 
90:0-1

>  <s_i_glide_gridfile>  (117) 
pfpi4k_grid

>  <i_i_glide_lignum>  (117) 
41

>  <i_i_glide_rotatable_bonds>  (117) 
13

>  <r_i_docking_score>  (117) 
-5.26817

>  <r_i_glide_ligand_efficiency>  (117) 
-0.0975588

>  <r_i_glide_ligand_efficiency_sa>  (117) 
-0.368749

>  <r_i_glide_ligand_efficiency_ln>  (117) 
-1.05596

>  <r_i_glide_gscore>  (117) 
-5.26817

>  <r_i_glide_lipo>  (117) 
-0.283785

>  <r_i_glide_hbond>  (117) 
-0.163495

>  <r_i_glide_metal>  (117) 
-0

>  <r_i_glide_rewards>  (117) 
-1.63117

>  <r_i_glide_evdw>  (117) 
-19.2745

>  <r_i_glide_ecoul>  (117) 
-15.6227

>  <r_i_glide_erotb>  (117) 
0.0697144

>  <r_i_glide_esite>  (117) 
-0.0919625

>  <r_i_glide_emodel>  (117) 
-55.0045

>  <r_i_glide_energy>  (117) 
-34.8972

>  <r_i_glide_einternal>  (117) 
13.5257

>  <r_i_glide_intrahb_reward>  (117) 
-1.5

>  <i_i_glide_confnum>  (117) 
5

>  <i_i_glide_posenum>  (117) 
1

>  <r_i_glide_eff_state_penalty>  (117) 
0

>  <ligand_id>  (117) 
90

>  <original_smiles>  (117) 
COC12CCC(C)(CC(O)C34C5COC6(C)CC(O)C7(CO)C(O)C(C)(O)C(C8(O)C(OC(C)=O)C(C)C8C(OC[S+]5[O-])C3(O)CCC14O)C67C(=O)O)O2

>  <smiles>  (117) 
[H]OC([H])([H])C12C([H])(O[H])C([H])([H])C3(C([H])([H])[H])OC([H])([H])C4([H])S(=O)C([H])([H])OC([H])(C5([H])C([H])(C([H])([H])[H])C([H])(OC(=O)C([H])([H])[H])C5(O[H])C([H])(C(O[H])(C([H])([H])[H])C1([H])O[H])C32C(=O)[O-])C1(O[H])C([H])([H])C([H])([H])C2(O[H])C3(OC([H])([H])[H])OC(C([H])([H])[H])(C([H])([H])C3([H])[H])C([H])([H])C([H])(O[H])C412

$$$$
90:0:2
     RDKit          3D

107114  0  0  1  0  0  0  0  0999 V2000
   -2.1634    4.1963    3.0603 C   0  0  0  0  0  0  0  0  0  0  0  0
   -1.8873    4.1420    4.4562 O   0  0  0  0  0  0  0  0  0  0  0  0
   -0.5627    4.0489    4.9355 C   0  0  1  0  0  0  0  0  0  0  0  0
   -0.7082    4.3460    6.4414 C   0  0  0  0  0  0  0  0  0  0  0  0
    0.0596    5.6217    6.6701 C   0  0  0  0  0  0  0  0  0  0  0  0
    0.9623    5.6924    5.4447 C   0  0  1  0  0  0  0  0  0  0  0  0
    1.2411    7.1468    5.0222 C   0  0  0  0  0  0  0  0  0  0  0  0
    2.2485    4.8682    5.6258 C   0  0  0  0  0  0  0  0  0  0  0  0
    2.3864    3.6159    4.7146 C   0  0  1  0  0  0  0  0  0  0  0  0
    3.7715    3.4797    4.5411 O   0  0  0  0  0  0  0  0  0  0  0  0
    1.5643    2.2864    5.1281 C   0  0  2  0  0  0  0  0  0  0  0  0
    1.8050    1.9025    6.6515 C   0  0  1  0  0  0  0  0  0  0  0  0
    1.0673    0.6857    7.3030 C   0  0  0  0  0  0  0  0  0  0  0  0
    1.4151   -0.6059    6.7862 O   0  0  0  0  0  0  0  0  0  0  0  0
    1.9181   -1.6663    7.5920 C   0  0  1  0  0  0  0  0  0  0  0  0
    3.0970   -1.1414    8.4802 C   0  0  0  0  0  0  0  0  0  0  0  0
    0.7963   -2.1354    8.5877 C   0  0  0  0  0  0  0  0  0  0  0  0
    0.3693   -3.5697    8.2017 C   0  0  1  0  0  0  0  0  0  0  0  0
   -1.0059   -3.8165    8.3751 O   0  0  0  0  0  0  0  0  0  0  0  0
    0.7945   -3.6735    6.7265 C   0  0  2  0  0  0  0  0  0  0  0  0
   -0.3250   -3.0247    5.7981 C   0  0  0  0  0  0  0  0  0  0  0  0
   -0.8690   -1.7427    6.0968 O   0  0  0  0  0  0  0  0  0  0  0  0
    1.1050   -5.0820    6.1681 C   0  0  1  0  0  0  0  0  0  0  0  0
   -0.0523   -5.8344    5.8533 O   0  0  0  0  0  0  0  0  0  0  0  0
    2.0974   -4.8127    4.9837 C   0  0  1  0  0  0  0  0  0  0  0  0
    3.2357   -5.8763    4.9530 C   0  0  0  0  0  0  0  0  0  0  0  0
    1.3404   -5.0180    3.8139 O   0  0  0  0  0  0  0  0  0  0  0  0
    2.6441   -3.3055    5.1258 C   0  0  1  0  0  0  0  0  0  0  0  0
    2.6954   -2.4098    3.7777 C   0  0  2  0  0  0  0  0  0  0  0  0
    1.4523   -2.3407    3.1208 O   0  0  0  0  0  0  0  0  0  0  0  0
    3.8299   -2.9381    2.8323 C   0  0  1  0  0  0  0  0  0  0  0  0
    3.5710   -2.8706    1.4281 O   0  0  0  0  0  0  0  0  0  0  0  0
    3.0891   -3.9593    0.7743 C   0  0  0  0  0  0  0  0  0  0  0  0
    2.9542   -3.7130   -0.7306 C   0  0  0  0  0  0  0  0  0  0  0  0
    2.8152   -5.0312    1.2615 O   0  0  0  0  0  0  0  0  0  0  0  0
    4.6962   -1.7559    3.3338 C   0  0  1  0  0  0  0  0  0  0  0  0
    5.7784   -1.1358    2.4442 C   0  0  0  0  0  0  0  0  0  0  0  0
    3.3827   -1.0236    3.5240 C   0  0  2  0  0  0  0  0  0  0  0  0
    3.1815    0.1466    4.4780 C   0  0  1  0  0  0  0  0  0  0  0  0
    4.3530    0.9128    4.5496 O   0  0  0  0  0  0  0  0  0  0  0  0
    4.7693    1.0555    5.9090 C   0  0  0  0  0  0  0  0  0  0  0  0
    3.6159    1.8543    7.1662 S   0  0  0  0  0  0  0  0  0  0  0  0
    4.1340    3.2450    7.5132 O   0  0  0  0  0  0  0  0  0  0  0  0
    1.8878    1.0098    4.2188 C   0  0  1  0  0  0  0  0  0  0  0  0
    0.9079   -0.0088    4.3330 O   0  0  0  0  0  0  0  0  0  0  0  0
    1.5256    1.5125    2.8259 C   0  0  0  0  0  0  0  0  0  0  0  0
    0.2532    2.3646    3.0756 C   0  0  0  0  0  0  0  0  0  0  0  0
    0.0727    2.6198    4.6154 C   0  0  2  0  0  0  0  0  0  0  0  0
   -0.9171    1.7233    5.1011 O   0  0  0  0  0  0  0  0  0  0  0  0
    2.1992   -2.9780    6.6811 C   0  0  1  0  0  0  0  0  0  0  0  0
    3.3291   -3.7267    7.4926 C   0  0  0  0  0  0  0  0  0  0  0  0
    3.0841   -4.6408    8.2989 O   0  0  0  0  0  0  0  0  0  0  0  0
    4.5077   -3.3319    7.3027 O   0  0  0  0  0  0  0  0  0  0  0  0
    0.1951    5.0941    4.4162 O   0  0  0  0  0  0  0  0  0  0  0  0
   -3.0985    4.7270    2.8923 H   0  0  0  0  0  0  0  0  0  0  0  0
   -2.3178    3.1920    2.6721 H   0  0  0  0  0  0  0  0  0  0  0  0
   -1.3946    4.7099    2.4838 H   0  0  0  0  0  0  0  0  0  0  0  0
   -1.7483    4.4903    6.7101 H   0  0  0  0  0  0  0  0  0  0  0  0
   -0.3668    3.5172    7.0417 H   0  0  0  0  0  0  0  0  0  0  0  0
   -0.6259    6.4663    6.6801 H   0  0  0  0  0  0  0  0  0  0  0  0
    0.5987    5.6404    7.6195 H   0  0  0  0  0  0  0  0  0  0  0  0
    1.8066    7.6891    5.7838 H   0  0  0  0  0  0  0  0  0  0  0  0
    0.3079    7.6855    4.8463 H   0  0  0  0  0  0  0  0  0  0  0  0
    1.8069    7.1842    4.0873 H   0  0  0  0  0  0  0  0  0  0  0  0
    3.0706    5.5414    5.3791 H   0  0  0  0  0  0  0  0  0  0  0  0
    2.4080    4.6430    6.6768 H   0  0  0  0  0  0  0  0  0  0  0  0
    2.1031    3.9695    3.7235 H   0  0  0  0  0  0  0  0  0  0  0  0
    3.9394    3.0173    3.7272 H   0  0  0  0  0  0  0  0  0  0  0  0
    1.4608    2.7402    7.2571 H   0  0  0  0  0  0  0  0  0  0  0  0
    1.1409    0.7242    8.3844 H   0  0  0  0  0  0  0  0  0  0  0  0
    0.0052    0.7699    7.1368 H   0  0  0  0  0  0  0  0  0  0  0  0
    3.3836   -1.8584    9.2547 H   0  0  0  0  0  0  0  0  0  0  0  0
    2.8485   -0.2549    9.0476 H   0  0  0  0  0  0  0  0  0  0  0  0
    3.9920   -0.9381    7.9022 H   0  0  0  0  0  0  0  0  0  0  0  0
    1.1259   -2.1258    9.6292 H   0  0  0  0  0  0  0  0  0  0  0  0
   -0.0529   -1.4569    8.5615 H   0  0  0  0  0  0  0  0  0  0  0  0
    0.8714   -4.2963    8.8503 H   0  0  0  0  0  0  0  0  0  0  0  0
   -1.1129   -4.7622    8.3043 H   0  0  0  0  0  0  0  0  0  0  0  0
   -0.0021   -2.9694    4.7794 H   0  0  0  0  0  0  0  0  0  0  0  0
   -1.1820   -3.6944    5.7403 H   0  0  0  0  0  0  0  0  0  0  0  0
   -0.1455   -1.1161    6.1384 H   0  0  0  0  0  0  0  0  0  0  0  0
    1.5852   -5.7383    6.8877 H   0  0  0  0  0  0  0  0  0  0  0  0
    0.2445   -6.6838    5.5523 H   0  0  0  0  0  0  0  0  0  0  0  0
    3.8600   -5.8711    5.8426 H   0  0  0  0  0  0  0  0  0  0  0  0
    3.9212   -5.7518    4.1211 H   0  0  0  0  0  0  0  0  0  0  0  0
    2.8539   -6.8881    4.8846 H   0  0  0  0  0  0  0  0  0  0  0  0
    1.4427   -5.9418    3.6169 H   0  0  0  0  0  0  0  0  0  0  0  0
    3.7122   -3.4958    5.1819 H   0  0  0  0  0  0  0  0  0  0  0  0
    1.6816   -2.1252    2.2264 H   0  0  0  0  0  0  0  0  0  0  0  0
    4.3121   -3.8641    3.1521 H   0  0  0  0  0  0  0  0  0  0  0  0
    2.3608   -2.8220   -0.9414 H   0  0  0  0  0  0  0  0  0  0  0  0
    2.4402   -4.5790   -1.1446 H   0  0  0  0  0  0  0  0  0  0  0  0
    3.9476   -3.6410   -1.1804 H   0  0  0  0  0  0  0  0  0  0  0  0
    5.0730   -1.9677    4.3328 H   0  0  0  0  0  0  0  0  0  0  0  0
    5.3969   -0.8253    1.4647 H   0  0  0  0  0  0  0  0  0  0  0  0
    6.6083   -1.8163    2.2594 H   0  0  0  0  0  0  0  0  0  0  0  0
    6.2051   -0.2431    2.9086 H   0  0  0  0  0  0  0  0  0  0  0  0
    3.1210   -0.6794    2.5255 H   0  0  0  0  0  0  0  0  0  0  0  0
    3.1034   -0.3496    5.4272 H   0  0  0  0  0  0  0  0  0  0  0  0
    5.0214    0.0670    6.2922 H   0  0  0  0  0  0  0  0  0  0  0  0
    5.7010    1.6163    5.9325 H   0  0  0  0  0  0  0  0  0  0  0  0
    1.0982   -0.7290    3.7357 H   0  0  0  0  0  0  0  0  0  0  0  0
    2.3230    2.1412    2.4240 H   0  0  0  0  0  0  0  0  0  0  0  0
    1.3331    0.7309    2.0839 H   0  0  0  0  0  0  0  0  0  0  0  0
    0.4048    3.3021    2.5420 H   0  0  0  0  0  0  0  0  0  0  0  0
   -0.6113    1.8615    2.6353 H   0  0  0  0  0  0  0  0  0  0  0  0
   -1.7106    1.8979    4.6103 H   0  0  0  0  0  0  0  0  0  0  0  0
  1  2  1  0
  1 55  1  0
  1 56  1  0
  1 57  1  0
  3  2  1  6
  3 48  1  0
  3 54  1  0
  3  4  1  0
  4  5  1  0
  4 58  1  0
  4 59  1  0
  5  6  1  0
  5 60  1  0
  5 61  1  0
  6  7  1  6
  6  8  1  0
  6 54  1  0
  7 62  1  0
  7 63  1  0
  7 64  1  0
  8  9  1  0
  8 65  1  0
  8 66  1  0
  9 10  1  0
  9 11  1  0
  9 67  1  6
 10 68  1  0
 11 44  1  0
 11 48  1  1
 11 12  1  0
 12 42  1  0
 12 13  1  0
 12 69  1  1
 13 14  1  0
 13 70  1  0
 13 71  1  0
 14 15  1  0
 15 50  1  0
 15 16  1  1
 15 17  1  0
 16 72  1  0
 16 73  1  0
 16 74  1  0
 17 18  1  0
 17 75  1  0
 17 76  1  0
 18 19  1  0
 18 20  1  0
 18 77  1  1
 19 78  1  0
 20 50  1  0
 20 21  1  6
 20 23  1  0
 21 22  1  0
 21 79  1  0
 21 80  1  0
 22 81  1  0
 23 24  1  0
 23 25  1  0
 23 82  1  1
 24 83  1  0
 25 26  1  0
 25 27  1  6
 25 28  1  0
 26 84  1  0
 26 85  1  0
 26 86  1  0
 27 87  1  0
 28 29  1  0
 28 50  1  0
 28 88  1  1
 29 38  1  0
 29 30  1  6
 29 31  1  0
 30 89  1  0
 31 32  1  0
 31 36  1  0
 31 90  1  1
 32 33  1  0
 33 34  1  0
 33 35  2  0
 34 91  1  0
 34 92  1  0
 34 93  1  0
 36 37  1  0
 36 38  1  0
 36 94  1  1
 37 95  1  0
 37 96  1  0
 37 97  1  0
 38 39  1  0
 38 98  1  6
 39 40  1  0
 39 44  1  0
 39 99  1  1
 40 41  1  0
 42 41  1  6
 41100  1  0
 41101  1  0
 42 43  2  0
 44 45  1  1
 44 46  1  0
 45102  1  0
 46 47  1  0
 46103  1  0
 46104  1  0
 47 48  1  0
 47105  1  0
 47106  1  0
 48 49  1  1
 49107  1  0
 50 51  1  1
 51 52  1  0
 51 53  2  0
M  CHG  1  52  -1
M  END
>  <i_m_ct_stereo_status>  (118) 
1

>  <s_m_source_file>  (118) 
/var/tmp/pbs.5075288.sched01/tmpqqnbnjfs/192vg5g1vka.sdf

>  <i_m_source_file_index>  (118) 
41

>  <i_lp_mmshare_version>  (118) 
48012

>  <i_f3d_flags>  (118) 
0

>  <s_epik_input>  (118) 
W09IXVtDQEBIXTFbQ0gyXVtDQF0oTzIpKFtDSDNdKVtDSDJdW0NIMl1bQ0BdMihPW0NIM10pW0NAQF0zKFtPSF0pW0NIMl1bQ0gyXVtDQEBdNChbT0hdKVtDQEhdKE9bQ0gyXVtTK101W08tXSlbQ0BASF0oW0NASF0oW0NIM10pW0NAQEhdNk9DKD1PKVtDSDNdKVtDQF02KFtPSF0pW0NAQEhdN1tDQF0oW0NIM10pKFtPSF0pW0NASF0oW09IXSlbQ0BdKFtDQEBIXShbQ0gyXTgpW09IXSkoW0NIMl1bT0hdKVtDQF03KEMoPU8pW09IXSlbQ0BAXTgoW0NIM10pT1tDSDJdW0NAQEhdNVtDQF0xMzQ=

>  <s_epik_cmdline>  (118) 
J2VwaWtfcHl0aG9uJywgJy1waHQnLCAnMi4wJywgJy1waCcsICc3LjAnLCAnLXRuJywgJzgnLCAnLW1hJywgJzIwMCcsICctaW1hZScsICc8aW5maWxlLm1hZT4nLCAnLW9tYWUnLCAnPG91dGZpbGUubWFlPic=

>  <r_epik_Ionization_Penalty>  (118) 
0.000709942

>  <r_epik_Ionization_Penalty_Charging>  (118) 
0.000708801

>  <r_epik_Ionization_Penalty_Neutral>  (118) 
1.14186e-06

>  <r_epik_State_Penalty>  (118) 
0.000451457

>  <r_epik_Charging_Adjusted_Penalty>  (118) 
0.00116026

>  <i_epik_Tot_Q>  (118) 
-1

>  <i_epik_Tot_abs_Q>  (118) 
3

>  <s_epik_Chemistry_Notes>  (118) 
This compound has an ester and may undergo hydrolysis at high or low pH. This compound contains an acetal/aminal-like group ( X-CH(R)-Y where X, Y are N, S, or O) that may be acid/base labile, releasing an aldehyde.

>  <s_lp_Force_Field>  (118) 
OPLS3e

>  <r_lp_Energy>  (118) 
193.383

>  <b_lp_Chiralities_Consistent>  (118) 
1

>  <s_lp_Variant>  (118) 
90:0-1

>  <s_i_glide_gridfile>  (118) 
pfpi4k_grid

>  <i_i_glide_lignum>  (118) 
41

>  <i_i_glide_rotatable_bonds>  (118) 
13

>  <r_i_docking_score>  (118) 
-4.04358

>  <r_i_glide_ligand_efficiency>  (118) 
-0.0748811

>  <r_i_glide_ligand_efficiency_sa>  (118) 
-0.283033

>  <r_i_glide_ligand_efficiency_ln>  (118) 
-0.810502

>  <r_i_glide_gscore>  (118) 
-4.04358

>  <r_i_glide_lipo>  (118) 
-0.168191

>  <r_i_glide_hbond>  (118) 
-0.0305115

>  <r_i_glide_metal>  (118) 
-0

>  <r_i_glide_rewards>  (118) 
-1.5

>  <r_i_glide_evdw>  (118) 
-27.8508

>  <r_i_glide_ecoul>  (118) 
-6.5389

>  <r_i_glide_erotb>  (118) 
0.0697144

>  <r_i_glide_esite>  (118) 
-0.0412199

>  <r_i_glide_emodel>  (118) 
-56.6452

>  <r_i_glide_energy>  (118) 
-34.3897

>  <r_i_glide_einternal>  (118) 
5.94019

>  <r_i_glide_intrahb_reward>  (118) 
-1.5

>  <i_i_glide_confnum>  (118) 
1

>  <i_i_glide_posenum>  (118) 
27

>  <r_i_glide_eff_state_penalty>  (118) 
0

>  <ligand_id>  (118) 
90

>  <original_smiles>  (118) 
COC12CCC(C)(CC(O)C34C5COC6(C)CC(O)C7(CO)C(O)C(C)(O)C(C8(O)C(OC(C)=O)C(C)C8C(OC[S+]5[O-])C3(O)CCC14O)C67C(=O)O)O2

>  <smiles>  (118) 
[H]OC([H])([H])C12C([H])(O[H])C([H])([H])C3(C([H])([H])[H])OC([H])([H])C4([H])S(=O)C([H])([H])OC([H])(C5([H])C([H])(C([H])([H])[H])C([H])(OC(=O)C([H])([H])[H])C5(O[H])C([H])(C(O[H])(C([H])([H])[H])C1([H])O[H])C32C(=O)[O-])C1(O[H])C([H])([H])C([H])([H])C2(O[H])C3(OC([H])([H])[H])OC(C([H])([H])[H])(C([H])([H])C3([H])[H])C([H])([H])C([H])(O[H])C412

$$$$
96:0:0
     RDKit          3D

119125  0  0  1  0  0  0  0  0999 V2000
   -1.5755    0.4529    5.6670 C   0  0  0  0  0  0  0  0  0  0  0  0
   -0.8406    1.5434    5.3542 C   0  0  0  0  0  0  0  0  0  0  0  0
   -1.3296    3.0078    5.6354 C   0  0  1  0  0  0  0  0  0  0  0  0
   -1.6183    3.6656    4.4208 O   0  0  0  0  0  0  0  0  0  0  0  0
   -2.6695    3.1006    6.4165 C   0  0  0  0  0  0  0  0  0  0  0  0
   -2.6569    2.4488    7.6694 O   0  0  0  0  0  0  0  0  0  0  0  0
   -0.2407    3.8740    6.3488 C   0  0  0  0  0  0  0  0  0  0  0  0
    1.2551    3.5701    6.0278 C   0  0  1  0  0  0  0  0  0  0  0  0
    1.9617    4.3333    6.9628 O   0  0  0  0  0  0  0  0  0  0  0  0
    1.4576    2.0066    6.0308 C   0  0  1  0  0  0  0  0  0  0  0  0
    0.6126    1.4379    4.8144 C   0  0  2  0  0  0  0  0  0  0  0  0
    0.6462    2.2993    3.6819 O   0  0  0  0  0  0  0  0  0  0  0  0
    1.0781    0.0473    4.1632 C   0  0  1  0  0  0  0  0  0  0  0  0
    0.0173   -0.3632    3.3181 O   0  0  0  0  0  0  0  0  0  0  0  0
    2.4722   -0.0229    3.3497 C   0  0  1  0  0  0  0  0  0  0  0  0
    2.1342    0.6566    2.1365 O   0  0  0  0  0  0  0  0  0  0  0  0
    3.5327    0.9821    3.9688 C   0  0  1  0  0  0  0  0  0  0  0  0
    3.3579    2.3474    3.6172 O   0  0  0  0  0  0  0  0  0  0  0  0
    3.8782    0.8177    5.4678 C   0  0  2  0  0  0  0  0  0  0  0  0
    5.2830    1.4474    5.7105 C   0  0  0  0  0  0  0  0  0  0  0  0
    4.2259   -0.5237    5.4008 O   0  0  0  0  0  0  0  0  0  0  0  0
    3.6716   -1.5207    6.1743 C   0  0  2  0  0  0  0  0  0  0  0  0
    2.3923   -1.2350    6.5813 O   0  0  0  0  0  0  0  0  0  0  0  0
    2.2051   -0.0744    7.2914 C   0  0  1  0  0  0  0  0  0  0  0  0
    2.5993   -0.1763    8.6424 O   0  0  0  0  0  0  0  0  0  0  0  0
    1.8848   -1.0866    9.4746 C   0  0  0  0  0  0  0  0  0  0  0  0
    0.4420   -0.5984    9.7336 C   0  0  0  0  0  0  0  0  0  0  0  0
    2.6548   -1.2193   10.8004 C   0  0  0  0  0  0  0  0  0  0  0  0
    2.7675    1.2328    6.5660 C   0  0  2  0  0  0  0  0  0  0  0  0
    3.4496    2.0488    7.7098 C   0  0  0  0  0  0  0  0  0  0  0  0
    4.6416   -1.7330    7.3495 C   0  0  1  0  0  0  0  0  0  0  0  0
    4.6141   -3.1989    7.7383 C   0  0  0  0  0  0  0  0  0  0  0  0
    4.9153   -3.4355    6.2360 C   0  0  2  0  0  0  0  0  0  0  0  0
    6.2185   -2.1741    6.5156 S   0  0  0  0  0  0  0  0  0  0  0  0
    7.2773   -2.6840    7.5119 O   0  0  0  0  0  0  0  0  0  0  0  0
    3.7393   -2.8494    5.3265 C   0  0  1  0  0  0  0  0  0  0  0  0
    2.6048   -3.9872    5.3493 C   0  0  1  0  0  0  0  0  0  0  0  0
    2.7625   -4.9824    6.3653 O   0  0  0  0  0  0  0  0  0  0  0  0
    1.1183   -3.5069    5.5429 C   0  0  0  0  0  0  0  0  0  0  0  0
    0.3526   -3.2562    4.6051 O   0  0  0  0  0  0  0  0  0  0  0  0
    0.7529   -3.4513    6.8325 O   0  0  0  0  0  0  0  0  0  0  0  0
   -0.5747   -3.1145    7.1838 C   0  0  0  0  0  0  0  0  0  0  0  0
    2.9146   -4.8290    4.0682 C   0  0  1  0  0  0  0  0  0  0  0  0
    1.7647   -5.2435    3.3052 O   0  0  0  0  0  0  0  0  0  0  0  0
    1.2467   -6.4927    3.4112 C   0  0  0  0  0  0  0  0  0  0  0  0
    1.5123   -7.2998    4.2951 O   0  0  0  0  0  0  0  0  0  0  0  0
    0.2328   -6.8207    2.2837 C   0  0  0  0  0  0  0  0  0  0  0  0
   -0.3774   -8.2312    2.4014 C   0  0  0  0  0  0  0  0  0  0  0  0
    0.8617   -6.6213    0.8936 C   0  0  0  0  0  0  0  0  0  0  0  0
    3.9969   -4.1074    3.1840 C   0  0  0  0  0  0  0  0  0  0  0  0
    5.3913   -4.8124    3.3241 C   0  0  0  0  0  0  0  0  0  0  0  0
    3.7483   -4.4034    1.6775 C   0  0  0  0  0  0  0  0  0  0  0  0
    3.9940   -2.5877    3.7211 C   0  0  2  0  0  0  0  0  0  0  0  0
    5.3227   -2.1244    3.5832 O   0  0  0  0  0  0  0  0  0  0  0  0
    3.0915   -1.4982    2.8248 C   0  0  1  0  0  0  0  0  0  0  0  0
    1.9189   -2.2376    2.6218 O   0  0  0  0  0  0  0  0  0  0  0  0
    3.7388   -1.2714    1.3965 C   0  0  0  0  0  0  0  0  0  0  0  0
    3.2837   -1.8218    0.2525 C   0  0  0  0  0  0  0  0  0  0  0  0
    4.9449   -0.3318    1.2306 C   0  0  0  0  0  0  0  0  0  0  0  0
   -1.1963   -0.5469    5.5240 H   0  0  0  0  0  0  0  0  0  0  0  0
   -2.5747    0.5314    6.0600 H   0  0  0  0  0  0  0  0  0  0  0  0
   -0.8765    3.5033    3.8333 H   0  0  0  0  0  0  0  0  0  0  0  0
   -2.9331    4.1478    6.5802 H   0  0  0  0  0  0  0  0  0  0  0  0
   -3.4757    2.6833    5.8120 H   0  0  0  0  0  0  0  0  0  0  0  0
   -2.0493    2.9202    8.2534 H   0  0  0  0  0  0  0  0  0  0  0  0
   -0.4514    4.9349    6.1858 H   0  0  0  0  0  0  0  0  0  0  0  0
   -0.3679    3.7409    7.4240 H   0  0  0  0  0  0  0  0  0  0  0  0
    1.5343    4.0150    5.0716 H   0  0  0  0  0  0  0  0  0  0  0  0
    2.8926    4.2730    6.7391 H   0  0  0  0  0  0  0  0  0  0  0  0
    0.8566    1.8497    6.9300 H   0  0  0  0  0  0  0  0  0  0  0  0
    1.5390    2.2718    3.3217 H   0  0  0  0  0  0  0  0  0  0  0  0
    1.0591   -0.7018    4.9352 H   0  0  0  0  0  0  0  0  0  0  0  0
   -0.0816    0.3159    2.6413 H   0  0  0  0  0  0  0  0  0  0  0  0
    1.5604    0.0963    1.6090 H   0  0  0  0  0  0  0  0  0  0  0  0
    4.4600    0.7568    3.4496 H   0  0  0  0  0  0  0  0  0  0  0  0
    4.0160    2.5604    2.9501 H   0  0  0  0  0  0  0  0  0  0  0  0
    5.2750    2.5368    5.6754 H   0  0  0  0  0  0  0  0  0  0  0  0
    6.0026    1.1164    4.9550 H   0  0  0  0  0  0  0  0  0  0  0  0
    5.7115    1.1293    6.6601 H   0  0  0  0  0  0  0  0  0  0  0  0
    1.1238   -0.0968    7.3006 H   0  0  0  0  0  0  0  0  0  0  0  0
    1.8605   -2.0694    8.9990 H   0  0  0  0  0  0  0  0  0  0  0  0
   -0.0813   -1.2682   10.4140 H   0  0  0  0  0  0  0  0  0  0  0  0
   -0.1573   -0.5345    8.8287 H   0  0  0  0  0  0  0  0  0  0  0  0
    0.4465    0.3883   10.1933 H   0  0  0  0  0  0  0  0  0  0  0  0
    2.1364   -1.8830   11.4967 H   0  0  0  0  0  0  0  0  0  0  0  0
    2.7701   -0.2515   11.2964 H   0  0  0  0  0  0  0  0  0  0  0  0
    3.6541   -1.6310   10.6412 H   0  0  0  0  0  0  0  0  0  0  0  0
    4.2252    1.4811    8.2338 H   0  0  0  0  0  0  0  0  0  0  0  0
    2.7186    2.3448    8.4705 H   0  0  0  0  0  0  0  0  0  0  0  0
    3.9375    2.9544    7.3571 H   0  0  0  0  0  0  0  0  0  0  0  0
    4.7796   -0.9689    8.1083 H   0  0  0  0  0  0  0  0  0  0  0  0
    5.3817   -3.5148    8.4620 H   0  0  0  0  0  0  0  0  0  0  0  0
    3.6573   -3.4874    8.1204 H   0  0  0  0  0  0  0  0  0  0  0  0
    5.2885   -4.4427    6.0615 H   0  0  0  0  0  0  0  0  0  0  0  0
    3.6358   -5.3823    6.2510 H   0  0  0  0  0  0  0  0  0  0  0  0
   -0.7648   -3.4158    8.2142 H   0  0  0  0  0  0  0  0  0  0  0  0
   -1.3004   -3.6156    6.5392 H   0  0  0  0  0  0  0  0  0  0  0  0
   -0.7108   -2.0368    7.1020 H   0  0  0  0  0  0  0  0  0  0  0  0
    3.4062   -5.7577    4.3767 H   0  0  0  0  0  0  0  0  0  0  0  0
   -0.6013   -6.1279    2.3841 H   0  0  0  0  0  0  0  0  0  0  0  0
   -0.8745   -8.3774    3.3632 H   0  0  0  0  0  0  0  0  0  0  0  0
    0.3788   -9.0130    2.2870 H   0  0  0  0  0  0  0  0  0  0  0  0
   -1.1284   -8.3930    1.6233 H   0  0  0  0  0  0  0  0  0  0  0  0
    1.1986   -5.6010    0.7294 H   0  0  0  0  0  0  0  0  0  0  0  0
    0.1529   -6.8542    0.0978 H   0  0  0  0  0  0  0  0  0  0  0  0
    1.7278   -7.2713    0.7741 H   0  0  0  0  0  0  0  0  0  0  0  0
    6.0523   -4.5174    2.5075 H   0  0  0  0  0  0  0  0  0  0  0  0
    5.2915   -5.8963    3.2556 H   0  0  0  0  0  0  0  0  0  0  0  0
    5.9710   -4.5877    4.2103 H   0  0  0  0  0  0  0  0  0  0  0  0
    4.4607   -3.8791    1.0503 H   0  0  0  0  0  0  0  0  0  0  0  0
    2.7519   -4.1378    1.3404 H   0  0  0  0  0  0  0  0  0  0  0  0
    3.8770   -5.4764    1.4810 H   0  0  0  0  0  0  0  0  0  0  0  0
    5.3638   -1.2501    3.9662 H   0  0  0  0  0  0  0  0  0  0  0  0
    1.3974   -1.7904    1.9534 H   0  0  0  0  0  0  0  0  0  0  0  0
    2.4122   -2.4556    0.2000 H   0  0  0  0  0  0  0  0  0  0  0  0
    3.7954   -1.6200   -0.6808 H   0  0  0  0  0  0  0  0  0  0  0  0
    5.7052   -0.3667    2.0000 H   0  0  0  0  0  0  0  0  0  0  0  0
    4.5570    0.6865    1.1712 H   0  0  0  0  0  0  0  0  0  0  0  0
    5.4462   -0.5031    0.2816 H   0  0  0  0  0  0  0  0  0  0  0  0
  1  2  2  0
  1 60  1  0
  1 61  1  0
  2 11  1  0
  2  3  1  0
  3  4  1  6
  3  5  1  0
  3  7  1  0
  4 62  1  0
  5  6  1  0
  5 63  1  0
  5 64  1  0
  6 65  1  0
  7  8  1  0
  7 66  1  0
  7 67  1  0
  8  9  1  0
  8 10  1  0
  8 68  1  6
  9 69  1  0
 10 29  1  0
 10 11  1  0
 10 70  1  1
 11 12  1  6
 11 13  1  0
 12 71  1  0
 13 14  1  0
 13 15  1  0
 13 72  1  1
 14 73  1  0
 15 55  1  0
 15 16  1  6
 15 17  1  0
 16 74  1  0
 17 18  1  0
 17 19  1  0
 17 75  1  6
 18 76  1  0
 19 29  1  0
 19 20  1  1
 19 21  1  0
 20 77  1  0
 20 78  1  0
 20 79  1  0
 21 22  1  0
 22 36  1  0
 22 23  1  1
 22 31  1  0
 23 24  1  0
 24 25  1  0
 24 29  1  0
 24 80  1  1
 25 26  1  0
 26 27  1  0
 26 28  1  0
 26 81  1  0
 27 82  1  0
 27 83  1  0
 27 84  1  0
 28 85  1  0
 28 86  1  0
 28 87  1  0
 29 30  1  1
 30 88  1  0
 30 89  1  0
 30 90  1  0
 34 31  1  1
 31 32  1  0
 31 91  1  1
 32 33  1  0
 32 92  1  0
 32 93  1  0
 33 34  1  0
 33 36  1  0
 33 94  1  1
 34 35  2  0
 36 53  1  0
 36 37  1  6
 37 38  1  1
 37 39  1  0
 37 43  1  0
 38 95  1  0
 39 40  2  0
 39 41  1  0
 41 42  1  0
 42 96  1  0
 42 97  1  0
 42 98  1  0
 43 44  1  0
 43 50  1  0
 43 99  1  1
 44 45  1  0
 45 46  2  0
 45 47  1  0
 47 48  1  0
 47 49  1  0
 47100  1  0
 48101  1  0
 48102  1  0
 48103  1  0
 49104  1  0
 49105  1  0
 49106  1  0
 50 51  1  0
 50 52  1  0
 50 53  1  0
 51107  1  0
 51108  1  0
 51109  1  0
 52110  1  0
 52111  1  0
 52112  1  0
 53 54  1  1
 53 55  1  0
 54113  1  0
 55 56  1  6
 55 57  1  0
 56114  1  0
 57 58  2  0
 57 59  1  0
 58115  1  0
 58116  1  0
 59117  1  0
 59118  1  0
 59119  1  0
M  END
>  <i_m_ct_stereo_status>  (119) 
1

>  <s_m_source_file>  (119) 
/var/tmp/pbs.5075288.sched01/tmpqqnbnjfs/192vg5g1vka.sdf

>  <i_m_source_file_index>  (119) 
50

>  <i_lp_mmshare_version>  (119) 
48012

>  <i_f3d_flags>  (119) 
0

>  <s_epik_input>  (119) 
W0NIMl09QzFbQ0BAXShbT0hdKShbQ0gyXVtPSF0pW0NIMl1bQ0BASF0oW09IXSlbQ0BIXShbQ0BdKFtDSDNdKShbQ0BdKE8yKShbQ0gzXSlbQ0BASF0zW09IXSlbQ0BASF0oTzQpT1tDSF0oW0NIM10pW0NIM10pW0NAQF0xKFtPSF0pW0NAQEhdKFtPSF0pW0NAXTMoW09IXSlbQ0BAXShbT0hdKShDKD1bQ0gyXSlbQ0gzXSlbQ0BAXShbT0hdKShbQ0BdNShbQ0BAXTI0NilbQ0BASF03W0NIMl1bQ0BIXTZbUytdN1tPLV0pQyhbQ0gzXSkoW0NIM10pW0NAQEhdKFtDQF01KFtPSF0pQyg9TylPW0NIM10pT0MoPU8pW0NIXShbQ0gzXSlbQ0gzXQ==

>  <s_epik_cmdline>  (119) 
J2VwaWtfcHl0aG9uJywgJy1waHQnLCAnMi4wJywgJy1waCcsICc3LjAnLCAnLXRuJywgJzgnLCAnLW1hJywgJzIwMCcsICctaW1hZScsICc8aW5maWxlLm1hZT4nLCAnLW9tYWUnLCAnPG91dGZpbGUubWFlPic=

>  <r_lp_tautomer_probability>  (119) 
1

>  <r_epik_Ionization_Penalty>  (119) 
3.20368e-06

>  <r_epik_Ionization_Penalty_Charging>  (119) 
0

>  <r_epik_Ionization_Penalty_Neutral>  (119) 
3.20368e-06

>  <r_epik_State_Penalty>  (119) 
-0

>  <r_epik_Charging_Adjusted_Penalty>  (119) 
0

>  <i_epik_Tot_Q>  (119) 
0

>  <i_epik_Tot_abs_Q>  (119) 
2

>  <s_epik_Chemistry_Notes>  (119) 
This compound has an ester and may undergo hydrolysis at high or low pH. This compound contains an acetal/aminal-like group ( X-CH(R)-Y where X, Y are N, S, or O) that may be acid/base labile, releasing an aldehyde.

>  <s_lp_Force_Field>  (119) 
OPLS3e

>  <r_lp_Energy>  (119) 
249.876

>  <b_lp_Chiralities_Consistent>  (119) 
1

>  <s_lp_Variant>  (119) 
96:0-1

>  <s_i_glide_gridfile>  (119) 
pfpi4k_grid

>  <i_i_glide_lignum>  (119) 
50

>  <i_i_glide_rotatable_bonds>  (119) 
19

>  <r_i_docking_score>  (119) 
-3.62915

>  <r_i_glide_ligand_efficiency>  (119) 
-0.061511

>  <r_i_glide_ligand_efficiency_sa>  (119) 
-0.239462

>  <r_i_glide_ligand_efficiency_ln>  (119) 
-0.714746

>  <r_i_glide_gscore>  (119) 
-3.62915

>  <r_i_glide_lipo>  (119) 
-0.346639

>  <r_i_glide_hbond>  (119) 
0

>  <r_i_glide_metal>  (119) 
-0

>  <r_i_glide_rewards>  (119) 
-1.54504

>  <r_i_glide_evdw>  (119) 
-30.8525

>  <r_i_glide_ecoul>  (119) 
-2.36077

>  <r_i_glide_erotb>  (119) 
0.177676

>  <r_i_glide_esite>  (119) 
-0.0184127

>  <r_i_glide_emodel>  (119) 
-50.8525

>  <r_i_glide_energy>  (119) 
-33.2132

>  <r_i_glide_einternal>  (119) 
7.63922

>  <r_i_glide_intrahb_reward>  (119) 
-1.5

>  <i_i_glide_confnum>  (119) 
12

>  <i_i_glide_posenum>  (119) 
1

>  <r_i_glide_eff_state_penalty>  (119) 
0

>  <ligand_id>  (119) 
96

>  <original_smiles>  (119) 
C=C1C(O)(CO)CC(O)C2C1(O)C(O)C1(O)C(O)C3(C)OC4(OC(OC(C)C)C23C)C2CC([S+]2[O-])C42C(O)(C(=O)OC)C(OC(=O)C(C)C)C(C)(C)C2(O)C1(O)C(=C)C

>  <smiles>  (119) 
[H]OC([H])([H])C1(O[H])C(=C([H])[H])C2(O[H])C([H])(O[H])C3(O[H])C([H])(O[H])C4(C([H])([H])[H])OC5(OC([H])(OC([H])(C([H])([H])[H])C([H])([H])[H])C4(C([H])([H])[H])C2([H])C([H])(O[H])C1([H])[H])C1([H])S(=O)C([H])(C1([H])[H])C51C(O[H])(C(=O)OC([H])([H])[H])C([H])(OC(=O)C([H])(C([H])([H])[H])C([H])([H])[H])C(C([H])([H])[H])(C([H])([H])[H])C1(O[H])C3(O[H])C(=C([H])[H])C([H])([H])[H]

$$$$
96:0:1
     RDKit          3D

119125  0  0  1  0  0  0  0  0999 V2000
   -1.5095    0.3822    5.9332 C   0  0  0  0  0  0  0  0  0  0  0  0
   -0.7309    1.4590    5.7252 C   0  0  0  0  0  0  0  0  0  0  0  0
   -1.1847    2.9188    6.0677 C   0  0  1  0  0  0  0  0  0  0  0  0
   -1.3655    3.6579    4.8758 O   0  0  0  0  0  0  0  0  0  0  0  0
   -2.5697    3.0021    6.7628 C   0  0  0  0  0  0  0  0  0  0  0  0
   -2.6073    2.3263    8.0022 O   0  0  0  0  0  0  0  0  0  0  0  0
   -0.1099    3.6955    6.9006 C   0  0  0  0  0  0  0  0  0  0  0  0
    1.3958    3.3466    6.6614 C   0  0  1  0  0  0  0  0  0  0  0  0
    2.0694    4.0198    7.6914 O   0  0  0  0  0  0  0  0  0  0  0  0
    1.5356    1.7821    6.5807 C   0  0  1  0  0  0  0  0  0  0  0  0
    0.7563    1.3347    5.2719 C   0  0  2  0  0  0  0  0  0  0  0  0
    0.9169    2.2815    4.2117 O   0  0  0  0  0  0  0  0  0  0  0  0
    1.2062   -0.0325    4.5822 C   0  0  1  0  0  0  0  0  0  0  0  0
    0.1869   -0.3601    3.6485 O   0  0  0  0  0  0  0  0  0  0  0  0
    2.6466   -0.1193    3.8397 C   0  0  1  0  0  0  0  0  0  0  0  0
    2.3979    0.6111    2.6218 O   0  0  0  0  0  0  0  0  0  0  0  0
    3.7035    0.8093    4.5860 C   0  0  1  0  0  0  0  0  0  0  0  0
    3.5678    2.1967    4.3524 O   0  0  0  0  0  0  0  0  0  0  0  0
    3.9403    0.5333    6.0935 C   0  0  2  0  0  0  0  0  0  0  0  0
    5.3532    1.0869    6.4654 C   0  0  0  0  0  0  0  0  0  0  0  0
    4.2257   -0.8163    5.9427 O   0  0  0  0  0  0  0  0  0  0  0  0
    3.6109   -1.8359    6.6277 C   0  0  2  0  0  0  0  0  0  0  0  0
    2.3233   -1.5581    7.0068 O   0  0  0  0  0  0  0  0  0  0  0  0
    2.1330   -0.4174    7.7546 C   0  0  1  0  0  0  0  0  0  0  0  0
    2.4377   -0.6130    9.1150 O   0  0  0  0  0  0  0  0  0  0  0  0
    1.6050   -1.5043    9.8531 C   0  0  0  0  0  0  0  0  0  0  0  0
    0.2074   -0.8920   10.1030 C   0  0  0  0  0  0  0  0  0  0  0  0
    2.3073   -1.8070   11.1904 C   0  0  0  0  0  0  0  0  0  0  0  0
    2.7809    0.9161    7.1402 C   0  0  2  0  0  0  0  0  0  0  0  0
    3.4150    1.6316    8.3797 C   0  0  0  0  0  0  0  0  0  0  0  0
    4.5148   -2.1570    7.8213 C   0  0  1  0  0  0  0  0  0  0  0  0
    4.4285   -3.6345    8.1322 C   0  0  0  0  0  0  0  0  0  0  0  0
    4.7721   -3.8102    6.6253 C   0  0  2  0  0  0  0  0  0  0  0  0
    6.1156   -2.6138    7.0227 S   0  0  0  0  0  0  0  0  0  0  0  0
    7.0680   -3.2032    8.0619 O   0  0  0  0  0  0  0  0  0  0  0  0
    3.6751   -3.1250    5.7048 C   0  0  1  0  0  0  0  0  0  0  0  0
    2.5086   -4.2270    5.6112 C   0  0  1  0  0  0  0  0  0  0  0  0
    2.6266   -5.2978    6.5692 O   0  0  0  0  0  0  0  0  0  0  0  0
    1.0183   -3.7534    5.7238 C   0  0  0  0  0  0  0  0  0  0  0  0
    0.5120   -2.9234    4.9563 O   0  0  0  0  0  0  0  0  0  0  0  0
    0.3154   -4.3365    6.6978 O   0  0  0  0  0  0  0  0  0  0  0  0
   -1.0111   -3.9232    6.9964 C   0  0  0  0  0  0  0  0  0  0  0  0
    2.8677   -4.9876    4.2896 C   0  0  1  0  0  0  0  0  0  0  0  0
    1.7539   -5.2910    3.4357 O   0  0  0  0  0  0  0  0  0  0  0  0
    1.1430   -6.4971    3.4723 C   0  0  0  0  0  0  0  0  0  0  0  0
    1.2763   -7.3277    4.3750 O   0  0  0  0  0  0  0  0  0  0  0  0
    0.2151   -6.7506    2.2682 C   0  0  0  0  0  0  0  0  0  0  0  0
   -0.6387   -8.0328    2.4061 C   0  0  0  0  0  0  0  0  0  0  0  0
    1.0033   -6.7637    0.9470 C   0  0  0  0  0  0  0  0  0  0  0  0
    4.0247   -4.2410    3.5245 C   0  0  0  0  0  0  0  0  0  0  0  0
    5.3877   -5.0049    3.7003 C   0  0  0  0  0  0  0  0  0  0  0  0
    3.8763   -4.4158    1.9925 C   0  0  0  0  0  0  0  0  0  0  0  0
    4.0192   -2.7681    4.1503 C   0  0  2  0  0  0  0  0  0  0  0  0
    5.3794   -2.3257    4.0920 O   0  0  0  0  0  0  0  0  0  0  0  0
    3.2313   -1.5781    3.2616 C   0  0  1  0  0  0  0  0  0  0  0  0
    2.0527   -2.2462    2.9373 O   0  0  0  0  0  0  0  0  0  0  0  0
    3.9750   -1.2932    1.8847 C   0  0  0  0  0  0  0  0  0  0  0  0
    5.1504   -0.6223    1.7706 C   0  0  0  0  0  0  0  0  0  0  0  0
    3.2907   -1.6603    0.5510 C   0  0  0  0  0  0  0  0  0  0  0  0
   -1.1578   -0.6290    5.7539 H   0  0  0  0  0  0  0  0  0  0  0  0
   -2.5300    0.4687    6.2660 H   0  0  0  0  0  0  0  0  0  0  0  0
   -0.6046    3.4822    4.3306 H   0  0  0  0  0  0  0  0  0  0  0  0
   -2.8446    4.0477    6.9282 H   0  0  0  0  0  0  0  0  0  0  0  0
   -3.3484    2.5927    6.1097 H   0  0  0  0  0  0  0  0  0  0  0  0
   -2.0704    2.8165    8.6281 H   0  0  0  0  0  0  0  0  0  0  0  0
   -0.2669    4.7695    6.7936 H   0  0  0  0  0  0  0  0  0  0  0  0
   -0.3026    3.5030    7.9561 H   0  0  0  0  0  0  0  0  0  0  0  0
    1.7573    3.8367    5.7577 H   0  0  0  0  0  0  0  0  0  0  0  0
    3.0060    3.9322    7.5298 H   0  0  0  0  0  0  0  0  0  0  0  0
    0.8725    1.5890    7.4237 H   0  0  0  0  0  0  0  0  0  0  0  0
    1.8777    2.4214    4.1190 H   0  0  0  0  0  0  0  0  0  0  0  0
    1.1330   -0.7871    5.3323 H   0  0  0  0  0  0  0  0  0  0  0  0
    0.2231    0.2803    2.9220 H   0  0  0  0  0  0  0  0  0  0  0  0
    2.0280    1.4690    2.8319 H   0  0  0  0  0  0  0  0  0  0  0  0
    4.6560    0.6010    4.1147 H   0  0  0  0  0  0  0  0  0  0  0  0
    3.9693    2.3799    3.5025 H   0  0  0  0  0  0  0  0  0  0  0  0
    5.3942    2.1746    6.5022 H   0  0  0  0  0  0  0  0  0  0  0  0
    6.1120    0.7764    5.7430 H   0  0  0  0  0  0  0  0  0  0  0  0
    5.7101    0.6942    7.4188 H   0  0  0  0  0  0  0  0  0  0  0  0
    1.0539   -0.3902    7.7008 H   0  0  0  0  0  0  0  0  0  0  0  0
    1.5033   -2.4424    9.3030 H   0  0  0  0  0  0  0  0  0  0  0  0
   -0.4125   -1.5536   10.7076 H   0  0  0  0  0  0  0  0  0  0  0  0
   -0.3405   -0.6956    9.1848 H   0  0  0  0  0  0  0  0  0  0  0  0
    0.2890    0.0549   10.6410 H   0  0  0  0  0  0  0  0  0  0  0  0
    1.7011   -2.4634   11.8178 H   0  0  0  0  0  0  0  0  0  0  0  0
    2.4949   -0.8919   11.7575 H   0  0  0  0  0  0  0  0  0  0  0  0
    3.2660   -2.3001   11.0276 H   0  0  0  0  0  0  0  0  0  0  0  0
    4.1353    1.0042    8.9153 H   0  0  0  0  0  0  0  0  0  0  0  0
    2.6530    1.9124    9.1109 H   0  0  0  0  0  0  0  0  0  0  0  0
    3.9600    2.5340    8.1183 H   0  0  0  0  0  0  0  0  0  0  0  0
    4.6429   -1.4613    8.6300 H   0  0  0  0  0  0  0  0  0  0  0  0
    5.1238   -4.0182    8.8822 H   0  0  0  0  0  0  0  0  0  0  0  0
    3.4304   -3.8839    8.4426 H   0  0  0  0  0  0  0  0  0  0  0  0
    5.1303   -4.8123    6.4372 H   0  0  0  0  0  0  0  0  0  0  0  0
    3.5013   -5.7100    6.4624 H   0  0  0  0  0  0  0  0  0  0  0  0
   -1.5747   -4.7226    7.4750 H   0  0  0  0  0  0  0  0  0  0  0  0
   -1.5563   -3.6172    6.0977 H   0  0  0  0  0  0  0  0  0  0  0  0
   -0.9618   -3.0575    7.6514 H   0  0  0  0  0  0  0  0  0  0  0  0
    3.3069   -5.9561    4.5508 H   0  0  0  0  0  0  0  0  0  0  0  0
   -0.4687   -5.9111    2.2224 H   0  0  0  0  0  0  0  0  0  0  0  0
   -1.2424   -8.0197    3.3158 H   0  0  0  0  0  0  0  0  0  0  0  0
   -0.0146   -8.9298    2.4259 H   0  0  0  0  0  0  0  0  0  0  0  0
   -1.3250   -8.1402    1.5624 H   0  0  0  0  0  0  0  0  0  0  0  0
    1.5192   -5.8218    0.7687 H   0  0  0  0  0  0  0  0  0  0  0  0
    0.3441   -6.9335    0.0970 H   0  0  0  0  0  0  0  0  0  0  0  0
    1.7492   -7.5583    0.9418 H   0  0  0  0  0  0  0  0  0  0  0  0
    6.1132   -4.6982    2.9473 H   0  0  0  0  0  0  0  0  0  0  0  0
    5.2577   -6.0788    3.5606 H   0  0  0  0  0  0  0  0  0  0  0  0
    5.9217   -4.8609    4.6295 H   0  0  0  0  0  0  0  0  0  0  0  0
    4.6480   -3.8522    1.4640 H   0  0  0  0  0  0  0  0  0  0  0  0
    2.9060   -4.0999    1.6157 H   0  0  0  0  0  0  0  0  0  0  0  0
    3.9883   -5.4619    1.7070 H   0  0  0  0  0  0  0  0  0  0  0  0
    5.4051   -1.5082    4.5937 H   0  0  0  0  0  0  0  0  0  0  0  0
    1.5762   -1.6848    2.3293 H   0  0  0  0  0  0  0  0  0  0  0  0
    5.7281   -0.2705    2.6062 H   0  0  0  0  0  0  0  0  0  0  0  0
    5.5433   -0.4062    0.7919 H   0  0  0  0  0  0  0  0  0  0  0  0
    2.2212   -1.4327    0.5925 H   0  0  0  0  0  0  0  0  0  0  0  0
    3.4220   -2.7000    0.2575 H   0  0  0  0  0  0  0  0  0  0  0  0
    3.6786   -1.0352   -0.2645 H   0  0  0  0  0  0  0  0  0  0  0  0
  1  2  2  0
  1 60  1  0
  1 61  1  0
  2 11  1  0
  2  3  1  0
  3  4  1  6
  3  5  1  0
  3  7  1  0
  4 62  1  0
  5  6  1  0
  5 63  1  0
  5 64  1  0
  6 65  1  0
  7  8  1  0
  7 66  1  0
  7 67  1  0
  8  9  1  0
  8 10  1  0
  8 68  1  6
  9 69  1  0
 10 29  1  0
 10 11  1  0
 10 70  1  1
 11 12  1  6
 11 13  1  0
 12 71  1  0
 13 14  1  0
 13 15  1  0
 13 72  1  1
 14 73  1  0
 15 55  1  0
 15 16  1  6
 15 17  1  0
 16 74  1  0
 17 18  1  0
 17 19  1  0
 17 75  1  6
 18 76  1  0
 19 29  1  0
 19 20  1  1
 19 21  1  0
 20 77  1  0
 20 78  1  0
 20 79  1  0
 21 22  1  0
 22 36  1  0
 22 23  1  1
 22 31  1  0
 23 24  1  0
 24 25  1  0
 24 29  1  0
 24 80  1  1
 25 26  1  0
 26 27  1  0
 26 28  1  0
 26 81  1  0
 27 82  1  0
 27 83  1  0
 27 84  1  0
 28 85  1  0
 28 86  1  0
 28 87  1  0
 29 30  1  1
 30 88  1  0
 30 89  1  0
 30 90  1  0
 34 31  1  1
 31 32  1  0
 31 91  1  1
 32 33  1  0
 32 92  1  0
 32 93  1  0
 33 34  1  0
 33 36  1  0
 33 94  1  6
 34 35  2  0
 36 53  1  0
 36 37  1  6
 37 38  1  1
 37 39  1  0
 37 43  1  0
 38 95  1  0
 39 40  2  0
 39 41  1  0
 41 42  1  0
 42 96  1  0
 42 97  1  0
 42 98  1  0
 43 44  1  0
 43 50  1  0
 43 99  1  1
 44 45  1  0
 45 46  2  0
 45 47  1  0
 47 48  1  0
 47 49  1  0
 47100  1  0
 48101  1  0
 48102  1  0
 48103  1  0
 49104  1  0
 49105  1  0
 49106  1  0
 50 51  1  0
 50 52  1  0
 50 53  1  0
 51107  1  0
 51108  1  0
 51109  1  0
 52110  1  0
 52111  1  0
 52112  1  0
 53 54  1  1
 53 55  1  0
 54113  1  0
 55 56  1  6
 55 57  1  0
 56114  1  0
 57 58  2  0
 57 59  1  0
 58115  1  0
 58116  1  0
 59117  1  0
 59118  1  0
 59119  1  0
M  END
>  <i_m_ct_stereo_status>  (120) 
1

>  <s_m_source_file>  (120) 
/var/tmp/pbs.5075288.sched01/tmpqqnbnjfs/192vg5g1vka.sdf

>  <i_m_source_file_index>  (120) 
50

>  <i_lp_mmshare_version>  (120) 
48012

>  <i_f3d_flags>  (120) 
0

>  <s_epik_input>  (120) 
W0NIMl09QzFbQ0BAXShbT0hdKShbQ0gyXVtPSF0pW0NIMl1bQ0BASF0oW09IXSlbQ0BIXShbQ0BdKFtDSDNdKShbQ0BdKE8yKShbQ0gzXSlbQ0BASF0zW09IXSlbQ0BASF0oTzQpT1tDSF0oW0NIM10pW0NIM10pW0NAQF0xKFtPSF0pW0NAQEhdKFtPSF0pW0NAXTMoW09IXSlbQ0BAXShbT0hdKShDKD1bQ0gyXSlbQ0gzXSlbQ0BAXShbT0hdKShbQ0BdNShbQ0BAXTI0NilbQ0BASF03W0NIMl1bQ0BIXTZbUytdN1tPLV0pQyhbQ0gzXSkoW0NIM10pW0NAQEhdKFtDQF01KFtPSF0pQyg9TylPW0NIM10pT0MoPU8pW0NIXShbQ0gzXSlbQ0gzXQ==

>  <s_epik_cmdline>  (120) 
J2VwaWtfcHl0aG9uJywgJy1waHQnLCAnMi4wJywgJy1waCcsICc3LjAnLCAnLXRuJywgJzgnLCAnLW1hJywgJzIwMCcsICctaW1hZScsICc8aW5maWxlLm1hZT4nLCAnLW9tYWUnLCAnPG91dGZpbGUubWFlPic=

>  <r_lp_tautomer_probability>  (120) 
1

>  <r_epik_Ionization_Penalty>  (120) 
3.20368e-06

>  <r_epik_Ionization_Penalty_Charging>  (120) 
0

>  <r_epik_Ionization_Penalty_Neutral>  (120) 
3.20368e-06

>  <r_epik_State_Penalty>  (120) 
-0

>  <r_epik_Charging_Adjusted_Penalty>  (120) 
0

>  <i_epik_Tot_Q>  (120) 
0

>  <i_epik_Tot_abs_Q>  (120) 
2

>  <s_epik_Chemistry_Notes>  (120) 
This compound has an ester and may undergo hydrolysis at high or low pH. This compound contains an acetal/aminal-like group ( X-CH(R)-Y where X, Y are N, S, or O) that may be acid/base labile, releasing an aldehyde.

>  <s_lp_Force_Field>  (120) 
OPLS3e

>  <r_lp_Energy>  (120) 
249.876

>  <b_lp_Chiralities_Consistent>  (120) 
1

>  <s_lp_Variant>  (120) 
96:0-1

>  <s_i_glide_gridfile>  (120) 
pfpi4k_grid

>  <i_i_glide_lignum>  (120) 
50

>  <i_i_glide_rotatable_bonds>  (120) 
19

>  <r_i_docking_score>  (120) 
-3.2484

>  <r_i_glide_ligand_efficiency>  (120) 
-0.0550576

>  <r_i_glide_ligand_efficiency_sa>  (120) 
-0.214339

>  <r_i_glide_ligand_efficiency_ln>  (120) 
-0.639759

>  <r_i_glide_gscore>  (120) 
-3.2484

>  <r_i_glide_lipo>  (120) 
-0.322759

>  <r_i_glide_hbond>  (120) 
0

>  <r_i_glide_metal>  (120) 
-0

>  <r_i_glide_rewards>  (120) 
-1.51944

>  <r_i_glide_evdw>  (120) 
-31.9205

>  <r_i_glide_ecoul>  (120) 
0.216328

>  <r_i_glide_erotb>  (120) 
0.177676

>  <r_i_glide_esite>  (120) 
-0.0202987

>  <r_i_glide_emodel>  (120) 
-46.4343

>  <r_i_glide_energy>  (120) 
-31.7041

>  <r_i_glide_einternal>  (120) 
7.63351

>  <r_i_glide_intrahb_reward>  (120) 
-1.5

>  <i_i_glide_confnum>  (120) 
10

>  <i_i_glide_posenum>  (120) 
13

>  <r_i_glide_eff_state_penalty>  (120) 
0

>  <ligand_id>  (120) 
96

>  <original_smiles>  (120) 
C=C1C(O)(CO)CC(O)C2C1(O)C(O)C1(O)C(O)C3(C)OC4(OC(OC(C)C)C23C)C2CC([S+]2[O-])C42C(O)(C(=O)OC)C(OC(=O)C(C)C)C(C)(C)C2(O)C1(O)C(=C)C

>  <smiles>  (120) 
[H]OC([H])([H])C1(O[H])C(=C([H])[H])C2(O[H])C([H])(O[H])C3(O[H])C([H])(O[H])C4(C([H])([H])[H])OC5(OC([H])(OC([H])(C([H])([H])[H])C([H])([H])[H])C4(C([H])([H])[H])C2([H])C([H])(O[H])C1([H])[H])C1([H])S(=O)C([H])(C1([H])[H])C51C(O[H])(C(=O)OC([H])([H])[H])C([H])(OC(=O)C([H])(C([H])([H])[H])C([H])([H])[H])C(C([H])([H])[H])(C([H])([H])[H])C1(O[H])C3(O[H])C(=C([H])[H])C([H])([H])[H]

$$$$
96:0:2
     RDKit          3D

119125  0  0  1  0  0  0  0  0999 V2000
   -1.6144    0.4165    5.2496 C   0  0  0  0  0  0  0  0  0  0  0  0
   -0.9134    1.5598    4.9823 C   0  0  0  0  0  0  0  0  0  0  0  0
   -1.4491    3.0064    5.2426 C   0  0  1  0  0  0  0  0  0  0  0  0
   -1.6786    3.6758    4.0152 O   0  0  0  0  0  0  0  0  0  0  0  0
   -2.8369    3.0912    5.9274 C   0  0  0  0  0  0  0  0  0  0  0  0
   -2.9132    2.3165    7.1093 O   0  0  0  0  0  0  0  0  0  0  0  0
   -0.4252    3.8848    6.0368 C   0  0  0  0  0  0  0  0  0  0  0  0
    1.0914    3.6128    5.8060 C   0  0  1  0  0  0  0  0  0  0  0  0
    1.7458    4.3795    6.7844 O   0  0  0  0  0  0  0  0  0  0  0  0
    1.3220    2.0575    5.8154 C   0  0  1  0  0  0  0  0  0  0  0  0
    0.5648    1.4988    4.5285 C   0  0  2  0  0  0  0  0  0  0  0  0
    0.6762    2.3759    3.3995 O   0  0  0  0  0  0  0  0  0  0  0  0
    1.0969    0.1157    3.9360 C   0  0  1  0  0  0  0  0  0  0  0  0
    0.0855   -0.2861    3.0159 O   0  0  0  0  0  0  0  0  0  0  0  0
    2.5347    0.0599    3.1873 C   0  0  1  0  0  0  0  0  0  0  0  0
    2.2396    0.7197    1.9406 O   0  0  0  0  0  0  0  0  0  0  0  0
    3.5390    1.0700    3.8912 C   0  0  1  0  0  0  0  0  0  0  0  0
    3.3429    2.4456    3.6120 O   0  0  0  0  0  0  0  0  0  0  0  0
    3.7892    0.9107    5.4048 C   0  0  2  0  0  0  0  0  0  0  0  0
    5.1728    1.5545    5.7284 C   0  0  0  0  0  0  0  0  0  0  0  0
    4.1527   -0.4364    5.3247 O   0  0  0  0  0  0  0  0  0  0  0  0
    3.6006   -1.4404    6.0617 C   0  0  2  0  0  0  0  0  0  0  0  0
    2.3101   -1.2164    6.4302 O   0  0  0  0  0  0  0  0  0  0  0  0
    2.0416   -0.0432    7.1133 C   0  0  1  0  0  0  0  0  0  0  0  0
    2.3537   -0.1427    8.4781 O   0  0  0  0  0  0  0  0  0  0  0  0
    1.5885   -1.0516    9.2685 C   0  0  0  0  0  0  0  0  0  0  0  0
    0.1596   -0.5135    9.4825 C   0  0  0  0  0  0  0  0  0  0  0  0
    2.3131   -1.2346   10.6122 C   0  0  0  0  0  0  0  0  0  0  0  0
    2.6133    1.2870    6.4201 C   0  0  2  0  0  0  0  0  0  0  0  0
    3.2087    2.1121    7.6144 C   0  0  0  0  0  0  0  0  0  0  0  0
    4.5092   -1.6489    7.2729 C   0  0  1  0  0  0  0  0  0  0  0  0
    4.5005   -3.1017    7.6682 C   0  0  0  0  0  0  0  0  0  0  0  0
    4.8642   -3.3398    6.1749 C   0  0  2  0  0  0  0  0  0  0  0  0
    6.1099   -2.0346    6.4782 S   0  0  0  0  0  0  0  0  0  0  0  0
    7.1631   -2.5120    7.5218 O   0  0  0  0  0  0  0  0  0  0  0  0
    3.7360   -2.7691    5.2048 C   0  0  1  0  0  0  0  0  0  0  0  0
    2.6236   -3.9449    5.1947 C   0  0  1  0  0  0  0  0  0  0  0  0
    2.8121   -4.9319    6.2216 O   0  0  0  0  0  0  0  0  0  0  0  0
    1.1053   -3.4981    5.2675 C   0  0  0  0  0  0  0  0  0  0  0  0
    0.6138   -2.6435    4.6190 O   0  0  0  0  0  0  0  0  0  0  0  0
    0.3869   -4.2506    6.1152 O   0  0  0  0  0  0  0  0  0  0  0  0
   -0.9012   -3.8520    6.5325 C   0  0  0  0  0  0  0  0  0  0  0  0
    3.0221   -4.7607    3.9085 C   0  0  1  0  0  0  0  0  0  0  0  0
    1.9144   -5.1683    3.0828 O   0  0  0  0  0  0  0  0  0  0  0  0
    1.1800   -6.2809    3.3622 C   0  0  0  0  0  0  0  0  0  0  0  0
    1.1896   -6.8865    4.4319 O   0  0  0  0  0  0  0  0  0  0  0  0
    0.2765   -6.7210    2.1918 C   0  0  0  0  0  0  0  0  0  0  0  0
   -0.6448   -7.9089    2.5546 C   0  0  0  0  0  0  0  0  0  0  0  0
    1.1085   -7.0375    0.9388 C   0  0  0  0  0  0  0  0  0  0  0  0
    4.1450   -3.9999    3.0942 C   0  0  0  0  0  0  0  0  0  0  0  0
    5.5380   -4.6864    3.3213 C   0  0  0  0  0  0  0  0  0  0  0  0
    3.9999   -4.2946    1.5942 C   0  0  0  0  0  0  0  0  0  0  0  0
    4.0749   -2.4830    3.6147 C   0  0  2  0  0  0  0  0  0  0  0  0
    5.3811   -1.9472    3.5129 O   0  0  0  0  0  0  0  0  0  0  0  0
    3.2056   -1.4009    2.6646 C   0  0  1  0  0  0  0  0  0  0  0  0
    2.0556   -2.1422    2.4057 O   0  0  0  0  0  0  0  0  0  0  0  0
    3.8980   -1.1579    1.2441 C   0  0  0  0  0  0  0  0  0  0  0  0
    4.8714   -0.2388    1.0396 C   0  0  0  0  0  0  0  0  0  0  0  0
    3.4177   -1.8952   -0.0127 C   0  0  0  0  0  0  0  0  0  0  0  0
   -1.1856   -0.5686    5.1227 H   0  0  0  0  0  0  0  0  0  0  0  0
   -2.6215    0.4474    5.5902 H   0  0  0  0  0  0  0  0  0  0  0  0
   -0.9297    3.4893    3.4596 H   0  0  0  0  0  0  0  0  0  0  0  0
   -3.0727    4.1128    6.2168 H   0  0  0  0  0  0  0  0  0  0  0  0
   -3.6191    2.8131    5.2250 H   0  0  0  0  0  0  0  0  0  0  0  0
   -2.6574    1.4305    6.9011 H   0  0  0  0  0  0  0  0  0  0  0  0
   -0.6476    4.9373    5.8671 H   0  0  0  0  0  0  0  0  0  0  0  0
   -0.6310    3.7313    7.0976 H   0  0  0  0  0  0  0  0  0  0  0  0
    1.4135    4.0636    4.8688 H   0  0  0  0  0  0  0  0  0  0  0  0
    2.6723    4.3418    6.6047 H   0  0  0  0  0  0  0  0  0  0  0  0
    0.6655    1.8686    6.6658 H   0  0  0  0  0  0  0  0  0  0  0  0
    1.6099    2.5536    3.2805 H   0  0  0  0  0  0  0  0  0  0  0  0
    1.0734   -0.5914    4.7326 H   0  0  0  0  0  0  0  0  0  0  0  0
    0.1235    0.2558    2.2407 H   0  0  0  0  0  0  0  0  0  0  0  0
    1.7836    1.5363    2.0855 H   0  0  0  0  0  0  0  0  0  0  0  0
    4.5003    0.8748    3.4343 H   0  0  0  0  0  0  0  0  0  0  0  0
    3.9974    2.6640    2.9500 H   0  0  0  0  0  0  0  0  0  0  0  0
    5.1510    2.6473    5.6988 H   0  0  0  0  0  0  0  0  0  0  0  0
    5.9381    1.2428    5.0177 H   0  0  0  0  0  0  0  0  0  0  0  0
    5.5549    1.2365    6.6984 H   0  0  0  0  0  0  0  0  0  0  0  0
    0.9592   -0.0787    7.0418 H   0  0  0  0  0  0  0  0  0  0  0  0
    1.5464   -2.0184    8.7668 H   0  0  0  0  0  0  0  0  0  0  0  0
   -0.4210   -1.1841   10.1169 H   0  0  0  0  0  0  0  0  0  0  0  0
   -0.3916   -0.4046    8.5504 H   0  0  0  0  0  0  0  0  0  0  0  0
    0.1817    0.4640    9.9646 H   0  0  0  0  0  0  0  0  0  0  0  0
    1.7530   -1.8943   11.2770 H   0  0  0  0  0  0  0  0  0  0  0  0
    2.4433   -0.2825   11.1296 H   0  0  0  0  0  0  0  0  0  0  0  0
    3.3012   -1.6740   10.4722 H   0  0  0  0  0  0  0  0  0  0  0  0
    3.9651    1.5584    8.1754 H   0  0  0  0  0  0  0  0  0  0  0  0
    2.4359    2.3981    8.3312 H   0  0  0  0  0  0  0  0  0  0  0  0
    3.7041    3.0249    7.2907 H   0  0  0  0  0  0  0  0  0  0  0  0
    4.6082   -0.8905    8.0428 H   0  0  0  0  0  0  0  0  0  0  0  0
    5.1992   -3.4194    8.4398 H   0  0  0  0  0  0  0  0  0  0  0  0
    3.5093   -3.3722    7.9644 H   0  0  0  0  0  0  0  0  0  0  0  0
    5.2672   -4.3346    6.0398 H   0  0  0  0  0  0  0  0  0  0  0  0
    3.6663   -5.3373    6.1081 H   0  0  0  0  0  0  0  0  0  0  0  0
   -1.5040   -4.7065    6.8656 H   0  0  0  0  0  0  0  0  0  0  0  0
   -1.4188   -3.3360    5.7348 H   0  0  0  0  0  0  0  0  0  0  0  0
   -0.7837   -3.1526    7.3554 H   0  0  0  0  0  0  0  0  0  0  0  0
    3.4821   -5.7054    4.2231 H   0  0  0  0  0  0  0  0  0  0  0  0
   -0.3593   -5.8764    1.9460 H   0  0  0  0  0  0  0  0  0  0  0  0
   -1.2755   -7.6845    3.4186 H   0  0  0  0  0  0  0  0  0  0  0  0
   -0.0695   -8.8091    2.7896 H   0  0  0  0  0  0  0  0  0  0  0  0
   -1.3089   -8.1614    1.7244 H   0  0  0  0  0  0  0  0  0  0  0  0
    1.6733   -6.1685    0.5983 H   0  0  0  0  0  0  0  0  0  0  0  0
    0.4686   -7.3534    0.1144 H   0  0  0  0  0  0  0  0  0  0  0  0
    1.8175   -7.8446    1.1316 H   0  0  0  0  0  0  0  0  0  0  0  0
    6.2435   -4.3837    2.5485 H   0  0  0  0  0  0  0  0  0  0  0  0
    5.4675   -5.7726    3.2317 H   0  0  0  0  0  0  0  0  0  0  0  0
    6.0669   -4.4602    4.2354 H   0  0  0  0  0  0  0  0  0  0  0  0
    4.7639   -3.7491    1.0518 H   0  0  0  0  0  0  0  0  0  0  0  0
    3.0282   -4.0211    1.1876 H   0  0  0  0  0  0  0  0  0  0  0  0
    4.1291   -5.3593    1.3827 H   0  0  0  0  0  0  0  0  0  0  0  0
    5.4086   -1.1165    3.9703 H   0  0  0  0  0  0  0  0  0  0  0  0
    1.5968   -1.7029    1.7044 H   0  0  0  0  0  0  0  0  0  0  0  0
    5.2821    0.3929    1.8031 H   0  0  0  0  0  0  0  0  0  0  0  0
    5.2374   -0.0917    0.0320 H   0  0  0  0  0  0  0  0  0  0  0  0
    2.3418   -2.0211   -0.0140 H   0  0  0  0  0  0  0  0  0  0  0  0
    3.8781   -2.8200   -0.2078 H   0  0  0  0  0  0  0  0  0  0  0  0
    3.6153   -1.2749   -0.8837 H   0  0  0  0  0  0  0  0  0  0  0  0
  1  2  2  0
  1 60  1  0
  1 61  1  0
  2 11  1  0
  2  3  1  0
  3  4  1  6
  3  5  1  0
  3  7  1  0
  4 62  1  0
  5  6  1  0
  5 63  1  0
  5 64  1  0
  6 65  1  0
  7  8  1  0
  7 66  1  0
  7 67  1  0
  8  9  1  0
  8 10  1  0
  8 68  1  6
  9 69  1  0
 10 29  1  0
 10 11  1  0
 10 70  1  1
 11 12  1  6
 11 13  1  0
 12 71  1  0
 13 14  1  0
 13 15  1  0
 13 72  1  1
 14 73  1  0
 15 55  1  0
 15 16  1  6
 15 17  1  0
 16 74  1  0
 17 18  1  0
 17 19  1  0
 17 75  1  6
 18 76  1  0
 19 29  1  0
 19 20  1  1
 19 21  1  0
 20 77  1  0
 20 78  1  0
 20 79  1  0
 21 22  1  0
 22 36  1  0
 22 23  1  1
 22 31  1  0
 23 24  1  0
 24 25  1  0
 24 29  1  0
 24 80  1  1
 25 26  1  0
 26 27  1  0
 26 28  1  0
 26 81  1  0
 27 82  1  0
 27 83  1  0
 27 84  1  0
 28 85  1  0
 28 86  1  0
 28 87  1  0
 29 30  1  1
 30 88  1  0
 30 89  1  0
 30 90  1  0
 34 31  1  1
 31 32  1  0
 31 91  1  1
 32 33  1  0
 32 92  1  0
 32 93  1  0
 33 34  1  0
 33 36  1  0
 33 94  1  1
 34 35  2  0
 36 53  1  0
 36 37  1  6
 37 38  1  1
 37 39  1  0
 37 43  1  0
 38 95  1  0
 39 40  2  0
 39 41  1  0
 41 42  1  0
 42 96  1  0
 42 97  1  0
 42 98  1  0
 43 44  1  0
 43 50  1  0
 43 99  1  1
 44 45  1  0
 45 46  2  0
 45 47  1  0
 47 48  1  0
 47 49  1  0
 47100  1  0
 48101  1  0
 48102  1  0
 48103  1  0
 49104  1  0
 49105  1  0
 49106  1  0
 50 51  1  0
 50 52  1  0
 50 53  1  0
 51107  1  0
 51108  1  0
 51109  1  0
 52110  1  0
 52111  1  0
 52112  1  0
 53 54  1  1
 53 55  1  0
 54113  1  0
 55 56  1  6
 55 57  1  0
 56114  1  0
 57 58  2  0
 57 59  1  0
 58115  1  0
 58116  1  0
 59117  1  0
 59118  1  0
 59119  1  0
M  END
>  <i_m_ct_stereo_status>  (121) 
1

>  <s_m_source_file>  (121) 
/var/tmp/pbs.5075288.sched01/tmpqqnbnjfs/192vg5g1vka.sdf

>  <i_m_source_file_index>  (121) 
50

>  <i_lp_mmshare_version>  (121) 
48012

>  <i_f3d_flags>  (121) 
0

>  <s_epik_input>  (121) 
W0NIMl09QzFbQ0BAXShbT0hdKShbQ0gyXVtPSF0pW0NIMl1bQ0BASF0oW09IXSlbQ0BIXShbQ0BdKFtDSDNdKShbQ0BdKE8yKShbQ0gzXSlbQ0BASF0zW09IXSlbQ0BASF0oTzQpT1tDSF0oW0NIM10pW0NIM10pW0NAQF0xKFtPSF0pW0NAQEhdKFtPSF0pW0NAXTMoW09IXSlbQ0BAXShbT0hdKShDKD1bQ0gyXSlbQ0gzXSlbQ0BAXShbT0hdKShbQ0BdNShbQ0BAXTI0NilbQ0BASF03W0NIMl1bQ0BIXTZbUytdN1tPLV0pQyhbQ0gzXSkoW0NIM10pW0NAQEhdKFtDQF01KFtPSF0pQyg9TylPW0NIM10pT0MoPU8pW0NIXShbQ0gzXSlbQ0gzXQ==

>  <s_epik_cmdline>  (121) 
J2VwaWtfcHl0aG9uJywgJy1waHQnLCAnMi4wJywgJy1waCcsICc3LjAnLCAnLXRuJywgJzgnLCAnLW1hJywgJzIwMCcsICctaW1hZScsICc8aW5maWxlLm1hZT4nLCAnLW9tYWUnLCAnPG91dGZpbGUubWFlPic=

>  <r_lp_tautomer_probability>  (121) 
1

>  <r_epik_Ionization_Penalty>  (121) 
3.20368e-06

>  <r_epik_Ionization_Penalty_Charging>  (121) 
0

>  <r_epik_Ionization_Penalty_Neutral>  (121) 
3.20368e-06

>  <r_epik_State_Penalty>  (121) 
-0

>  <r_epik_Charging_Adjusted_Penalty>  (121) 
0

>  <i_epik_Tot_Q>  (121) 
0

>  <i_epik_Tot_abs_Q>  (121) 
2

>  <s_epik_Chemistry_Notes>  (121) 
This compound has an ester and may undergo hydrolysis at high or low pH. This compound contains an acetal/aminal-like group ( X-CH(R)-Y where X, Y are N, S, or O) that may be acid/base labile, releasing an aldehyde.

>  <s_lp_Force_Field>  (121) 
OPLS3e

>  <r_lp_Energy>  (121) 
249.876

>  <b_lp_Chiralities_Consistent>  (121) 
1

>  <s_lp_Variant>  (121) 
96:0-1

>  <s_i_glide_gridfile>  (121) 
pfpi4k_grid

>  <i_i_glide_lignum>  (121) 
50

>  <i_i_glide_rotatable_bonds>  (121) 
19

>  <r_i_docking_score>  (121) 
-2.35505

>  <r_i_glide_ligand_efficiency>  (121) 
-0.0399161

>  <r_i_glide_ligand_efficiency_sa>  (121) 
-0.155393

>  <r_i_glide_ligand_efficiency_ln>  (121) 
-0.463818

>  <r_i_glide_gscore>  (121) 
-2.35505

>  <r_i_glide_lipo>  (121) 
-0.247832

>  <r_i_glide_hbond>  (121) 
0

>  <r_i_glide_metal>  (121) 
-0

>  <r_i_glide_rewards>  (121) 
-1.55412

>  <r_i_glide_evdw>  (121) 
-28.7091

>  <r_i_glide_ecoul>  (121) 
-0.110359

>  <r_i_glide_erotb>  (121) 
0.177676

>  <r_i_glide_esite>  (121) 
-0.0214384

>  <r_i_glide_emodel>  (121) 
-37.9285

>  <r_i_glide_energy>  (121) 
-28.8195

>  <r_i_glide_einternal>  (121) 
11.7556

>  <r_i_glide_intrahb_reward>  (121) 
-1.5

>  <i_i_glide_confnum>  (121) 
7

>  <i_i_glide_posenum>  (121) 
26

>  <r_i_glide_eff_state_penalty>  (121) 
0

>  <ligand_id>  (121) 
96

>  <original_smiles>  (121) 
C=C1C(O)(CO)CC(O)C2C1(O)C(O)C1(O)C(O)C3(C)OC4(OC(OC(C)C)C23C)C2CC([S+]2[O-])C42C(O)(C(=O)OC)C(OC(=O)C(C)C)C(C)(C)C2(O)C1(O)C(=C)C

>  <smiles>  (121) 
[H]OC([H])([H])C1(O[H])C(=C([H])[H])C2(O[H])C([H])(O[H])C3(O[H])C([H])(O[H])C4(C([H])([H])[H])OC5(OC([H])(OC([H])(C([H])([H])[H])C([H])([H])[H])C4(C([H])([H])[H])C2([H])C([H])(O[H])C1([H])[H])C1([H])S(=O)C([H])(C1([H])[H])C51C(O[H])(C(=O)OC([H])([H])[H])C([H])(OC(=O)C([H])(C([H])([H])[H])C([H])([H])[H])C(C([H])([H])[H])(C([H])([H])[H])C1(O[H])C3(O[H])C(=C([H])[H])C([H])([H])[H]

$$$$
98:0:0
     RDKit          3D

 90 96  0  0  1  0  0  0  0  0999 V2000
   -3.5484    3.7144    2.5851 C   0  0  0  0  0  0  0  0  0  0  0  0
   -2.6820    3.5090    3.8050 C   0  0  0  0  0  0  0  0  0  0  0  0
   -1.5246    4.1481    4.1256 C   0  0  0  0  0  0  0  0  0  0  0  0
   -0.8276    5.2022    3.2879 C   0  0  0  0  0  0  0  0  0  0  0  0
   -0.7647    3.9389    5.2587 O   0  0  0  0  0  0  0  0  0  0  0  0
   -1.1514    2.9956    6.2610 C   0  0  2  0  0  0  0  0  0  0  0  0
   -1.3468    3.7979    7.5618 C   0  0  0  0  0  0  0  0  0  0  0  0
   -0.1165    1.8027    6.3521 C   0  0  1  0  0  0  0  0  0  0  0  0
    0.9438    2.3538    7.1363 O   0  0  0  0  0  0  0  0  0  0  0  0
   -0.7434    0.5619    7.0443 C   0  0  1  0  0  0  0  0  0  0  0  0
   -1.9860    0.1626    6.4188 O   0  0  0  0  0  0  0  0  0  0  0  0
    0.3371   -0.5232    6.8517 C   0  0  2  0  0  0  0  0  0  0  0  0
   -0.1906   -1.7538    7.2888 O   0  0  0  0  0  0  0  0  0  0  0  0
    1.3398   -0.0979    7.7611 O   0  0  0  0  0  0  0  0  0  0  0  0
    2.6299   -0.6368    7.7820 C   0  0  0  0  0  0  0  0  0  0  0  0
    3.4686    0.3058    8.6808 C   0  0  0  0  0  0  0  0  0  0  0  0
    2.6019   -2.0247    8.4541 C   0  0  0  0  0  0  0  0  0  0  0  0
    3.2056   -0.7444    6.5127 O   0  0  0  0  0  0  0  0  0  0  0  0
    3.7154    0.4156    5.8311 C   0  0  0  0  0  0  0  0  0  0  0  0
    3.7151    0.1977    4.2495 C   0  0  1  0  0  0  0  0  0  0  0  0
    4.9648    0.6290    3.7380 O   0  0  0  0  0  0  0  0  0  0  0  0
    6.1963    0.0875    4.1917 C   0  0  0  0  0  0  0  0  0  0  0  0
    3.4771   -1.1550    4.1058 O   0  0  0  0  0  0  0  0  0  0  0  0
    4.0943   -2.2048    3.3542 C   0  0  1  0  0  0  0  0  0  0  0  0
    4.7928   -1.7816    2.0377 C   0  0  0  0  0  0  0  0  0  0  0  0
    5.9630   -2.1442    1.7644 O   0  0  0  0  0  0  0  0  0  0  0  0
    4.0454   -1.0930    1.1681 O   0  0  0  0  0  0  0  0  0  0  0  0
    4.5919   -0.6792   -0.0701 C   0  0  0  0  0  0  0  0  0  0  0  0
    4.9159   -3.0926    4.3601 C   0  0  1  0  0  0  0  0  0  0  0  0
    5.3476   -2.5024    5.5838 O   0  0  0  0  0  0  0  0  0  0  0  0
    3.9761   -4.2721    4.6413 C   0  0  1  0  0  0  0  0  0  0  0  0
    2.6972   -3.7995    5.3874 C   0  0  0  0  0  0  0  0  0  0  0  0
    1.8410   -3.1268    4.2962 C   0  0  1  0  0  0  0  0  0  0  0  0
    0.8393   -1.9815    4.7551 C   0  0  2  0  0  0  0  0  0  0  0  0
    0.2558   -0.9882    3.9598 C   0  0  2  0  0  0  0  0  0  0  0  0
    1.3744   -0.3316    2.6225 S   0  0  0  0  0  0  0  0  0  0  0  0
    0.4505    0.5025    1.6917 O   0  0  0  0  0  0  0  0  0  0  0  0
    2.4962    0.9287    3.4559 C   0  0  2  0  0  0  0  0  0  0  0  0
    2.9710    1.7961    2.4641 O   0  0  0  0  0  0  0  0  0  0  0  0
    1.6000    1.8099    4.3447 C   0  0  0  0  0  0  0  0  0  0  0  0
    1.8366    3.0065    4.4920 O   0  0  0  0  0  0  0  0  0  0  0  0
    0.4339    1.0989    5.0481 C   0  0  2  0  0  0  0  0  0  0  0  0
   -0.6920    1.3206    4.2005 O   0  0  0  0  0  0  0  0  0  0  0  0
    0.7886   -0.4536    5.3496 C   0  0  2  0  0  0  0  0  0  0  0  0
    2.8478   -3.1453    3.0951 C   0  0  1  0  0  0  0  0  0  0  0  0
    2.2012   -3.1163    1.8407 O   0  0  0  0  0  0  0  0  0  0  0  0
    3.4255   -4.5605    3.2569 C   0  0  1  0  0  0  0  0  0  0  0  0
    4.4083   -4.9205    2.3032 O   0  0  0  0  0  0  0  0  0  0  0  0
   -3.6952    2.7657    2.0649 H   0  0  0  0  0  0  0  0  0  0  0  0
   -3.1252    4.4314    1.9022 H   0  0  0  0  0  0  0  0  0  0  0  0
   -4.5267    4.0928    2.8761 H   0  0  0  0  0  0  0  0  0  0  0  0
   -3.1180    2.7455    4.4269 H   0  0  0  0  0  0  0  0  0  0  0  0
   -1.4036    5.5374    2.4293 H   0  0  0  0  0  0  0  0  0  0  0  0
    0.1200    4.8058    2.9192 H   0  0  0  0  0  0  0  0  0  0  0  0
   -0.5802    6.0619    3.9089 H   0  0  0  0  0  0  0  0  0  0  0  0
   -2.1322    2.5687    6.0887 H   0  0  0  0  0  0  0  0  0  0  0  0
   -1.6366    3.1567    8.3946 H   0  0  0  0  0  0  0  0  0  0  0  0
   -2.1403    4.5379    7.4387 H   0  0  0  0  0  0  0  0  0  0  0  0
   -0.4472    4.3462    7.8542 H   0  0  0  0  0  0  0  0  0  0  0  0
    1.3094    3.0885    6.6563 H   0  0  0  0  0  0  0  0  0  0  0  0
   -0.9046    0.7452    8.1054 H   0  0  0  0  0  0  0  0  0  0  0  0
   -1.8791    0.1964    5.4790 H   0  0  0  0  0  0  0  0  0  0  0  0
    0.5088   -2.3979    7.1939 H   0  0  0  0  0  0  0  0  0  0  0  0
    3.3801    1.3407    8.3541 H   0  0  0  0  0  0  0  0  0  0  0  0
    4.5202    0.0098    8.6802 H   0  0  0  0  0  0  0  0  0  0  0  0
    3.0935    0.2645    9.7050 H   0  0  0  0  0  0  0  0  0  0  0  0
    1.9466   -2.7237    7.9479 H   0  0  0  0  0  0  0  0  0  0  0  0
    2.2540   -1.9443    9.4839 H   0  0  0  0  0  0  0  0  0  0  0  0
    3.6014   -2.4559    8.4597 H   0  0  0  0  0  0  0  0  0  0  0  0
    3.2764    1.3633    6.1368 H   0  0  0  0  0  0  0  0  0  0  0  0
    4.7170    0.5320    6.2167 H   0  0  0  0  0  0  0  0  0  0  0  0
    7.0204    0.7806    4.0972 H   0  0  0  0  0  0  0  0  0  0  0  0
    6.4377   -0.7243    3.5307 H   0  0  0  0  0  0  0  0  0  0  0  0
    6.1816   -0.3152    5.1939 H   0  0  0  0  0  0  0  0  0  0  0  0
    3.8113   -0.2561   -0.6978 H   0  0  0  0  0  0  0  0  0  0  0  0
    5.0481   -1.5236   -0.6003 H   0  0  0  0  0  0  0  0  0  0  0  0
    5.3657    0.0751    0.1074 H   0  0  0  0  0  0  0  0  0  0  0  0
    5.8157   -3.4646    3.8690 H   0  0  0  0  0  0  0  0  0  0  0  0
    5.9142   -3.1321    6.0210 H   0  0  0  0  0  0  0  0  0  0  0  0
    4.4810   -5.1074    5.1258 H   0  0  0  0  0  0  0  0  0  0  0  0
    2.1740   -4.6399    5.8505 H   0  0  0  0  0  0  0  0  0  0  0  0
    2.9776   -3.1173    6.1685 H   0  0  0  0  0  0  0  0  0  0  0  0
    1.1348   -3.8982    3.9992 H   0  0  0  0  0  0  0  0  0  0  0  0
    0.0072   -2.5801    5.1075 H   0  0  0  0  0  0  0  0  0  0  0  0
   -0.8012   -1.0518    3.6841 H   0  0  0  0  0  0  0  0  0  0  0  0
    3.8976    1.9670    2.5995 H   0  0  0  0  0  0  0  0  0  0  0  0
   -0.6919    2.2417    3.9634 H   0  0  0  0  0  0  0  0  0  0  0  0
    2.8585   -2.9917    1.1661 H   0  0  0  0  0  0  0  0  0  0  0  0
    2.6564   -5.3348    3.2813 H   0  0  0  0  0  0  0  0  0  0  0  0
    3.9768   -5.0536    1.4707 H   0  0  0  0  0  0  0  0  0  0  0  0
  1  2  1  0
  1 49  1  0
  1 50  1  0
  1 51  1  0
  2  3  2  3
  2 52  1  0
  3  4  1  0
  3  5  1  0
  4 53  1  0
  4 54  1  0
  4 55  1  0
  5  6  1  0
  6  7  1  0
  6  8  1  0
  6 56  1  6
  7 57  1  0
  7 58  1  0
  7 59  1  0
  8 42  1  0
  8  9  1  1
  8 10  1  0
  9 60  1  0
 10 11  1  0
 10 12  1  0
 10 61  1  1
 11 62  1  0
 44 12  1  1
 12 13  1  1
 12 14  1  0
 13 63  1  0
 14 15  1  0
 15 16  1  0
 15 17  1  0
 15 18  1  0
 16 64  1  0
 16 65  1  0
 16 66  1  0
 17 67  1  0
 17 68  1  0
 17 69  1  0
 18 19  1  0
 19 20  1  0
 19 70  1  0
 19 71  1  0
 20 38  1  0
 20 21  1  6
 20 23  1  0
 21 22  1  0
 22 72  1  0
 22 73  1  0
 22 74  1  0
 23 24  1  0
 24 45  1  0
 24 25  1  6
 24 29  1  0
 25 26  2  0
 25 27  1  0
 27 28  1  0
 28 75  1  0
 28 76  1  0
 28 77  1  0
 29 30  1  0
 29 31  1  0
 29 78  1  6
 30 79  1  0
 31 47  1  0
 31 32  1  0
 31 80  1  1
 32 33  1  0
 32 81  1  0
 32 82  1  0
 33 34  1  0
 33 45  1  0
 33 83  1  6
 34 44  1  0
 34 35  1  0
 34 84  1  1
 35 44  1  0
 35 36  1  0
 35 85  1  6
 36 37  2  0
 36 38  1  1
 38 39  1  6
 38 40  1  0
 39 86  1  0
 40 41  2  0
 40 42  1  0
 42 43  1  6
 42 44  1  0
 43 87  1  0
 45 46  1  6
 45 47  1  0
 46 88  1  0
 47 48  1  0
 47 89  1  1
 48 90  1  0
M  END
>  <i_m_ct_stereo_status>  (122) 
1

>  <s_m_source_file>  (122) 
/var/tmp/pbs.5075288.sched01/tmpqqnbnjfs/192vg5g1vka.sdf

>  <i_m_source_file_index>  (122) 
53

>  <i_lp_mmshare_version>  (122) 
48012

>  <i_f3d_flags>  (122) 
2

>  <s_epik_input>  (122) 
W0NIM10vW0NIXT1DKFxbQ0gzXSlPW0NASF0oW0NIM10pW0NAQF0oW09IXSkoW0NAQEhdKFtPSF0pW0NAXTEoQzIzNClbT0hdKVtDQEBdNChbT0hdKUMoPU8pW0NAQF01KFtPSF0pW0NAQF0oT1tDSDNdKShbQ0gyXU9DKE8xKShbQ0gzXSlbQ0gzXSlPW0NAXTYoQyg9TylPW0NIM10pW0NAXTcoW09IXSlbQ0BIXShbQ0BASF0yW0NAQEhdM1tTK101W08tXSlbQ0gyXVtDQEhdKFtDQEBIXTZbT0hdKVtDQEBIXTdbT0hd

>  <s_epik_cmdline>  (122) 
J2VwaWtfcHl0aG9uJywgJy1waHQnLCAnMi4wJywgJy1waCcsICc3LjAnLCAnLXRuJywgJzgnLCAnLW1hJywgJzIwMCcsICctaW1hZScsICc8aW5maWxlLm1hZT4nLCAnLW9tYWUnLCAnPG91dGZpbGUubWFlPic=

>  <r_lp_tautomer_probability>  (122) 
1

>  <r_epik_Ionization_Penalty>  (122) 
2.2641e-05

>  <r_epik_Ionization_Penalty_Charging>  (122) 
0

>  <r_epik_Ionization_Penalty_Neutral>  (122) 
2.2641e-05

>  <r_epik_State_Penalty>  (122) 
-0

>  <r_epik_Charging_Adjusted_Penalty>  (122) 
0

>  <i_epik_Tot_Q>  (122) 
0

>  <i_epik_Tot_abs_Q>  (122) 
2

>  <s_epik_Chemistry_Notes>  (122) 
This compound has an ester and may undergo hydrolysis at high or low pH.

>  <s_lp_Force_Field>  (122) 
OPLS3e

>  <r_lp_Energy>  (122) 
201.517

>  <b_lp_Chiralities_Consistent>  (122) 
0

>  <s_lp_Variant>  (122) 
98:0-1

>  <s_i_glide_gridfile>  (122) 
pfpi4k_grid

>  <i_i_glide_lignum>  (122) 
53

>  <i_i_glide_rotatable_bonds>  (122) 
14

>  <r_i_docking_score>  (122) 
-3.58118

>  <r_i_glide_ligand_efficiency>  (122) 
-0.0746079

>  <r_i_glide_ligand_efficiency_sa>  (122) 
-0.271143

>  <r_i_glide_ligand_efficiency_ln>  (122) 
-0.735174

>  <r_i_glide_gscore>  (122) 
-3.58118

>  <r_i_glide_lipo>  (122) 
-0.269942

>  <r_i_glide_hbond>  (122) 
-0.00114549

>  <r_i_glide_metal>  (122) 
-0

>  <r_i_glide_rewards>  (122) 
-1.07477

>  <r_i_glide_evdw>  (122) 
-23.7647

>  <r_i_glide_ecoul>  (122) 
-7.69157

>  <r_i_glide_erotb>  (122) 
0.171897

>  <r_i_glide_esite>  (122) 
-0.0652474

>  <r_i_glide_emodel>  (122) 
-46.1578

>  <r_i_glide_energy>  (122) 
-31.4563

>  <r_i_glide_einternal>  (122) 
8.34868

>  <r_i_glide_intrahb_reward>  (122) 
-1

>  <i_i_glide_confnum>  (122) 
3

>  <i_i_glide_posenum>  (122) 
20

>  <r_i_glide_eff_state_penalty>  (122) 
0

>  <ligand_id>  (122) 
98

>  <original_smiles>  (122) 
CC=C(C)OC(C)C1(O)C(O)C2(O)OC(C)(C)OCC3(OC)OC4(C(=O)OC)C(O)C5CC(C6C7[S+]([O-])C3(O)C(=O)C1(O)C672)C4(O)C5O

>  <smiles>  (122) 
[H]OC12C(=O)C3(O[H])C(O[H])(C([H])(OC(=C([H])C([H])([H])[H])C([H])([H])[H])C([H])([H])[H])C([H])(O[H])C4(O[H])OC(C([H])([H])[H])(C([H])([H])[H])OC([H])([H])C1(OC([H])([H])[H])OC1(C(=O)OC([H])([H])[H])C([H])(O[H])C5([H])C([H])([H])C([H])(C6([H])C([H])(S2=O)C436)C1(O[H])C5([H])O[H]

$$$$
98:0:1
     RDKit          3D

 90 96  0  0  1  0  0  0  0  0999 V2000
    1.0365   -4.3090    3.7402 C   0  0  0  0  0  0  0  0  0  0  0  0
    1.8616   -3.1328    3.2676 C   0  0  0  0  0  0  0  0  0  0  0  0
    3.1386   -2.8394    3.6118 C   0  0  0  0  0  0  0  0  0  0  0  0
    4.0388   -3.6947    4.4856 C   0  0  0  0  0  0  0  0  0  0  0  0
    3.8389   -1.7121    3.2225 O   0  0  0  0  0  0  0  0  0  0  0  0
    3.2202   -0.6239    2.5240 C   0  0  2  0  0  0  0  0  0  0  0  0
    4.2052   -0.2583    1.3872 C   0  0  0  0  0  0  0  0  0  0  0  0
    2.8816    0.5781    3.4922 C   0  0  1  0  0  0  0  0  0  0  0  0
    4.1694    0.9658    3.9793 O   0  0  0  0  0  0  0  0  0  0  0  0
    2.2223    1.7658    2.7265 C   0  0  1  0  0  0  0  0  0  0  0  0
    1.1143    1.3720    1.9159 O   0  0  0  0  0  0  0  0  0  0  0  0
    1.7602    2.7154    3.8541 C   0  0  2  0  0  0  0  0  0  0  0  0
    0.9456    3.7269    3.2893 O   0  0  0  0  0  0  0  0  0  0  0  0
    3.0008    3.2504    4.2828 O   0  0  0  0  0  0  0  0  0  0  0  0
    3.1309    3.9949    5.4596 C   0  0  0  0  0  0  0  0  0  0  0  0
    4.6570    4.1307    5.7024 C   0  0  0  0  0  0  0  0  0  0  0  0
    2.5727    5.4154    5.2344 C   0  0  0  0  0  0  0  0  0  0  0  0
    2.5289    3.4283    6.5914 O   0  0  0  0  0  0  0  0  0  0  0  0
    3.1234    2.3004    7.2593 C   0  0  0  0  0  0  0  0  0  0  0  0
    2.0262    1.4145    7.9788 C   0  0  1  0  0  0  0  0  0  0  0  0
    2.4803    1.1418    9.2839 O   0  0  0  0  0  0  0  0  0  0  0  0
    3.7597    0.5396    9.4578 C   0  0  0  0  0  0  0  0  0  0  0  0
    0.9269    2.2604    7.9445 O   0  0  0  0  0  0  0  0  0  0  0  0
   -0.0067    2.6561    8.9434 C   0  0  1  0  0  0  0  0  0  0  0  0
   -0.1434    1.6984   10.1637 C   0  0  0  0  0  0  0  0  0  0  0  0
   -0.1880    0.4746   10.0180 O   0  0  0  0  0  0  0  0  0  0  0  0
   -0.1690    2.3298   11.3440 O   0  0  0  0  0  0  0  0  0  0  0  0
   -0.1541    1.5986   12.5530 C   0  0  0  0  0  0  0  0  0  0  0  0
    0.2960    4.1627    9.2691 C   0  0  1  0  0  0  0  0  0  0  0  0
    1.6484    4.5676    9.1132 O   0  0  0  0  0  0  0  0  0  0  0  0
   -0.7243    4.9473    8.4200 C   0  0  1  0  0  0  0  0  0  0  0  0
   -0.4612    4.7460    6.9108 C   0  0  0  0  0  0  0  0  0  0  0  0
   -0.9980    3.3265    6.6270 C   0  0  1  0  0  0  0  0  0  0  0  0
   -0.3358    2.5493    5.4310 C   0  0  2  0  0  0  0  0  0  0  0  0
   -0.3544    1.1666    5.2059 C   0  0  2  0  0  0  0  0  0  0  0  0
   -0.2672    0.1114    6.7568 S   0  0  0  0  0  0  0  0  0  0  0  0
   -0.7313   -1.3083    6.4219 O   0  0  0  0  0  0  0  0  0  0  0  0
    1.5468    0.0604    7.2520 C   0  0  2  0  0  0  0  0  0  0  0  0
    1.7192   -1.0396    8.1300 O   0  0  0  0  0  0  0  0  0  0  0  0
    2.3447   -0.2390    5.9705 C   0  0  0  0  0  0  0  0  0  0  0  0
    3.3657   -0.9135    6.0133 O   0  0  0  0  0  0  0  0  0  0  0  0
    1.8264    0.4214    4.6729 C   0  0  2  0  0  0  0  0  0  0  0  0
    1.0181   -0.5784    4.0512 O   0  0  0  0  0  0  0  0  0  0  0  0
    1.0596    1.8172    4.9528 C   0  0  2  0  0  0  0  0  0  0  0  0
   -1.3181    2.8214    8.0843 C   0  0  1  0  0  0  0  0  0  0  0  0
   -2.2898    1.7894    8.0873 O   0  0  0  0  0  0  0  0  0  0  0  0
   -1.9865    4.1080    8.6169 C   0  0  1  0  0  0  0  0  0  0  0  0
   -2.4422    4.0481    9.9525 O   0  0  0  0  0  0  0  0  0  0  0  0
    0.1401   -3.9275    4.2251 H   0  0  0  0  0  0  0  0  0  0  0  0
    1.5367   -4.9706    4.4479 H   0  0  0  0  0  0  0  0  0  0  0  0
    0.7281   -4.8961    2.8764 H   0  0  0  0  0  0  0  0  0  0  0  0
    1.3022   -2.4964    2.5942 H   0  0  0  0  0  0  0  0  0  0  0  0
    3.6181   -4.6601    4.7448 H   0  0  0  0  0  0  0  0  0  0  0  0
    4.2903   -3.1810    5.4157 H   0  0  0  0  0  0  0  0  0  0  0  0
    4.9799   -3.8790    3.9588 H   0  0  0  0  0  0  0  0  0  0  0  0
    2.3373   -0.9357    1.9817 H   0  0  0  0  0  0  0  0  0  0  0  0
    3.8189    0.5530    0.7718 H   0  0  0  0  0  0  0  0  0  0  0  0
    4.3384   -1.1172    0.7311 H   0  0  0  0  0  0  0  0  0  0  0  0
    5.1891    0.0288    1.7560 H   0  0  0  0  0  0  0  0  0  0  0  0
    4.5360    1.5830    3.3582 H   0  0  0  0  0  0  0  0  0  0  0  0
    2.9438    2.2791    2.0871 H   0  0  0  0  0  0  0  0  0  0  0  0
    1.4016    0.7991    1.2195 H   0  0  0  0  0  0  0  0  0  0  0  0
    0.9809    3.6701    2.3337 H   0  0  0  0  0  0  0  0  0  0  0  0
    5.1483    3.1564    5.6956 H   0  0  0  0  0  0  0  0  0  0  0  0
    4.8575    4.6332    6.6479 H   0  0  0  0  0  0  0  0  0  0  0  0
    5.0941    4.7174    4.8974 H   0  0  0  0  0  0  0  0  0  0  0  0
    1.5299    5.4011    4.9438 H   0  0  0  0  0  0  0  0  0  0  0  0
    3.1268    5.9107    4.4369 H   0  0  0  0  0  0  0  0  0  0  0  0
    2.6775    6.0003    6.1446 H   0  0  0  0  0  0  0  0  0  0  0  0
    3.8045    1.7094    6.6505 H   0  0  0  0  0  0  0  0  0  0  0  0
    3.7434    2.7523    8.0373 H   0  0  0  0  0  0  0  0  0  0  0  0
    3.7517   -0.0539   10.3742 H   0  0  0  0  0  0  0  0  0  0  0  0
    4.5308    1.3009    9.5651 H   0  0  0  0  0  0  0  0  0  0  0  0
    4.0468   -0.1229    8.6434 H   0  0  0  0  0  0  0  0  0  0  0  0
   -0.2444    2.2800   13.3987 H   0  0  0  0  0  0  0  0  0  0  0  0
    0.7811    1.0539   12.6541 H   0  0  0  0  0  0  0  0  0  0  0  0
   -0.9793    0.8896   12.5958 H   0  0  0  0  0  0  0  0  0  0  0  0
    0.0652    4.4114   10.3025 H   0  0  0  0  0  0  0  0  0  0  0  0
    1.9067    4.3838    8.2188 H   0  0  0  0  0  0  0  0  0  0  0  0
   -0.8135    5.9926    8.7113 H   0  0  0  0  0  0  0  0  0  0  0  0
   -0.9712    5.4893    6.3018 H   0  0  0  0  0  0  0  0  0  0  0  0
    0.5975    4.8241    6.7328 H   0  0  0  0  0  0  0  0  0  0  0  0
   -1.9932    3.4907    6.2154 H   0  0  0  0  0  0  0  0  0  0  0  0
   -0.8580    3.0024    4.5790 H   0  0  0  0  0  0  0  0  0  0  0  0
   -0.9980    0.7858    4.4114 H   0  0  0  0  0  0  0  0  0  0  0  0
    1.4952   -0.7633    9.0098 H   0  0  0  0  0  0  0  0  0  0  0  0
    1.5671   -1.3470    3.9258 H   0  0  0  0  0  0  0  0  0  0  0  0
   -3.1036    2.1642    7.7909 H   0  0  0  0  0  0  0  0  0  0  0  0
   -2.8117    4.4730    8.0010 H   0  0  0  0  0  0  0  0  0  0  0  0
   -2.7639    4.8976   10.2139 H   0  0  0  0  0  0  0  0  0  0  0  0
  1  2  1  0
  1 49  1  0
  1 50  1  0
  1 51  1  0
  2  3  2  3
  2 52  1  0
  3  4  1  0
  3  5  1  0
  4 53  1  0
  4 54  1  0
  4 55  1  0
  5  6  1  0
  6  7  1  0
  6  8  1  0
  6 56  1  6
  7 57  1  0
  7 58  1  0
  7 59  1  0
  8 42  1  0
  8  9  1  1
  8 10  1  0
  9 60  1  0
 10 11  1  0
 10 12  1  0
 10 61  1  6
 11 62  1  0
 44 12  1  6
 12 13  1  6
 12 14  1  0
 13 63  1  0
 14 15  1  0
 15 16  1  0
 15 17  1  0
 15 18  1  0
 16 64  1  0
 16 65  1  0
 16 66  1  0
 17 67  1  0
 17 68  1  0
 17 69  1  0
 18 19  1  0
 19 20  1  0
 19 70  1  0
 19 71  1  0
 20 38  1  0
 20 21  1  1
 20 23  1  0
 21 22  1  0
 22 72  1  0
 22 73  1  0
 22 74  1  0
 23 24  1  0
 24 45  1  0
 24 25  1  1
 24 29  1  0
 25 26  2  0
 25 27  1  0
 27 28  1  0
 28 75  1  0
 28 76  1  0
 28 77  1  0
 29 30  1  0
 29 31  1  0
 29 78  1  1
 30 79  1  0
 31 47  1  0
 31 32  1  0
 31 80  1  1
 32 33  1  0
 32 81  1  0
 32 82  1  0
 33 34  1  0
 33 45  1  0
 33 83  1  6
 34 44  1  0
 34 35  1  0
 34 84  1  6
 35 44  1  0
 35 36  1  0
 35 85  1  6
 36 37  2  0
 36 38  1  6
 38 39  1  1
 38 40  1  0
 39 86  1  0
 40 41  2  0
 40 42  1  0
 42 43  1  6
 42 44  1  0
 43 87  1  0
 45 46  1  6
 45 47  1  0
 46 88  1  0
 47 48  1  0
 47 89  1  6
 48 90  1  0
M  END
>  <i_m_ct_stereo_status>  (123) 
1

>  <s_m_source_file>  (123) 
/var/tmp/pbs.5075288.sched01/tmpqqnbnjfs/192vg5g1vka.sdf

>  <i_m_source_file_index>  (123) 
53

>  <i_lp_mmshare_version>  (123) 
48012

>  <i_f3d_flags>  (123) 
2

>  <s_epik_input>  (123) 
W0NIM10vW0NIXT1DKFxbQ0gzXSlPW0NASF0oW0NIM10pW0NAQF0oW09IXSkoW0NAQEhdKFtPSF0pW0NAXTEoQzIzNClbT0hdKVtDQEBdNChbT0hdKUMoPU8pW0NAQF01KFtPSF0pW0NAQF0oT1tDSDNdKShbQ0gyXU9DKE8xKShbQ0gzXSlbQ0gzXSlPW0NAXTYoQyg9TylPW0NIM10pW0NAXTcoW09IXSlbQ0BIXShbQ0BASF0yW0NAQEhdM1tTK101W08tXSlbQ0gyXVtDQEhdKFtDQEBIXTZbT0hdKVtDQEBIXTdbT0hd

>  <s_epik_cmdline>  (123) 
J2VwaWtfcHl0aG9uJywgJy1waHQnLCAnMi4wJywgJy1waCcsICc3LjAnLCAnLXRuJywgJzgnLCAnLW1hJywgJzIwMCcsICctaW1hZScsICc8aW5maWxlLm1hZT4nLCAnLW9tYWUnLCAnPG91dGZpbGUubWFlPic=

>  <r_lp_tautomer_probability>  (123) 
1

>  <r_epik_Ionization_Penalty>  (123) 
2.2641e-05

>  <r_epik_Ionization_Penalty_Charging>  (123) 
0

>  <r_epik_Ionization_Penalty_Neutral>  (123) 
2.2641e-05

>  <r_epik_State_Penalty>  (123) 
-0

>  <r_epik_Charging_Adjusted_Penalty>  (123) 
0

>  <i_epik_Tot_Q>  (123) 
0

>  <i_epik_Tot_abs_Q>  (123) 
2

>  <s_epik_Chemistry_Notes>  (123) 
This compound has an ester and may undergo hydrolysis at high or low pH.

>  <s_lp_Force_Field>  (123) 
OPLS3e

>  <r_lp_Energy>  (123) 
201.517

>  <b_lp_Chiralities_Consistent>  (123) 
0

>  <s_lp_Variant>  (123) 
98:0-1

>  <s_i_glide_gridfile>  (123) 
pfpi4k_grid

>  <i_i_glide_lignum>  (123) 
53

>  <i_i_glide_rotatable_bonds>  (123) 
14

>  <r_i_docking_score>  (123) 
-3.54836

>  <r_i_glide_ligand_efficiency>  (123) 
-0.0739242

>  <r_i_glide_ligand_efficiency_sa>  (123) 
-0.268658

>  <r_i_glide_ligand_efficiency_ln>  (123) 
-0.728437

>  <r_i_glide_gscore>  (123) 
-3.54836

>  <r_i_glide_lipo>  (123) 
-0.140747

>  <r_i_glide_hbond>  (123) 
-0.00302278

>  <r_i_glide_metal>  (123) 
-0

>  <r_i_glide_rewards>  (123) 
-1

>  <r_i_glide_evdw>  (123) 
-25.7674

>  <r_i_glide_ecoul>  (123) 
-7.97149

>  <r_i_glide_erotb>  (123) 
0.171897

>  <r_i_glide_esite>  (123) 
-0.0923972

>  <r_i_glide_emodel>  (123) 
-49.0324

>  <r_i_glide_energy>  (123) 
-33.7389

>  <r_i_glide_einternal>  (123) 
7.46443

>  <r_i_glide_intrahb_reward>  (123) 
-1

>  <i_i_glide_confnum>  (123) 
6

>  <i_i_glide_posenum>  (123) 
19

>  <r_i_glide_eff_state_penalty>  (123) 
0

>  <ligand_id>  (123) 
98

>  <original_smiles>  (123) 
CC=C(C)OC(C)C1(O)C(O)C2(O)OC(C)(C)OCC3(OC)OC4(C(=O)OC)C(O)C5CC(C6C7[S+]([O-])C3(O)C(=O)C1(O)C672)C4(O)C5O

>  <smiles>  (123) 
[H]OC12C(=O)C3(O[H])C(O[H])(C([H])(OC(=C([H])C([H])([H])[H])C([H])([H])[H])C([H])([H])[H])C([H])(O[H])C4(O[H])OC(C([H])([H])[H])(C([H])([H])[H])OC([H])([H])C1(OC([H])([H])[H])OC1(C(=O)OC([H])([H])[H])C([H])(O[H])C5([H])C([H])([H])C([H])(C6([H])C([H])(S2=O)C436)C1(O[H])C5([H])O[H]

$$$$
98:0:2
     RDKit          3D

 90 96  0  0  1  0  0  0  0  0999 V2000
    2.4619   -2.6541   -3.1564 C   0  0  0  0  0  0  0  0  0  0  0  0
    3.0643   -2.7903   -1.7741 C   0  0  0  0  0  0  0  0  0  0  0  0
    4.1782   -3.4746   -1.4267 C   0  0  0  0  0  0  0  0  0  0  0  0
    5.0511   -4.2558   -2.3869 C   0  0  0  0  0  0  0  0  0  0  0  0
    4.6958   -3.5880   -0.1589 O   0  0  0  0  0  0  0  0  0  0  0  0
    4.2835   -2.7278    0.9022 C   0  0  2  0  0  0  0  0  0  0  0  0
    5.2485   -1.5255    0.9158 C   0  0  0  0  0  0  0  0  0  0  0  0
    4.2530   -3.5743    2.2277 C   0  0  1  0  0  0  0  0  0  0  0  0
    5.6165   -3.9510    2.3833 O   0  0  0  0  0  0  0  0  0  0  0  0
    3.7928   -2.7161    3.4407 C   0  0  1  0  0  0  0  0  0  0  0  0
    2.5647   -2.0283    3.1906 O   0  0  0  0  0  0  0  0  0  0  0  0
    3.6229   -3.7380    4.5718 C   0  0  2  0  0  0  0  0  0  0  0  0
    2.9795   -3.1102    5.6572 O   0  0  0  0  0  0  0  0  0  0  0  0
    4.9800   -4.0484    4.8699 O   0  0  0  0  0  0  0  0  0  0  0  0
    5.3328   -5.1142    5.6957 C   0  0  0  0  0  0  0  0  0  0  0  0
    6.8656   -5.2653    5.5427 C   0  0  0  0  0  0  0  0  0  0  0  0
    5.0650   -4.7586    7.1778 C   0  0  0  0  0  0  0  0  0  0  0  0
    4.6974   -6.3156    5.3700 O   0  0  0  0  0  0  0  0  0  0  0  0
    5.1047   -7.0991    4.2311 C   0  0  0  0  0  0  0  0  0  0  0  0
    3.9014   -7.9666    3.6741 C   0  0  1  0  0  0  0  0  0  0  0  0
    4.3780   -9.2771    3.4524 O   0  0  0  0  0  0  0  0  0  0  0  0
    5.5195   -9.4612    2.6107 C   0  0  0  0  0  0  0  0  0  0  0  0
    3.0002   -7.8784    4.7208 O   0  0  0  0  0  0  0  0  0  0  0  0
    2.2474   -8.8786    5.4043 C   0  0  1  0  0  0  0  0  0  0  0  0
    2.0150  -10.2151    4.6611 C   0  0  0  0  0  0  0  0  0  0  0  0
    2.5728  -11.2580    5.0144 O   0  0  0  0  0  0  0  0  0  0  0  0
    1.2256  -10.0976    3.5939 O   0  0  0  0  0  0  0  0  0  0  0  0
    0.8034  -11.2485    2.8992 C   0  0  0  0  0  0  0  0  0  0  0  0
    2.8693   -9.0303    6.8336 C   0  0  1  0  0  0  0  0  0  0  0  0
    4.2641   -8.7895    6.9481 O   0  0  0  0  0  0  0  0  0  0  0  0
    1.9866   -8.1435    7.7419 C   0  0  1  0  0  0  0  0  0  0  0  0
    2.0940   -6.6577    7.3325 C   0  0  0  0  0  0  0  0  0  0  0  0
    1.2587   -6.5668    6.0319 C   0  0  1  0  0  0  0  0  0  0  0  0
    1.6559   -5.4362    4.9912 C   0  0  2  0  0  0  0  0  0  0  0  0
    1.3336   -5.3418    3.6311 C   0  0  2  0  0  0  0  0  0  0  0  0
    1.3161   -7.0056    2.7558 S   0  0  0  0  0  0  0  0  0  0  0  0
    0.5754   -6.7901    1.4431 O   0  0  0  0  0  0  0  0  0  0  0  0
    3.1170   -7.4325    2.3772 C   0  0  2  0  0  0  0  0  0  0  0  0
    3.1364   -8.4195    1.3573 O   0  0  0  0  0  0  0  0  0  0  0  0
    3.7460   -6.1546    1.7907 C   0  0  0  0  0  0  0  0  0  0  0  0
    4.5967   -6.2006    0.9072 O   0  0  0  0  0  0  0  0  0  0  0  0
    3.2747   -4.8138    2.3869 C   0  0  2  0  0  0  0  0  0  0  0  0
    2.2567   -4.3776    1.4834 O   0  0  0  0  0  0  0  0  0  0  0  0
    2.8200   -4.9372    3.9331 C   0  0  2  0  0  0  0  0  0  0  0  0
    0.9421   -8.0815    5.7708 C   0  0  1  0  0  0  0  0  0  0  0  0
   -0.2543   -8.2206    5.0329 O   0  0  0  0  0  0  0  0  0  0  0  0
    0.6055   -8.4938    7.2134 C   0  0  1  0  0  0  0  0  0  0  0  0
    0.1907   -9.8249    7.4094 O   0  0  0  0  0  0  0  0  0  0  0  0
    1.4165   -2.9610   -3.1187 H   0  0  0  0  0  0  0  0  0  0  0  0
    2.9540   -3.2524   -3.9205 H   0  0  0  0  0  0  0  0  0  0  0  0
    2.4964   -1.6079   -3.4611 H   0  0  0  0  0  0  0  0  0  0  0  0
    2.4872   -2.2581   -1.0415 H   0  0  0  0  0  0  0  0  0  0  0  0
    4.7917   -4.1422   -3.4367 H   0  0  0  0  0  0  0  0  0  0  0  0
    5.0222   -5.3032   -2.1239 H   0  0  0  0  0  0  0  0  0  0  0  0
    6.0824   -3.9033   -2.2653 H   0  0  0  0  0  0  0  0  0  0  0  0
    3.3029   -2.2925    0.7675 H   0  0  0  0  0  0  0  0  0  0  0  0
    5.0159   -0.8366    1.7262 H   0  0  0  0  0  0  0  0  0  0  0  0
    5.1601   -0.9647   -0.0127 H   0  0  0  0  0  0  0  0  0  0  0  0
    6.2880   -1.8300    1.0204 H   0  0  0  0  0  0  0  0  0  0  0  0
    5.8384   -4.5167    1.6542 H   0  0  0  0  0  0  0  0  0  0  0  0
    4.5413   -1.9723    3.7205 H   0  0  0  0  0  0  0  0  0  0  0  0
    2.6808   -1.4417    2.4538 H   0  0  0  0  0  0  0  0  0  0  0  0
    2.9536   -3.7351    6.3692 H   0  0  0  0  0  0  0  0  0  0  0  0
    7.1543   -5.3563    4.4935 H   0  0  0  0  0  0  0  0  0  0  0  0
    7.2377   -6.1347    6.0888 H   0  0  0  0  0  0  0  0  0  0  0  0
    7.3656   -4.3755    5.9320 H   0  0  0  0  0  0  0  0  0  0  0  0
    4.0253   -4.5359    7.3732 H   0  0  0  0  0  0  0  0  0  0  0  0
    5.6492   -3.8848    7.4683 H   0  0  0  0  0  0  0  0  0  0  0  0
    5.3559   -5.5933    7.8167 H   0  0  0  0  0  0  0  0  0  0  0  0
    5.6153   -6.5344    3.4531 H   0  0  0  0  0  0  0  0  0  0  0  0
    5.8524   -7.7833    4.6358 H   0  0  0  0  0  0  0  0  0  0  0  0
    5.4528  -10.4433    2.1402 H   0  0  0  0  0  0  0  0  0  0  0  0
    6.4449   -9.4305    3.1844 H   0  0  0  0  0  0  0  0  0  0  0  0
    5.5939   -8.7227    1.8130 H   0  0  0  0  0  0  0  0  0  0  0  0
    0.1632  -10.9532    2.0710 H   0  0  0  0  0  0  0  0  0  0  0  0
    0.2279  -11.9072    3.5513 H   0  0  0  0  0  0  0  0  0  0  0  0
    1.6594  -11.7940    2.4999 H   0  0  0  0  0  0  0  0  0  0  0  0
    2.7560  -10.0579    7.1906 H   0  0  0  0  0  0  0  0  0  0  0  0
    4.7111   -9.4433    6.4294 H   0  0  0  0  0  0  0  0  0  0  0  0
    2.1356   -8.3190    8.8066 H   0  0  0  0  0  0  0  0  0  0  0  0
    1.6987   -5.9978    8.1036 H   0  0  0  0  0  0  0  0  0  0  0  0
    3.1331   -6.4220    7.1754 H   0  0  0  0  0  0  0  0  0  0  0  0
    0.2911   -6.1813    6.3622 H   0  0  0  0  0  0  0  0  0  0  0  0
    1.1812   -4.5794    5.4554 H   0  0  0  0  0  0  0  0  0  0  0  0
    0.5880   -4.6203    3.3007 H   0  0  0  0  0  0  0  0  0  0  0  0
    2.9670   -9.2627    1.7580 H   0  0  0  0  0  0  0  0  0  0  0  0
    2.6595   -4.2670    0.6316 H   0  0  0  0  0  0  0  0  0  0  0  0
   -0.4946   -9.1407    5.0386 H   0  0  0  0  0  0  0  0  0  0  0  0
   -0.1588   -7.8642    7.6720 H   0  0  0  0  0  0  0  0  0  0  0  0
    0.8958  -10.4688    7.2966 H   0  0  0  0  0  0  0  0  0  0  0  0
  1  2  1  0
  1 49  1  0
  1 50  1  0
  1 51  1  0
  2  3  2  3
  2 52  1  0
  3  4  1  0
  3  5  1  0
  4 53  1  0
  4 54  1  0
  4 55  1  0
  5  6  1  0
  6  7  1  0
  6  8  1  0
  6 56  1  6
  7 57  1  0
  7 58  1  0
  7 59  1  0
  8 42  1  0
  8  9  1  1
  8 10  1  0
  9 60  1  0
 10 11  1  0
 10 12  1  0
 10 61  1  1
 11 62  1  0
 44 12  1  1
 12 13  1  1
 12 14  1  0
 13 63  1  0
 14 15  1  0
 15 16  1  0
 15 17  1  0
 15 18  1  0
 16 64  1  0
 16 65  1  0
 16 66  1  0
 17 67  1  0
 17 68  1  0
 17 69  1  0
 18 19  1  0
 19 20  1  0
 19 70  1  0
 19 71  1  0
 20 38  1  0
 20 21  1  6
 20 23  1  0
 21 22  1  0
 22 72  1  0
 22 73  1  0
 22 74  1  0
 23 24  1  0
 24 45  1  0
 24 25  1  6
 24 29  1  0
 25 26  2  0
 25 27  1  0
 27 28  1  0
 28 75  1  0
 28 76  1  0
 28 77  1  0
 29 30  1  0
 29 31  1  0
 29 78  1  1
 30 79  1  0
 31 47  1  0
 31 32  1  0
 31 80  1  1
 32 33  1  0
 32 81  1  0
 32 82  1  0
 33 34  1  0
 33 45  1  0
 33 83  1  1
 34 44  1  0
 34 35  1  0
 34 84  1  1
 35 44  1  0
 35 36  1  0
 35 85  1  1
 36 37  2  0
 36 38  1  6
 38 39  1  6
 38 40  1  0
 39 86  1  0
 40 41  2  0
 40 42  1  0
 42 43  1  6
 42 44  1  0
 43 87  1  0
 45 46  1  6
 45 47  1  0
 46 88  1  0
 47 48  1  0
 47 89  1  1
 48 90  1  0
M  END
>  <i_m_ct_stereo_status>  (124) 
1

>  <s_m_source_file>  (124) 
/var/tmp/pbs.5075288.sched01/tmpqqnbnjfs/192vg5g1vka.sdf

>  <i_m_source_file_index>  (124) 
53

>  <i_lp_mmshare_version>  (124) 
48012

>  <i_f3d_flags>  (124) 
2

>  <s_epik_input>  (124) 
W0NIM10vW0NIXT1DKFxbQ0gzXSlPW0NASF0oW0NIM10pW0NAQF0oW09IXSkoW0NAQEhdKFtPSF0pW0NAXTEoQzIzNClbT0hdKVtDQEBdNChbT0hdKUMoPU8pW0NAQF01KFtPSF0pW0NAQF0oT1tDSDNdKShbQ0gyXU9DKE8xKShbQ0gzXSlbQ0gzXSlPW0NAXTYoQyg9TylPW0NIM10pW0NAXTcoW09IXSlbQ0BIXShbQ0BASF0yW0NAQEhdM1tTK101W08tXSlbQ0gyXVtDQEhdKFtDQEBIXTZbT0hdKVtDQEBIXTdbT0hd

>  <s_epik_cmdline>  (124) 
J2VwaWtfcHl0aG9uJywgJy1waHQnLCAnMi4wJywgJy1waCcsICc3LjAnLCAnLXRuJywgJzgnLCAnLW1hJywgJzIwMCcsICctaW1hZScsICc8aW5maWxlLm1hZT4nLCAnLW9tYWUnLCAnPG91dGZpbGUubWFlPic=

>  <r_lp_tautomer_probability>  (124) 
1

>  <r_epik_Ionization_Penalty>  (124) 
2.2641e-05

>  <r_epik_Ionization_Penalty_Charging>  (124) 
0

>  <r_epik_Ionization_Penalty_Neutral>  (124) 
2.2641e-05

>  <r_epik_State_Penalty>  (124) 
-0

>  <r_epik_Charging_Adjusted_Penalty>  (124) 
0

>  <i_epik_Tot_Q>  (124) 
0

>  <i_epik_Tot_abs_Q>  (124) 
2

>  <s_epik_Chemistry_Notes>  (124) 
This compound has an ester and may undergo hydrolysis at high or low pH.

>  <s_lp_Force_Field>  (124) 
OPLS3e

>  <r_lp_Energy>  (124) 
201.517

>  <b_lp_Chiralities_Consistent>  (124) 
0

>  <s_lp_Variant>  (124) 
98:0-1

>  <s_i_glide_gridfile>  (124) 
pfpi4k_grid

>  <i_i_glide_lignum>  (124) 
53

>  <i_i_glide_rotatable_bonds>  (124) 
14

>  <r_i_docking_score>  (124) 
-3.43182

>  <r_i_glide_ligand_efficiency>  (124) 
-0.0714963

>  <r_i_glide_ligand_efficiency_sa>  (124) 
-0.259835

>  <r_i_glide_ligand_efficiency_ln>  (124) 
-0.704513

>  <r_i_glide_gscore>  (124) 
-3.43182

>  <r_i_glide_lipo>  (124) 
-0.309412

>  <r_i_glide_hbond>  (124) 
-0.0342876

>  <r_i_glide_metal>  (124) 
-0

>  <r_i_glide_rewards>  (124) 
-0.542715

>  <r_i_glide_evdw>  (124) 
-32.8431

>  <r_i_glide_ecoul>  (124) 
-6.78841

>  <r_i_glide_erotb>  (124) 
0.171897

>  <r_i_glide_esite>  (124) 
-0.0568884

>  <r_i_glide_emodel>  (124) 
-51.9551

>  <r_i_glide_energy>  (124) 
-39.6315

>  <r_i_glide_einternal>  (124) 
4.60408

>  <r_i_glide_intrahb_reward>  (124) 
-0.5

>  <i_i_glide_confnum>  (124) 
3

>  <i_i_glide_posenum>  (124) 
1

>  <r_i_glide_eff_state_penalty>  (124) 
0

>  <ligand_id>  (124) 
98

>  <original_smiles>  (124) 
CC=C(C)OC(C)C1(O)C(O)C2(O)OC(C)(C)OCC3(OC)OC4(C(=O)OC)C(O)C5CC(C6C7[S+]([O-])C3(O)C(=O)C1(O)C672)C4(O)C5O

>  <smiles>  (124) 
[H]OC12C(=O)C3(O[H])C(O[H])(C([H])(OC(=C([H])C([H])([H])[H])C([H])([H])[H])C([H])([H])[H])C([H])(O[H])C4(O[H])OC(C([H])([H])[H])(C([H])([H])[H])OC([H])([H])C1(OC([H])([H])[H])OC1(C(=O)OC([H])([H])[H])C([H])(O[H])C5([H])C([H])([H])C([H])(C6([H])C([H])(S2=O)C436)C1(O[H])C5([H])O[H]

$$$$
98:1:0
     RDKit          3D

 90 96  0  0  1  0  0  0  0  0999 V2000
    4.5357   -2.7185    4.5773 C   0  0  0  0  0  0  0  0  0  0  0  0
    3.7363   -2.8181    3.3004 C   0  0  0  0  0  0  0  0  0  0  0  0
    2.9912   -1.8499    2.7288 C   0  0  0  0  0  0  0  0  0  0  0  0
    2.2161   -2.0939    1.4386 C   0  0  0  0  0  0  0  0  0  0  0  0
    2.9353   -0.6018    3.3126 O   0  0  0  0  0  0  0  0  0  0  0  0
    2.1987    0.4712    2.7139 C   0  0  2  0  0  0  0  0  0  0  0  0
    2.8045    0.8986    1.3465 C   0  0  0  0  0  0  0  0  0  0  0  0
    2.0639    1.6481    3.7623 C   0  0  1  0  0  0  0  0  0  0  0  0
    3.4182    2.0039    4.0010 O   0  0  0  0  0  0  0  0  0  0  0  0
    1.2953    2.8537    3.1545 C   0  0  1  0  0  0  0  0  0  0  0  0
    0.0473    2.4851    2.5879 O   0  0  0  0  0  0  0  0  0  0  0  0
    1.1158    3.7969    4.3466 C   0  0  2  0  0  0  0  0  0  0  0  0
    0.2500    4.8318    3.9348 O   0  0  0  0  0  0  0  0  0  0  0  0
    2.4338    4.3019    4.5299 O   0  0  0  0  0  0  0  0  0  0  0  0
    2.8390    5.0320    5.6566 C   0  0  0  0  0  0  0  0  0  0  0  0
    4.3734    5.1396    5.5613 C   0  0  0  0  0  0  0  0  0  0  0  0
    2.2474    6.4500    5.5827 C   0  0  0  0  0  0  0  0  0  0  0  0
    2.4778    4.4426    6.8792 O   0  0  0  0  0  0  0  0  0  0  0  0
    3.1435    3.2607    7.3632 C   0  0  0  0  0  0  0  0  0  0  0  0
    2.1874    2.4059    8.2906 C   0  0  1  0  0  0  0  0  0  0  0  0
    2.9062    2.0788    9.4603 O   0  0  0  0  0  0  0  0  0  0  0  0
    4.1606    1.4023    9.3272 C   0  0  0  0  0  0  0  0  0  0  0  0
    1.1699    3.3157    8.5425 O   0  0  0  0  0  0  0  0  0  0  0  0
    0.3941    3.6109    9.7078 C   0  0  1  0  0  0  0  0  0  0  0  0
    0.4873    2.5479   10.8446 C   0  0  0  0  0  0  0  0  0  0  0  0
    1.1011    2.7570   11.8934 O   0  0  0  0  0  0  0  0  0  0  0  0
   -0.1267    1.3931   10.5314 O   0  0  0  0  0  0  0  0  0  0  0  0
   -0.2020    0.3317   11.4621 C   0  0  0  0  0  0  0  0  0  0  0  0
    0.8139    5.0544   10.1251 C   0  0  1  0  0  0  0  0  0  0  0  0
    2.1396    5.4371    9.8091 O   0  0  0  0  0  0  0  0  0  0  0  0
   -0.2838    5.9463    9.4961 C   0  0  1  0  0  0  0  0  0  0  0  0
   -0.2860    5.8362    7.9530 C   0  0  0  0  0  0  0  0  0  0  0  0
   -0.9499    4.4651    7.6774 C   0  0  1  0  0  0  0  0  0  0  0  0
   -0.5843    3.7030    6.3212 C   0  0  2  0  0  0  0  0  0  0  0  0
   -0.7396    2.3335    6.0647 C   0  0  2  0  0  0  0  0  0  0  0  0
   -0.3727    1.2638    7.5496 S   0  0  0  0  0  0  0  0  0  0  0  0
   -0.9625   -0.1215    7.2588 O   0  0  0  0  0  0  0  0  0  0  0  0
    1.4908    1.0994    7.6806 C   0  0  2  0  0  0  0  0  0  0  0  0
    1.7750   -0.0272    8.5094 O   0  0  0  0  0  0  0  0  0  0  0  0
    1.9791    0.7665    6.2679 C   0  0  0  0  0  0  0  0  0  0  0  0
    2.9149   -0.0157    6.0884 O   0  0  0  0  0  0  0  0  0  0  0  0
    1.2411    1.4603    5.1010 C   0  0  2  0  0  0  0  0  0  0  0  0
    0.2785    0.4827    4.6701 O   0  0  0  0  0  0  0  0  0  0  0  0
    0.6311    2.9089    5.5494 C   0  0  2  0  0  0  0  0  0  0  0  0
   -1.0530    3.8917    9.1286 C   0  0  1  0  0  0  0  0  0  0  0  0
   -2.1079    2.9469    9.2626 O   0  0  0  0  0  0  0  0  0  0  0  0
   -1.5285    5.1617    9.8593 C   0  0  1  0  0  0  0  0  0  0  0  0
   -1.7381    4.9890   11.2531 O   0  0  0  0  0  0  0  0  0  0  0  0
    5.5842   -2.9564    4.3930 H   0  0  0  0  0  0  0  0  0  0  0  0
    4.1468   -3.4366    5.3051 H   0  0  0  0  0  0  0  0  0  0  0  0
    4.4840   -1.7226    5.0210 H   0  0  0  0  0  0  0  0  0  0  0  0
    3.7713   -3.7761    2.8073 H   0  0  0  0  0  0  0  0  0  0  0  0
    2.0983   -3.1834    1.2662 H   0  0  0  0  0  0  0  0  0  0  0  0
    2.7234   -1.6756    0.5974 H   0  0  0  0  0  0  0  0  0  0  0  0
    1.1958   -1.7072    1.4997 H   0  0  0  0  0  0  0  0  0  0  0  0
    1.1891    0.1316    2.5004 H   0  0  0  0  0  0  0  0  0  0  0  0
    2.2473    1.7682    0.9878 H   0  0  0  0  0  0  0  0  0  0  0  0
    2.7393    0.1670    0.5956 H   0  0  0  0  0  0  0  0  0  0  0  0
    3.8522    1.1897    1.4715 H   0  0  0  0  0  0  0  0  0  0  0  0
    3.8225    2.1988    3.1642 H   0  0  0  0  0  0  0  0  0  0  0  0
    1.8762    3.3611    2.3760 H   0  0  0  0  0  0  0  0  0  0  0  0
   -0.1375    3.1222    1.8941 H   0  0  0  0  0  0  0  0  0  0  0  0
    0.4034    4.9948    3.0120 H   0  0  0  0  0  0  0  0  0  0  0  0
    4.8348    4.1583    5.4422 H   0  0  0  0  0  0  0  0  0  0  0  0
    4.7897    5.6261    6.4504 H   0  0  0  0  0  0  0  0  0  0  0  0
    4.6525    5.7290    4.6842 H   0  0  0  0  0  0  0  0  0  0  0  0
    1.1653    6.4420    5.5904 H   0  0  0  0  0  0  0  0  0  0  0  0
    2.5667    6.9533    4.6683 H   0  0  0  0  0  0  0  0  0  0  0  0
    2.5906    7.0413    6.4351 H   0  0  0  0  0  0  0  0  0  0  0  0
    3.6256    2.6669    6.5873 H   0  0  0  0  0  0  0  0  0  0  0  0
    3.9521    3.6516    7.9728 H   0  0  0  0  0  0  0  0  0  0  0  0
    4.3232    0.7874   10.2077 H   0  0  0  0  0  0  0  0  0  0  0  0
    4.9893    2.1023    9.2636 H   0  0  0  0  0  0  0  0  0  0  0  0
    4.2112    0.7440    8.4618 H   0  0  0  0  0  0  0  0  0  0  0  0
   -0.7181   -0.5121   11.0028 H   0  0  0  0  0  0  0  0  0  0  0  0
   -0.7709    0.6420   12.3389 H   0  0  0  0  0  0  0  0  0  0  0  0
    0.7909   -0.0040   11.7704 H   0  0  0  0  0  0  0  0  0  0  0  0
    0.7524    5.1658   11.2045 H   0  0  0  0  0  0  0  0  0  0  0  0
    2.2598    5.3449    8.8736 H   0  0  0  0  0  0  0  0  0  0  0  0
   -0.2637    6.9748    9.8669 H   0  0  0  0  0  0  0  0  0  0  0  0
   -0.8369    6.6553    7.4947 H   0  0  0  0  0  0  0  0  0  0  0  0
    0.7325    5.8889    7.6030 H   0  0  0  0  0  0  0  0  0  0  0  0
   -1.9942    4.7146    7.4746 H   0  0  0  0  0  0  0  0  0  0  0  0
   -1.2350    4.2089    5.6353 H   0  0  0  0  0  0  0  0  0  0  0  0
   -1.5493    1.9798    5.4086 H   0  0  0  0  0  0  0  0  0  0  0  0
    1.7035    0.2554    9.4113 H   0  0  0  0  0  0  0  0  0  0  0  0
   -0.1697    0.8297    3.9119 H   0  0  0  0  0  0  0  0  0  0  0  0
   -2.2032    2.7389   10.1834 H   0  0  0  0  0  0  0  0  0  0  0  0
   -2.4308    5.6082    9.4233 H   0  0  0  0  0  0  0  0  0  0  0  0
   -2.4463    4.3733   11.3888 H   0  0  0  0  0  0  0  0  0  0  0  0
  1  2  1  0
  1 49  1  0
  1 50  1  0
  1 51  1  0
  2  3  2  3
  2 52  1  0
  3  4  1  0
  3  5  1  0
  4 53  1  0
  4 54  1  0
  4 55  1  0
  5  6  1  0
  6  7  1  0
  6  8  1  0
  6 56  1  6
  7 57  1  0
  7 58  1  0
  7 59  1  0
  8 42  1  0
  8  9  1  1
  8 10  1  0
  9 60  1  0
 10 11  1  0
 10 12  1  0
 10 61  1  6
 11 62  1  0
 44 12  1  6
 12 13  1  6
 12 14  1  0
 13 63  1  0
 14 15  1  0
 15 16  1  0
 15 17  1  0
 15 18  1  0
 16 64  1  0
 16 65  1  0
 16 66  1  0
 17 67  1  0
 17 68  1  0
 17 69  1  0
 18 19  1  0
 19 20  1  0
 19 70  1  0
 19 71  1  0
 20 38  1  0
 20 21  1  1
 20 23  1  0
 21 22  1  0
 22 72  1  0
 22 73  1  0
 22 74  1  0
 23 24  1  0
 24 45  1  0
 24 25  1  1
 24 29  1  0
 25 26  2  0
 25 27  1  0
 27 28  1  0
 28 75  1  0
 28 76  1  0
 28 77  1  0
 29 30  1  0
 29 31  1  0
 29 78  1  1
 30 79  1  0
 31 47  1  0
 31 32  1  0
 31 80  1  6
 32 33  1  0
 32 81  1  0
 32 82  1  0
 33 34  1  0
 33 45  1  0
 33 83  1  6
 34 44  1  0
 34 35  1  0
 34 84  1  6
 35 44  1  0
 35 36  1  0
 35 85  1  6
 36 37  2  0
 36 38  1  6
 38 39  1  1
 38 40  1  0
 39 86  1  0
 40 41  2  0
 40 42  1  0
 42 43  1  6
 42 44  1  0
 43 87  1  0
 45 46  1  6
 45 47  1  0
 46 88  1  0
 47 48  1  0
 47 89  1  6
 48 90  1  0
M  END
>  <i_m_ct_stereo_status>  (125) 
1

>  <s_m_source_file>  (125) 
/var/tmp/pbs.5075288.sched01/tmpqqnbnjfs/192vg5g1vka.sdf

>  <i_m_source_file_index>  (125) 
54

>  <i_lp_mmshare_version>  (125) 
48012

>  <i_f3d_flags>  (125) 
2

>  <s_epik_input>  (125) 
W0NIM10vW0NIXT1DKFxbQ0gzXSlPW0NASF0oW0NIM10pW0NAQF0oW09IXSkoW0NAQEhdKFtPSF0pW0NAXTEoQzIzNClbT0hdKVtDQEBdNChbT0hdKUMoPU8pW0NAQF01KFtPSF0pW0NAQF0oT1tDSDNdKShbQ0gyXU9DKE8xKShbQ0gzXSlbQ0gzXSlPW0NAXTYoQyg9TylPW0NIM10pW0NAXTcoW09IXSlbQ0BIXShbQ0BASF0yW0NAQEhdM1tTK101W08tXSlbQ0gyXVtDQEhdKFtDQEBIXTZbT0hdKVtDQEBIXTdbT0hd

>  <s_epik_cmdline>  (125) 
J2VwaWtfcHl0aG9uJywgJy1waHQnLCAnMi4wJywgJy1waCcsICc3LjAnLCAnLXRuJywgJzgnLCAnLW1hJywgJzIwMCcsICctaW1hZScsICc8aW5maWxlLm1hZT4nLCAnLW9tYWUnLCAnPG91dGZpbGUubWFlPic=

>  <r_lp_tautomer_probability>  (125) 
1

>  <r_epik_Ionization_Penalty>  (125) 
2.2641e-05

>  <r_epik_Ionization_Penalty_Charging>  (125) 
0

>  <r_epik_Ionization_Penalty_Neutral>  (125) 
2.2641e-05

>  <r_epik_State_Penalty>  (125) 
-0

>  <r_epik_Charging_Adjusted_Penalty>  (125) 
0

>  <i_epik_Tot_Q>  (125) 
0

>  <i_epik_Tot_abs_Q>  (125) 
2

>  <s_epik_Chemistry_Notes>  (125) 
This compound has an ester and may undergo hydrolysis at high or low pH.

>  <s_lp_Force_Field>  (125) 
OPLS3e

>  <r_lp_Energy>  (125) 
207.482

>  <b_lp_Chiralities_Consistent>  (125) 
0

>  <s_lp_Variant>  (125) 
98:0-2

>  <s_i_glide_gridfile>  (125) 
pfpi4k_grid

>  <i_i_glide_lignum>  (125) 
54

>  <i_i_glide_rotatable_bonds>  (125) 
14

>  <r_i_docking_score>  (125) 
-4.15805

>  <r_i_glide_ligand_efficiency>  (125) 
-0.086626

>  <r_i_glide_ligand_efficiency_sa>  (125) 
-0.31482

>  <r_i_glide_ligand_efficiency_ln>  (125) 
-0.853598

>  <r_i_glide_gscore>  (125) 
-4.15805

>  <r_i_glide_lipo>  (125) 
-0.0793907

>  <r_i_glide_hbond>  (125) 
-0.082543

>  <r_i_glide_metal>  (125) 
-0

>  <r_i_glide_rewards>  (125) 
-1

>  <r_i_glide_evdw>  (125) 
-18.0483

>  <r_i_glide_ecoul>  (125) 
-14.6619

>  <r_i_glide_erotb>  (125) 
0.171897

>  <r_i_glide_esite>  (125) 
-0.0663105

>  <r_i_glide_emodel>  (125) 
-48.1475

>  <r_i_glide_energy>  (125) 
-32.7102

>  <r_i_glide_einternal>  (125) 
8.26679

>  <r_i_glide_intrahb_reward>  (125) 
-1

>  <i_i_glide_confnum>  (125) 
2

>  <i_i_glide_posenum>  (125) 
3

>  <r_i_glide_eff_state_penalty>  (125) 
0

>  <ligand_id>  (125) 
98

>  <original_smiles>  (125) 
CC=C(C)OC(C)C1(O)C(O)C2(O)OC(C)(C)OCC3(OC)OC4(C(=O)OC)C(O)C5CC(C6C7[S+]([O-])C3(O)C(=O)C1(O)C672)C4(O)C5O

>  <smiles>  (125) 
[H]OC12C(=O)C3(O[H])C(O[H])(C([H])(OC(=C([H])C([H])([H])[H])C([H])([H])[H])C([H])([H])[H])C([H])(O[H])C4(O[H])OC(C([H])([H])[H])(C([H])([H])[H])OC([H])([H])C1(OC([H])([H])[H])OC1(C(=O)OC([H])([H])[H])C([H])(O[H])C5([H])C([H])([H])C([H])(C6([H])C([H])(S2=O)C436)C1(O[H])C5([H])O[H]

$$$$
98:1:1
     RDKit          3D

 90 96  0  0  1  0  0  0  0  0999 V2000
   -2.7269    3.0073    3.9391 C   0  0  0  0  0  0  0  0  0  0  0  0
   -2.9794    3.1615    5.4322 C   0  0  0  0  0  0  0  0  0  0  0  0
   -2.2375    2.6507    6.4318 C   0  0  0  0  0  0  0  0  0  0  0  0
   -2.5836    2.7986    7.8945 C   0  0  0  0  0  0  0  0  0  0  0  0
   -1.1178    1.9411    6.0883 O   0  0  0  0  0  0  0  0  0  0  0  0
   -0.0790    1.6210    7.0237 C   0  0  2  0  0  0  0  0  0  0  0  0
    0.8467    2.8537    7.0728 C   0  0  0  0  0  0  0  0  0  0  0  0
    0.5974    0.2475    6.6737 C   0  0  1  0  0  0  0  0  0  0  0  0
    1.5817    0.1499    7.7029 O   0  0  0  0  0  0  0  0  0  0  0  0
   -0.3576   -0.9520    6.8406 C   0  0  1  0  0  0  0  0  0  0  0  0
   -1.5667   -0.7820    6.0753 O   0  0  0  0  0  0  0  0  0  0  0  0
    0.4329   -2.1629    6.3419 C   0  0  2  0  0  0  0  0  0  0  0  0
   -0.4631   -3.2549    6.2106 O   0  0  0  0  0  0  0  0  0  0  0  0
    1.3392   -2.3690    7.4055 O   0  0  0  0  0  0  0  0  0  0  0  0
    2.4320   -3.2289    7.3060 C   0  0  0  0  0  0  0  0  0  0  0  0
    3.2814   -2.9716    8.5791 C   0  0  0  0  0  0  0  0  0  0  0  0
    1.9608   -4.6985    7.3528 C   0  0  0  0  0  0  0  0  0  0  0  0
    3.2174   -3.0305    6.1711 O   0  0  0  0  0  0  0  0  0  0  0  0
    4.0421   -1.8551    6.0432 C   0  0  0  0  0  0  0  0  0  0  0  0
    4.2318   -1.4647    4.5150 C   0  0  1  0  0  0  0  0  0  0  0  0
    5.5760   -1.2109    4.3122 O   0  0  0  0  0  0  0  0  0  0  0  0
    6.2387   -0.2420    5.1300 C   0  0  0  0  0  0  0  0  0  0  0  0
    3.7976   -2.6283    3.8886 O   0  0  0  0  0  0  0  0  0  0  0  0
    4.2774   -3.3131    2.7255 C   0  0  1  0  0  0  0  0  0  0  0  0
    5.2704   -2.5647    1.8007 C   0  0  0  0  0  0  0  0  0  0  0  0
    6.3773   -3.0033    1.5103 O   0  0  0  0  0  0  0  0  0  0  0  0
    4.7870   -1.4073    1.3653 O   0  0  0  0  0  0  0  0  0  0  0  0
    5.5631   -0.5127    0.6014 C   0  0  0  0  0  0  0  0  0  0  0  0
    4.7829   -4.6899    3.2610 C   0  0  1  0  0  0  0  0  0  0  0  0
    5.3046   -4.6776    4.5844 O   0  0  0  0  0  0  0  0  0  0  0  0
    3.5898   -5.6489    3.0566 C   0  0  1  0  0  0  0  0  0  0  0  0
    2.3627   -5.2005    3.8896 C   0  0  0  0  0  0  0  0  0  0  0  0
    1.8091   -3.9917    3.0906 C   0  0  1  0  0  0  0  0  0  0  0  0
    0.9937   -2.9097    3.8877 C   0  0  2  0  0  0  0  0  0  0  0  0
    0.7475   -1.5944    3.4928 C   0  0  2  0  0  0  0  0  0  0  0  0
    2.1738   -0.7854    2.6057 S   0  0  0  0  0  0  0  0  0  0  0  0
    1.6385    0.5114    2.0042 O   0  0  0  0  0  0  0  0  0  0  0  0
    3.3723   -0.2462    3.9374 C   0  0  2  0  0  0  0  0  0  0  0  0
    4.2061    0.7240    3.3946 O   0  0  0  0  0  0  0  0  0  0  0  0
    2.5717    0.4682    4.9999 C   0  0  0  0  0  0  0  0  0  0  0  0
    3.0382    1.4072    5.6441 O   0  0  0  0  0  0  0  0  0  0  0  0
    1.1893   -0.0933    5.2527 C   0  0  2  0  0  0  0  0  0  0  0  0
    0.3247    0.6836    4.4171 O   0  0  0  0  0  0  0  0  0  0  0  0
    1.0987   -1.6919    5.0001 C   0  0  2  0  0  0  0  0  0  0  0  0
    2.9499   -3.7779    2.0261 C   0  0  1  0  0  0  0  0  0  0  0  0
    2.5224   -3.1522    0.8294 O   0  0  0  0  0  0  0  0  0  0  0  0
    3.1553   -5.2556    1.6499 C   0  0  1  0  0  0  0  0  0  0  0  0
    4.1238   -5.4804    0.6455 O   0  0  0  0  0  0  0  0  0  0  0  0
   -2.5859    3.9832    3.4739 H   0  0  0  0  0  0  0  0  0  0  0  0
   -3.5954    2.5501    3.4639 H   0  0  0  0  0  0  0  0  0  0  0  0
   -1.8541    2.3924    3.7114 H   0  0  0  0  0  0  0  0  0  0  0  0
   -3.8469    3.7319    5.6835 H   0  0  0  0  0  0  0  0  0  0  0  0
   -3.5603    3.2449    8.0358 H   0  0  0  0  0  0  0  0  0  0  0  0
   -1.8485    3.4268    8.3895 H   0  0  0  0  0  0  0  0  0  0  0  0
   -2.6107    1.8244    8.3905 H   0  0  0  0  0  0  0  0  0  0  0  0
   -0.4508    1.4588    8.0337 H   0  0  0  0  0  0  0  0  0  0  0  0
    1.6771    2.7094    7.7655 H   0  0  0  0  0  0  0  0  0  0  0  0
    0.3070    3.7351    7.4111 H   0  0  0  0  0  0  0  0  0  0  0  0
    1.2428    3.0854    6.0862 H   0  0  0  0  0  0  0  0  0  0  0  0
    2.1863    0.8683    7.5956 H   0  0  0  0  0  0  0  0  0  0  0  0
   -0.5748   -1.0887    7.8956 H   0  0  0  0  0  0  0  0  0  0  0  0
   -1.3228   -0.4697    5.2296 H   0  0  0  0  0  0  0  0  0  0  0  0
    0.0454   -4.0162    5.9903 H   0  0  0  0  0  0  0  0  0  0  0  0
    3.5095   -1.9103    8.6964 H   0  0  0  0  0  0  0  0  0  0  0  0
    4.2074   -3.5385    8.5456 H   0  0  0  0  0  0  0  0  0  0  0  0
    2.7181   -3.2737    9.4618 H   0  0  0  0  0  0  0  0  0  0  0  0
    1.3210   -4.9476    6.5096 H   0  0  0  0  0  0  0  0  0  0  0  0
    1.4020   -4.8865    8.2688 H   0  0  0  0  0  0  0  0  0  0  0  0
    2.8239   -5.3570    7.3282 H   0  0  0  0  0  0  0  0  0  0  0  0
    3.7543   -1.0191    6.6774 H   0  0  0  0  0  0  0  0  0  0  0  0
    5.0140   -2.1810    6.4295 H   0  0  0  0  0  0  0  0  0  0  0  0
    7.0765    0.1435    4.5444 H   0  0  0  0  0  0  0  0  0  0  0  0
    6.6592   -0.6867    6.0308 H   0  0  0  0  0  0  0  0  0  0  0  0
    5.6361    0.6148    5.4202 H   0  0  0  0  0  0  0  0  0  0  0  0
    5.0158    0.4260    0.4895 H   0  0  0  0  0  0  0  0  0  0  0  0
    5.7451   -0.9236   -0.3884 H   0  0  0  0  0  0  0  0  0  0  0  0
    6.5080   -0.2988    1.0935 H   0  0  0  0  0  0  0  0  0  0  0  0
    5.6031   -5.0552    2.6409 H   0  0  0  0  0  0  0  0  0  0  0  0
    4.6298   -4.3394    5.1517 H   0  0  0  0  0  0  0  0  0  0  0  0
    3.8427   -6.6989    3.1745 H   0  0  0  0  0  0  0  0  0  0  0  0
    1.6153   -5.9941    3.9711 H   0  0  0  0  0  0  0  0  0  0  0  0
    2.6948   -4.9432    4.8803 H   0  0  0  0  0  0  0  0  0  0  0  0
    1.0143   -4.4278    2.4976 H   0  0  0  0  0  0  0  0  0  0  0  0
    0.0133   -3.3944    3.9532 H   0  0  0  0  0  0  0  0  0  0  0  0
   -0.2211   -1.2833    3.1733 H   0  0  0  0  0  0  0  0  0  0  0  0
    3.7102    1.2307    2.7700 H   0  0  0  0  0  0  0  0  0  0  0  0
    0.6586    0.6915    3.5267 H   0  0  0  0  0  0  0  0  0  0  0  0
    2.2882   -2.2521    0.9921 H   0  0  0  0  0  0  0  0  0  0  0  0
    2.2440   -5.7762    1.3522 H   0  0  0  0  0  0  0  0  0  0  0  0
    3.7500   -5.2059   -0.1770 H   0  0  0  0  0  0  0  0  0  0  0  0
  1  2  1  0
  1 49  1  0
  1 50  1  0
  1 51  1  0
  2  3  2  3
  2 52  1  0
  3  4  1  0
  3  5  1  0
  4 53  1  0
  4 54  1  0
  4 55  1  0
  5  6  1  0
  6  7  1  0
  6  8  1  0
  6 56  1  1
  7 57  1  0
  7 58  1  0
  7 59  1  0
  8 42  1  0
  8  9  1  1
  8 10  1  0
  9 60  1  0
 10 11  1  0
 10 12  1  0
 10 61  1  1
 11 62  1  0
 44 12  1  1
 12 13  1  6
 12 14  1  0
 13 63  1  0
 14 15  1  0
 15 16  1  0
 15 17  1  0
 15 18  1  0
 16 64  1  0
 16 65  1  0
 16 66  1  0
 17 67  1  0
 17 68  1  0
 17 69  1  0
 18 19  1  0
 19 20  1  0
 19 70  1  0
 19 71  1  0
 20 38  1  0
 20 21  1  1
 20 23  1  0
 21 22  1  0
 22 72  1  0
 22 73  1  0
 22 74  1  0
 23 24  1  0
 24 45  1  0
 24 25  1  6
 24 29  1  0
 25 26  2  0
 25 27  1  0
 27 28  1  0
 28 75  1  0
 28 76  1  0
 28 77  1  0
 29 30  1  0
 29 31  1  0
 29 78  1  6
 30 79  1  0
 31 47  1  0
 31 32  1  0
 31 80  1  6
 32 33  1  0
 32 81  1  0
 32 82  1  0
 33 34  1  0
 33 45  1  0
 33 83  1  6
 34 44  1  0
 34 35  1  0
 34 84  1  1
 35 44  1  0
 35 36  1  0
 35 85  1  1
 36 37  2  0
 36 38  1  1
 38 39  1  6
 38 40  1  0
 39 86  1  0
 40 41  2  0
 40 42  1  0
 42 43  1  6
 42 44  1  0
 43 87  1  0
 45 46  1  6
 45 47  1  0
 46 88  1  0
 47 48  1  0
 47 89  1  6
 48 90  1  0
M  END
>  <i_m_ct_stereo_status>  (126) 
1

>  <s_m_source_file>  (126) 
/var/tmp/pbs.5075288.sched01/tmpqqnbnjfs/192vg5g1vka.sdf

>  <i_m_source_file_index>  (126) 
54

>  <i_lp_mmshare_version>  (126) 
48012

>  <i_f3d_flags>  (126) 
2

>  <s_epik_input>  (126) 
W0NIM10vW0NIXT1DKFxbQ0gzXSlPW0NASF0oW0NIM10pW0NAQF0oW09IXSkoW0NAQEhdKFtPSF0pW0NAXTEoQzIzNClbT0hdKVtDQEBdNChbT0hdKUMoPU8pW0NAQF01KFtPSF0pW0NAQF0oT1tDSDNdKShbQ0gyXU9DKE8xKShbQ0gzXSlbQ0gzXSlPW0NAXTYoQyg9TylPW0NIM10pW0NAXTcoW09IXSlbQ0BIXShbQ0BASF0yW0NAQEhdM1tTK101W08tXSlbQ0gyXVtDQEhdKFtDQEBIXTZbT0hdKVtDQEBIXTdbT0hd

>  <s_epik_cmdline>  (126) 
J2VwaWtfcHl0aG9uJywgJy1waHQnLCAnMi4wJywgJy1waCcsICc3LjAnLCAnLXRuJywgJzgnLCAnLW1hJywgJzIwMCcsICctaW1hZScsICc8aW5maWxlLm1hZT4nLCAnLW9tYWUnLCAnPG91dGZpbGUubWFlPic=

>  <r_lp_tautomer_probability>  (126) 
1

>  <r_epik_Ionization_Penalty>  (126) 
2.2641e-05

>  <r_epik_Ionization_Penalty_Charging>  (126) 
0

>  <r_epik_Ionization_Penalty_Neutral>  (126) 
2.2641e-05

>  <r_epik_State_Penalty>  (126) 
-0

>  <r_epik_Charging_Adjusted_Penalty>  (126) 
0

>  <i_epik_Tot_Q>  (126) 
0

>  <i_epik_Tot_abs_Q>  (126) 
2

>  <s_epik_Chemistry_Notes>  (126) 
This compound has an ester and may undergo hydrolysis at high or low pH.

>  <s_lp_Force_Field>  (126) 
OPLS3e

>  <r_lp_Energy>  (126) 
207.482

>  <b_lp_Chiralities_Consistent>  (126) 
0

>  <s_lp_Variant>  (126) 
98:0-2

>  <s_i_glide_gridfile>  (126) 
pfpi4k_grid

>  <i_i_glide_lignum>  (126) 
54

>  <i_i_glide_rotatable_bonds>  (126) 
14

>  <r_i_docking_score>  (126) 
-3.55808

>  <r_i_glide_ligand_efficiency>  (126) 
-0.0741268

>  <r_i_glide_ligand_efficiency_sa>  (126) 
-0.269395

>  <r_i_glide_ligand_efficiency_ln>  (126) 
-0.730433

>  <r_i_glide_gscore>  (126) 
-3.55808

>  <r_i_glide_lipo>  (126) 
-0.464072

>  <r_i_glide_hbond>  (126) 
0

>  <r_i_glide_metal>  (126) 
-0

>  <r_i_glide_rewards>  (126) 
-1.07876

>  <r_i_glide_evdw>  (126) 
-22.2107

>  <r_i_glide_ecoul>  (126) 
-6.95161

>  <r_i_glide_erotb>  (126) 
0.171897

>  <r_i_glide_esite>  (126) 
-0.0338734

>  <r_i_glide_emodel>  (126) 
-42.0226

>  <r_i_glide_energy>  (126) 
-29.1623

>  <r_i_glide_einternal>  (126) 
11.4168

>  <r_i_glide_intrahb_reward>  (126) 
-1

>  <i_i_glide_confnum>  (126) 
3

>  <i_i_glide_posenum>  (126) 
13

>  <r_i_glide_eff_state_penalty>  (126) 
0

>  <ligand_id>  (126) 
98

>  <original_smiles>  (126) 
CC=C(C)OC(C)C1(O)C(O)C2(O)OC(C)(C)OCC3(OC)OC4(C(=O)OC)C(O)C5CC(C6C7[S+]([O-])C3(O)C(=O)C1(O)C672)C4(O)C5O

>  <smiles>  (126) 
[H]OC12C(=O)C3(O[H])C(O[H])(C([H])(OC(=C([H])C([H])([H])[H])C([H])([H])[H])C([H])([H])[H])C([H])(O[H])C4(O[H])OC(C([H])([H])[H])(C([H])([H])[H])OC([H])([H])C1(OC([H])([H])[H])OC1(C(=O)OC([H])([H])[H])C([H])(O[H])C5([H])C([H])([H])C([H])(C6([H])C([H])(S2=O)C436)C1(O[H])C5([H])O[H]

$$$$
98:1:2
     RDKit          3D

 90 96  0  0  1  0  0  0  0  0999 V2000
    2.2122   -4.9579    0.7643 C   0  0  0  0  0  0  0  0  0  0  0  0
    1.6770   -5.8789    1.8428 C   0  0  0  0  0  0  0  0  0  0  0  0
    1.4670   -5.5792    3.1311 C   0  0  0  0  0  0  0  0  0  0  0  0
    0.9774   -6.6183    4.1151 C   0  0  0  0  0  0  0  0  0  0  0  0
    1.6555   -4.2901    3.6020 O   0  0  0  0  0  0  0  0  0  0  0  0
    1.8017   -4.0116    5.0046 C   0  0  2  0  0  0  0  0  0  0  0  0
    0.5328   -4.3143    5.8406 C   0  0  0  0  0  0  0  0  0  0  0  0
    2.3331   -2.5255    5.1713 C   0  0  1  0  0  0  0  0  0  0  0  0
    2.8321   -2.5488    6.5155 O   0  0  0  0  0  0  0  0  0  0  0  0
    3.5116   -2.1404    4.2086 C   0  0  1  0  0  0  0  0  0  0  0  0
    3.2497   -2.3851    2.8246 O   0  0  0  0  0  0  0  0  0  0  0  0
    3.7012   -0.6250    4.4594 C   0  0  2  0  0  0  0  0  0  0  0  0
    4.5863   -0.1399    3.4713 O   0  0  0  0  0  0  0  0  0  0  0  0
    4.3401   -0.6110    5.7202 O   0  0  0  0  0  0  0  0  0  0  0  0
    4.5141    0.5549    6.4667 C   0  0  0  0  0  0  0  0  0  0  0  0
    5.0027    0.0926    7.8585 C   0  0  0  0  0  0  0  0  0  0  0  0
    5.6249    1.4109    5.8332 C   0  0  0  0  0  0  0  0  0  0  0  0
    3.3570    1.3304    6.6021 O   0  0  0  0  0  0  0  0  0  0  0  0
    2.2744    0.9090    7.4469 C   0  0  0  0  0  0  0  0  0  0  0  0
    0.8876    1.4893    6.9353 C   0  0  1  0  0  0  0  0  0  0  0  0
    0.2175    2.0347    8.0503 O   0  0  0  0  0  0  0  0  0  0  0  0
    0.0056    1.2168    9.2027 C   0  0  0  0  0  0  0  0  0  0  0  0
    1.3163    2.4542    6.0358 O   0  0  0  0  0  0  0  0  0  0  0  0
    0.8420    3.7693    5.7569 C   0  0  1  0  0  0  0  0  0  0  0  0
   -0.5791    4.0758    6.2869 C   0  0  0  0  0  0  0  0  0  0  0  0
   -0.7796    4.8876    7.2001 O   0  0  0  0  0  0  0  0  0  0  0  0
   -1.5412    3.3148    5.7360 O   0  0  0  0  0  0  0  0  0  0  0  0
   -2.8286    3.2012    6.3032 C   0  0  0  0  0  0  0  0  0  0  0  0
    1.9629    4.7452    6.2119 C   0  0  1  0  0  0  0  0  0  0  0  0
    2.7319    4.2961    7.3139 O   0  0  0  0  0  0  0  0  0  0  0  0
    2.7683    5.0190    4.9216 C   0  0  1  0  0  0  0  0  0  0  0  0
    3.3987    3.7144    4.3705 C   0  0  0  0  0  0  0  0  0  0  0  0
    2.2243    2.9737    3.6904 C   0  0  1  0  0  0  0  0  0  0  0  0
    2.2958    1.3921    3.5783 C   0  0  2  0  0  0  0  0  0  0  0  0
    1.2069    0.5035    3.4086 C   0  0  2  0  0  0  0  0  0  0  0  0
   -0.3358    1.0230    4.3247 S   0  0  0  0  0  0  0  0  0  0  0  0
   -1.4958    0.1970    3.7738 O   0  0  0  0  0  0  0  0  0  0  0  0
   -0.0935    0.5166    6.1161 C   0  0  2  0  0  0  0  0  0  0  0  0
   -1.3737    0.4994    6.7402 O   0  0  0  0  0  0  0  0  0  0  0  0
    0.4069   -0.9242    6.0883 C   0  0  0  0  0  0  0  0  0  0  0  0
    0.0469   -1.7111    6.9616 O   0  0  0  0  0  0  0  0  0  0  0  0
    1.3692   -1.2853    4.9317 C   0  0  2  0  0  0  0  0  0  0  0  0
    0.5016   -1.8625    3.9437 O   0  0  0  0  0  0  0  0  0  0  0  0
    2.2518    0.0033    4.4662 C   0  0  2  0  0  0  0  0  0  0  0  0
    1.0206    3.8738    4.1825 C   0  0  1  0  0  0  0  0  0  0  0  0
   -0.1506    3.7908    3.3785 O   0  0  0  0  0  0  0  0  0  0  0  0
    1.6532    5.2680    3.9203 C   0  0  1  0  0  0  0  0  0  0  0  0
    0.7982    6.3710    4.2035 O   0  0  0  0  0  0  0  0  0  0  0  0
    1.5166   -4.9089   -0.0692 H   0  0  0  0  0  0  0  0  0  0  0  0
    3.1598   -5.3467    0.3825 H   0  0  0  0  0  0  0  0  0  0  0  0
    2.3819   -3.9475    1.1311 H   0  0  0  0  0  0  0  0  0  0  0  0
    1.4810   -6.8974    1.5217 H   0  0  0  0  0  0  0  0  0  0  0  0
    1.0296   -7.6287    3.7147 H   0  0  0  0  0  0  0  0  0  0  0  0
   -0.0692   -6.3896    4.3565 H   0  0  0  0  0  0  0  0  0  0  0  0
    1.5617   -6.6003    5.0413 H   0  0  0  0  0  0  0  0  0  0  0  0
    2.6205   -4.6456    5.3502 H   0  0  0  0  0  0  0  0  0  0  0  0
    0.6622   -3.9747    6.8567 H   0  0  0  0  0  0  0  0  0  0  0  0
    0.2638   -5.3572    5.9077 H   0  0  0  0  0  0  0  0  0  0  0  0
   -0.3071   -3.7892    5.4114 H   0  0  0  0  0  0  0  0  0  0  0  0
    2.1165   -2.7693    7.0928 H   0  0  0  0  0  0  0  0  0  0  0  0
    4.4281   -2.6805    4.4604 H   0  0  0  0  0  0  0  0  0  0  0  0
    2.5412   -1.8240    2.5626 H   0  0  0  0  0  0  0  0  0  0  0  0
    4.6175    0.7989    3.5477 H   0  0  0  0  0  0  0  0  0  0  0  0
    4.3269   -0.6521    8.2828 H   0  0  0  0  0  0  0  0  0  0  0  0
    5.0880    0.9420    8.5419 H   0  0  0  0  0  0  0  0  0  0  0  0
    5.9819   -0.3812    7.7647 H   0  0  0  0  0  0  0  0  0  0  0  0
    5.3489    1.7271    4.8398 H   0  0  0  0  0  0  0  0  0  0  0  0
    6.5553    0.8484    5.7627 H   0  0  0  0  0  0  0  0  0  0  0  0
    5.7989    2.3032    6.4311 H   0  0  0  0  0  0  0  0  0  0  0  0
    2.2435   -0.1607    7.6388 H   0  0  0  0  0  0  0  0  0  0  0  0
    2.5009    1.3699    8.4061 H   0  0  0  0  0  0  0  0  0  0  0  0
   -0.9014    1.5445    9.7069 H   0  0  0  0  0  0  0  0  0  0  0  0
    0.8226    1.3131    9.9112 H   0  0  0  0  0  0  0  0  0  0  0  0
   -0.1173    0.1621    8.9709 H   0  0  0  0  0  0  0  0  0  0  0  0
   -3.4236    2.5473    5.6704 H   0  0  0  0  0  0  0  0  0  0  0  0
   -3.3455    4.1468    6.3679 H   0  0  0  0  0  0  0  0  0  0  0  0
   -2.7712    2.7603    7.3014 H   0  0  0  0  0  0  0  0  0  0  0  0
    1.5170    5.6843    6.5345 H   0  0  0  0  0  0  0  0  0  0  0  0
    3.1088    3.4604    7.0860 H   0  0  0  0  0  0  0  0  0  0  0  0
    3.4677    5.8430    5.0240 H   0  0  0  0  0  0  0  0  0  0  0  0
    4.1826    3.9420    3.6644 H   0  0  0  0  0  0  0  0  0  0  0  0
    3.8360    3.1670    5.1857 H   0  0  0  0  0  0  0  0  0  0  0  0
    2.3115    3.2403    2.6335 H   0  0  0  0  0  0  0  0  0  0  0  0
    2.9016    1.2771    2.6770 H   0  0  0  0  0  0  0  0  0  0  0  0
    1.0429    0.0362    2.4347 H   0  0  0  0  0  0  0  0  0  0  0  0
   -1.6678    1.3977    6.7882 H   0  0  0  0  0  0  0  0  0  0  0  0
    0.9941   -2.1347    3.1900 H   0  0  0  0  0  0  0  0  0  0  0  0
    0.1109    3.9654    2.4740 H   0  0  0  0  0  0  0  0  0  0  0  0
    2.0341    5.3922    2.9001 H   0  0  0  0  0  0  0  0  0  0  0  0
    0.6174    6.8325    3.3903 H   0  0  0  0  0  0  0  0  0  0  0  0
  1  2  1  0
  1 49  1  0
  1 50  1  0
  1 51  1  0
  2  3  2  3
  2 52  1  0
  3  4  1  0
  3  5  1  0
  4 53  1  0
  4 54  1  0
  4 55  1  0
  5  6  1  0
  6  7  1  0
  6  8  1  0
  6 56  1  1
  7 57  1  0
  7 58  1  0
  7 59  1  0
  8 42  1  0
  8  9  1  1
  8 10  1  0
  9 60  1  0
 10 11  1  0
 10 12  1  0
 10 61  1  1
 11 62  1  0
 44 12  1  6
 12 13  1  6
 12 14  1  0
 13 63  1  0
 14 15  1  0
 15 16  1  0
 15 17  1  0
 15 18  1  0
 16 64  1  0
 16 65  1  0
 16 66  1  0
 17 67  1  0
 17 68  1  0
 17 69  1  0
 18 19  1  0
 19 20  1  0
 19 70  1  0
 19 71  1  0
 20 38  1  0
 20 21  1  1
 20 23  1  0
 21 22  1  0
 22 72  1  0
 22 73  1  0
 22 74  1  0
 23 24  1  0
 24 45  1  0
 24 25  1  6
 24 29  1  0
 25 26  2  0
 25 27  1  0
 27 28  1  0
 28 75  1  0
 28 76  1  0
 28 77  1  0
 29 30  1  0
 29 31  1  0
 29 78  1  1
 30 79  1  0
 31 47  1  0
 31 32  1  0
 31 80  1  1
 32 33  1  0
 32 81  1  0
 32 82  1  0
 33 34  1  0
 33 45  1  0
 33 83  1  6
 34 44  1  0
 34 35  1  0
 34 84  1  6
 35 44  1  0
 35 36  1  0
 35 85  1  6
 36 37  2  0
 36 38  1  1
 38 39  1  1
 38 40  1  0
 39 86  1  0
 40 41  2  0
 40 42  1  0
 42 43  1  6
 42 44  1  0
 43 87  1  0
 45 46  1  6
 45 47  1  0
 46 88  1  0
 47 48  1  0
 47 89  1  6
 48 90  1  0
M  END
>  <i_m_ct_stereo_status>  (127) 
1

>  <s_m_source_file>  (127) 
/var/tmp/pbs.5075288.sched01/tmpqqnbnjfs/192vg5g1vka.sdf

>  <i_m_source_file_index>  (127) 
54

>  <i_lp_mmshare_version>  (127) 
48012

>  <i_f3d_flags>  (127) 
2

>  <s_epik_input>  (127) 
W0NIM10vW0NIXT1DKFxbQ0gzXSlPW0NASF0oW0NIM10pW0NAQF0oW09IXSkoW0NAQEhdKFtPSF0pW0NAXTEoQzIzNClbT0hdKVtDQEBdNChbT0hdKUMoPU8pW0NAQF01KFtPSF0pW0NAQF0oT1tDSDNdKShbQ0gyXU9DKE8xKShbQ0gzXSlbQ0gzXSlPW0NAXTYoQyg9TylPW0NIM10pW0NAXTcoW09IXSlbQ0BIXShbQ0BASF0yW0NAQEhdM1tTK101W08tXSlbQ0gyXVtDQEhdKFtDQEBIXTZbT0hdKVtDQEBIXTdbT0hd

>  <s_epik_cmdline>  (127) 
J2VwaWtfcHl0aG9uJywgJy1waHQnLCAnMi4wJywgJy1waCcsICc3LjAnLCAnLXRuJywgJzgnLCAnLW1hJywgJzIwMCcsICctaW1hZScsICc8aW5maWxlLm1hZT4nLCAnLW9tYWUnLCAnPG91dGZpbGUubWFlPic=

>  <r_lp_tautomer_probability>  (127) 
1

>  <r_epik_Ionization_Penalty>  (127) 
2.2641e-05

>  <r_epik_Ionization_Penalty_Charging>  (127) 
0

>  <r_epik_Ionization_Penalty_Neutral>  (127) 
2.2641e-05

>  <r_epik_State_Penalty>  (127) 
-0

>  <r_epik_Charging_Adjusted_Penalty>  (127) 
0

>  <i_epik_Tot_Q>  (127) 
0

>  <i_epik_Tot_abs_Q>  (127) 
2

>  <s_epik_Chemistry_Notes>  (127) 
This compound has an ester and may undergo hydrolysis at high or low pH.

>  <s_lp_Force_Field>  (127) 
OPLS3e

>  <r_lp_Energy>  (127) 
207.482

>  <b_lp_Chiralities_Consistent>  (127) 
0

>  <s_lp_Variant>  (127) 
98:0-2

>  <s_i_glide_gridfile>  (127) 
pfpi4k_grid

>  <i_i_glide_lignum>  (127) 
54

>  <i_i_glide_rotatable_bonds>  (127) 
14

>  <r_i_docking_score>  (127) 
-3.54969

>  <r_i_glide_ligand_efficiency>  (127) 
-0.0739518

>  <r_i_glide_ligand_efficiency_sa>  (127) 
-0.268759

>  <r_i_glide_ligand_efficiency_ln>  (127) 
-0.728709

>  <r_i_glide_gscore>  (127) 
-3.54969

>  <r_i_glide_lipo>  (127) 
-0.166209

>  <r_i_glide_hbond>  (127) 
0

>  <r_i_glide_metal>  (127) 
-0

>  <r_i_glide_rewards>  (127) 
-1

>  <r_i_glide_evdw>  (127) 
-24.073

>  <r_i_glide_ecoul>  (127) 
-8.75575

>  <r_i_glide_erotb>  (127) 
0.171897

>  <r_i_glide_esite>  (127) 
-0.0383608

>  <r_i_glide_emodel>  (127) 
-45.5046

>  <r_i_glide_energy>  (127) 
-32.8287

>  <r_i_glide_einternal>  (127) 
9.62408

>  <r_i_glide_intrahb_reward>  (127) 
-1

>  <i_i_glide_confnum>  (127) 
3

>  <i_i_glide_posenum>  (127) 
35

>  <r_i_glide_eff_state_penalty>  (127) 
0

>  <ligand_id>  (127) 
98

>  <original_smiles>  (127) 
CC=C(C)OC(C)C1(O)C(O)C2(O)OC(C)(C)OCC3(OC)OC4(C(=O)OC)C(O)C5CC(C6C7[S+]([O-])C3(O)C(=O)C1(O)C672)C4(O)C5O

>  <smiles>  (127) 
[H]OC12C(=O)C3(O[H])C(O[H])(C([H])(OC(=C([H])C([H])([H])[H])C([H])([H])[H])C([H])([H])[H])C([H])(O[H])C4(O[H])OC(C([H])([H])[H])(C([H])([H])[H])OC([H])([H])C1(OC([H])([H])[H])OC1(C(=O)OC([H])([H])[H])C([H])(O[H])C5([H])C([H])([H])C([H])(C6([H])C([H])(S2=O)C436)C1(O[H])C5([H])O[H]

$$$$
